# total energy = -381162.92149328 ev
CRYSTAL
PRIMVEC
9.31602683878014 0.00000000000000 0.00000000000000

0.00000000000000 9.31602683878014 0.00000000000000

0.00000000000000 0.00000000000000 13.63494695698318

PRIMCOORD
 96 1
Ni 0.47159869526734655 0.5317625268970049 6.556037296027725 -0.5277294653768911 -0.4948738522994509 0.7275257782753599
Ni 4.497749712656065 2.245907701843889 0.5199581895442323 0.24639035860792402 0.4134670697861847 -0.47137808317035595
Ni 0.6453388656518985 5.914931632880049 5.923906692942917 0.45874882444211956 -0.200730394676964 0.6213155635651686
Ni 0.41783590554052935 0.6027385390425085 11.547899745526738 -0.1825868909987178 3.168947124091684 1.527670565569027
Ni 0.2643990836104264 7.584754879494875 8.052104535012715 -0.7593724904723116 -0.33773162662608286 0.8501177767776843
Ni 8.06784675682529 0.1985422281024008 1.5898759008171088 1.0077297429986192 -0.924329327094092 1.5322121621931224
Ni 7.022234559050467 7.708723245964248 13.60704999296506 0.6049319800008227 -0.7060871487856099 -1.4705707352322417
Ni 3.150521836455417 1.0602756237027406 8.153070700110664 0.3771949748280278 -0.7191151856141614 1.9148167380724956
Ni 2.854952259317533 7.688274567494249 2.384247902607416 0.5294708735480301 0.434715951862632 0.03007573633945788
Ni 0.5937550945556657 2.556997779360369 8.801822026319995 -0.89566512639018 -0.34301935738758343 1.460704383961123
Ni 4.915368554775933 3.9846229654453404 2.176219164579731 -0.17581743348536816 -0.6043102872564238 1.7899603690160268
Ni 7.207735281462594 7.128325470401878 2.076874919719424 -0.05390754865173297 0.6107987231942449 2.8212928390352507
Ni 2.8859187318616226 6.836771100744891 4.653061850748359 -0.3863504160750508 -0.5485394601437069 0.9905558023224941
Ni 6.4528576430006295 2.942392485340043 5.837434402088076 1.3459707051609529 -0.6447028321408573 -0.9229252476577137
Ni 4.421451454492378 7.788775862862972 9.051163616075725 -1.0510510314940738 1.096613550615221 0.4314941024912246
Ni 7.8044919998009625 6.192940499805655 4.772026579310563 1.0405593879341304 -1.4182343877223704 -3.1362586327197275
Ni 4.142389876556699 8.893880206746868 4.375917511094741 -1.4163112025577285 -1.214399900198786 -1.310708025303917
Ni 5.049267805641215 8.774728226049243 6.9098637141425066 0.5559506650061135 0.329118173925459 -0.5526732798064223
Ni 7.313015698496516 0.8247916235707572 7.234430355793246 0.0191104955772058 -0.46742912582493695 -0.2862388580634296
Ni 7.569085322690073 1.9020624746688595 10.54754480515841 0.4525727775383948 -0.6042292975068432 0.6572346460592811
Ni 5.702768442230501 0.6338056246742864 9.545076058345959 0.025222779122530757 -0.41896100302122036 -0.1274089602749935
Ni 0.29206954593005774 4.4014685773542706 2.5960393837941145 -0.9886318458269038 0.801712131780787 -1.772673042690489
Ni 2.935787422453834 6.931608251917826 11.894377681829614 0.3313298368647971 1.2228243768170555 -0.042378722076527015
Ni 0.7798464530566298 7.882578935079109 11.109249973272007 -2.727343958190916 -0.5034649364025716 2.4987834286755612
P 1.9314265906312453 8.848865166032956 9.471788739991615 -0.1945234945353037 1.4320193573216047 -1.249434523205416
Ni 0.4868005875349293 7.250011410344988 0.8659079071367436 0.031386998951713686 0.45286742596067814 1.6560280058002192
P 5.405577876457638 6.561361405251234 7.446534855474974 0.5108154632303719 0.6597769528651605 -0.6264919655597855
Ni 2.9263409714430915 2.8007236682588252 6.653103772375087 0.30496728771086834 1.8802240876992908 0.05644419903065763
P 3.7344597021401555 2.982609772335481 11.204858491450551 -0.3935399918449545 -0.24609313908247943 0.608027588207011
P 2.7011912396604343 5.037296711411626 6.085767997761593 0.7200271559054696 0.810019880315534 1.656883668932295
P 4.563455648532558 8.836642539084147 11.591559304364846 -0.21731632406010315 -2.9853281922840265 -1.737446615388027
Ni 6.78166680318223 2.70069749024863 1.2633668676123853 0.9183507409131538 -0.25343595260079577 0.17576241187771663
Ni 3.7225351880437554 0.03698089934146135 13.397385360659774 3.08738016185147 1.2468762755599365 1.1653195977323672
Ni 4.5026406266409165 5.281600193961626 11.89120091674612 1.332358513694157 -1.1813668810032172 -1.7625608939571518
Ni 1.7095654162517355 3.355996119979014 12.471421687802371 3.6635078160260908 -0.5202259579109944 -0.16850058810898078
Ni 7.722091744189509 4.215045568305 10.177260694385268 -0.3144456595149488 -1.1524442844315959 1.5020076135852842
Ni 2.8189923964955756 0.0015986301710486615 6.249223274738001 -0.6194026628131719 0.09858380851318506 -1.3175690140898082
Ni 1.8296396835865034 8.676900630325573 13.107724007615591 -3.844925369307056 -0.7693576267094814 0.3065937675706978
Ni 6.022401316173856 5.42618492738048 9.148626955157857 0.13979165021006246 0.3615143308679774 0.17595653016639373
Ni 5.279336399488638 1.3387223438803246 11.933768637262277 0.9762293583974929 2.0393625178670813 -0.15381110441760606
Ni 0.6200915018607623 4.844063686890114 0.33854347641545024 -0.23694386848304355 0.4894321124585894 -0.9059577665654397
Ni 5.469262234553725 3.147643184224333 10.01077770875157 0.9427978182119247 -0.056633689333644405 0.8547974416415407
Ni 2.075107669466231 1.7591453100181746 10.413268255214295 0.5327752553309147 0.09960325091663491 -0.2573363160964665
Ni 4.900975293620513 6.200104524290133 3.4301982721491924 -0.6230130058722496 1.2735177894068648 -4.3349334088737725
Ni 3.601277785325985 3.4019707114366198 8.71453085672369 -2.980449009814854 -1.535329881886498 3.1183411290093583
Ni 3.3791837102805298 0.7221774533605778 2.16118030277831 -0.7043159158178 0.5465872215133426 0.3285067655937052
Ni 9.029158229554547 3.839823963413817 4.719327679825785 -1.2637902777064558 -0.25144257631985084 0.8036903385530804
Ni 9.004563919230721 3.214765156149774 12.118590221332507 -3.60828643365894 -1.6735367041079439 -0.13731182121100224
Ni 7.109572308779962 3.021811612427397 8.253014897086448 0.7952411793444627 0.1585103096654883 0.05129093696449231
Ni 1.871403431003818 6.744495856897357 9.82932386831091 1.7089780756346888 -1.636969446506871 -3.532402637846433
Ni 7.902831976989714 6.6888419137630635 10.333162536963734 2.6290856513379492 -0.4264380281245559 -0.9848366404505297
Ni 6.52747901636951 3.2587740659868003 12.495582802887537 0.2694287284846263 -0.4770823326439848 0.3919898737490152
Ni 7.8398556369181 1.0666012057898153 13.199091870468603 0.9988260127510862 1.786847277308342 -1.8920467913658319
Ni 5.716528213574551 6.72817417822791 5.2481044201853715 -0.15438857418763086 1.46793226916813 3.1855374243501977
Ni 4.889386156483073 4.534324433236118 4.872966659533928 -1.8012783651320072 -1.7630136652238542 0.7503967693362625
Ni 1.4574644194058857 4.852541271130525 8.307459619963153 1.530737634530125 -0.15203550057442206 -0.950716301728053
P 2.0548639435822635 5.850250459933714 1.9565332824201507 -1.1605332320873174 -1.6296171199068579 -0.8559271843706097
Ni 6.937523928832836 4.48332850342073 3.782824786033024 -0.5161093646394597 -1.144922522133254 -1.693040835579142
P 8.908869693607109 5.287059385571385 8.91849594393196 -0.7705017676162538 1.1032881344219192 -0.9824210890305014
Ni 5.389451834347584 1.491766029486312 2.895898991198711 0.9128511512511635 0.5445874174744944 0.38577217497407756
P 2.1054220201456735 1.3858428066143815 0.42860616393650464 -0.3524007986024834 -0.49981242725164887 -0.05054428860645488
P 8.324009541285227 1.8035082288674387 5.482285108190724 0.6091835561883251 0.27301207496051044 0.8531236534835436
P 8.320096810097345 8.324410130430653 3.9188611334090204 0.4740720850627513 -0.42577545483989254 -0.46530770860655996
Ni 7.7144246542665895 8.752369762118493 11.620533078811107 -0.05203218600589104 0.04844858241969075 -0.8947667829456267
Ni 7.837480050125458 5.0395884539645275 6.923648638758478 -0.15859181363570107 -0.2697326328782903 0.5810078650850574
Ni 4.997945814893505 3.9839894756339693 7.280338803461723 1.6722778920001782 1.7782502796679502 -1.3977745772061219
Ni 5.985826595593803 7.446775208962231 10.751414868894974 -2.866017692746451 0.7215867870831056 1.0602434966266192
Ni 2.652160991465626 4.7855217754981 10.608738057731546 -0.27374689624400594 -1.0414636449159547 0.010098007665950351
Ni 6.693770091854467 5.479863872867557 12.050224559850918 1.7581424531744818 1.1788713682748728 0.992023645117272
Ni 0.7021349536519875 3.1728150881997026 6.742835740950499 -1.597764237062319 0.4634300319678728 -0.8978073695441635
Ni 2.5237395642633778 3.340140242641457 1.115089261234303 -0.457166053336032 0.3816923484777491 1.8433292715554705
Ni 4.459069570055866 7.164192172957457 0.31333896634684794 1.2923158959499745 0.5176345430347343 0.21788402363811507
Ni 6.274343940566863 -0.10353925165531429 4.499395854562966 2.742478756949825 0.006650158326665967 0.4833565956884708
Ni 1.410735229790617 9.045675544783387 4.236568384646339 -0.4543820628329917 -1.0846052133004354 0.8151348329445962
Ni 3.2926378228152497 5.24572417537941 0.0023522967260477105 -2.4659828372057726 -0.7557225524245501 2.01750556989299
Ni 1.027119884898765 2.3937996247191657 3.055005546940587 1.301190572731785 -1.5313832385339239 -1.2031045297906249
Ni 6.912491765257034 7.976298163055506 8.482395968168 0.1694686084492049 -0.3570961471956237 0.04957241161148882
Ni 0.18944140167992152 2.3167654004510925 0.7663410092397928 -0.4872207066295674 0.31284591912799664 0.15144131863384888
Ni 6.084157256755916 0.4530812291193662 0.657040726711655 -2.6640079171364315 -0.2804518190680073 0.108892903748677
Ni 1.6804714650618462 1.8883679155112747 5.085508080864971 0.33866159463952 -0.8591312931302043 -0.5615410146096974
Ni 8.019245045855822 7.483592146234866 6.323070486293278 -0.09613123320763443 3.331274236400102 1.934592378037526
Ni 7.590502867930406 5.040799537427444 1.1285453301099597 -0.6161612730577389 -0.5680111957150734 -0.4865126248189492
Ni 1.0755539073887534 9.312439967557156 2.064275925294446 -0.4612697910917605 0.8554661855737912 -1.4860361778576923
Ni 8.875592846456842 0.17101430099032797 9.456285008460966 0.07756118351493095 -0.02979342921234869 -1.0778200720578017
Ni 0.5397621989708946 6.451870144177021 3.5871640049696984 0.3414831232487151 1.5814811836315796 -0.3878226297452031
Ni 1.9749231190031928 4.210890620424536 4.299057496524795 1.3351725861041845 0.4754638232039554 -0.3681603754295853
Ni 2.3714225287351396 7.374184729400394 7.216813749421143 0.5965494123640823 -0.9968575761708057 -0.006004040102234822
Ni 4.399679900239811 1.679651654717719 5.3664691966321 0.8928536250833138 -0.09086947058806286 -0.4848357513371586
P 5.343262974277309 1.847209709825418 7.73321042198174 -0.7080067344058258 -0.463512307269034 -0.4159682389414836
Ni 0.2524102889302252 5.223533399928139 11.295367416647556 1.565834478233258 0.5303604752418349 -0.0789878886591285
P 3.6073797827737524 2.7402812874326963 3.539059769822689 -0.4316262571937147 -0.22866311653149007 0.21309251578674268
Ni 3.688382634389534 5.684005964581947 8.540848445704292 -0.13222437938576584 -0.17972679584210335 -0.6331860897505095
P 5.376912462493088 5.13089483104173 0.5665811764558298 1.592324811214303 0.8391126839164322 -2.229883061890579
P 5.1545109585685855 8.434916838408387 2.0560955223037825 -0.509460234754058 -0.5354016372101683 1.110439914975352
P 8.959791095209393 6.630868279995956 12.732695244475812 -1.4914671190652766 0.31650202782334524 -0.6590359609340779
Ni 8.17820440837682 1.7676228942585843 3.3604957608450774 -0.9160994829851319 0.06161160216421002 -0.04778498069376287
