# total energy = -340886.09318217414 ev
CRYSTAL
PRIMVEC
9.12228875493029 0.00000000000000 0.00000000000000
0.00000000000000 9.12228875493029 0.00000000000000
0.00000000000000 0.00000000000000 13.35139168792276
PRIMCOORD
 96 1
Ni 6.536785645700125 2.488314004204122 11.408310294791873 1.2912589154403697 -0.1529490135276269 -0.252700617096668
Ni 4.886782588856431 0.5330527191219955 5.945187903367691 -0.5323592508394186 -0.2705289035273406 -0.30190304696324777
Ni 2.981665611494313 1.5116361846981066 4.5258282281097655 -0.3618665720010735 0.8264379166622413 1.2028577038871413
Ni 3.1917336713419244 4.475558945037148 4.318948408096996 1.6424775208092937 -0.414637435945202 1.3091404237064808
Ni 3.4268697800197097 2.6473519821172387 2.425160400837567 0.2919022269967941 0.5548805718703863 0.44077398513125376
Ni 5.468465315805492 4.3336435026605065 2.975744334021363 -0.4931864372946991 0.5102703893601792 -0.9019766704305047
Ni 5.2963003647240265 2.8676005159439164 1.104560445465096 0.18390149604508327 -0.9630488551514768 -1.4097044958744884
Ni 5.953105137567001 8.304913216481925 12.102863097496297 -0.15123357349841696 -0.19464742170767768 0.9088952519272088
Ni 2.0686613658000192 6.6129567547728865 0.15348797758259386 0.6970710613299286 0.8399596052977598 -0.623299940985049
Ni 0.3229290133144626 0.34481155899634774 0.04763294169273441 1.1948484604294196 -0.36821308304439165 1.9577389913573187
Ni 8.185292647227898 -0.08283494083056435 6.924685422252674 -0.4097536254903395 1.4971196893653635 0.16307016112202882
Ni -0.2599961693298916 2.7750640212811506 1.3177729581626934 0.4272044739769352 -0.12447173202354046 -0.6771974623344531
Ni 7.141857920393203 1.0172081473635337 4.93261843971236 -0.39760953392863785 -0.552358576779481 -1.3084950768129981
Ni 1.0787744725290511 7.834732222011471 2.273795179791648 -0.6967915824162967 -0.744535425459479 0.35196088285158733
Ni 8.055555460014387 4.072125735606861 3.7430492120643595 -0.437967111810078 0.1315659198661605 -0.2690636318357237
Ni 7.956076903794211 4.438367374774914 12.452321550260507 -0.3674777475402639 -0.5541915162231618 -0.3393069415330027
Ni 8.628736214070534 7.597835511650928 9.00261594540944 0.6768359652299762 -0.16659900021089372 -0.15390597812425752
Ni 7.070603724828253 0.794554066056319 0.23443186800468113 -0.6163821308192933 1.1126718896296643 -0.0843812917605579
Ni 2.1916024480723078 6.538956750365911 9.411850018104321 -0.314560073605626 -0.4472876178800555 -0.7281230455397267
Ni 0.39670096050864506 5.129845966250891 1.0604012712376198 -0.6076606917858954 -0.2687710402959694 0.5959048368015479
Ni 6.368424688928043 2.284339633082331 6.991029089911772 1.6462315885350873 0.3672098385908579 -1.0514670359855698
Ni 4.078620805027198 4.754719218072435 0.6492487812687271 0.15885817992321027 0.024139316250364876 -1.4743800816760027
Ni 6.351493721450312 5.827071599489244 4.577484099036163 0.049107556159928324 0.46243861458888097 1.1517760547199776
Ni 5.392066149519938 3.0864989510708614 9.156997907266181 1.7698422581099131 -0.44854360177434366 1.5707802522743077
P 0.47187500344707706 6.000030189671227 12.017614399125534 1.484534139390869 -0.5866434661042801 0.9801801155151249
P 4.5826911013186455 6.5727000955707195 12.48830441729494 -1.2722394369150734 0.9116077657623655 0.08327905983531464
P 2.532246945676507 8.735056486674491 1.0040985065433583 0.3021575861762151 0.11013371813431355 -0.18462346181277234
P 6.622115532438642 8.055172323896896 5.7001358670776785 0.0838984385868684 -0.7574868434138244 -0.7819046101365565
P 4.9547071491146095 1.7687113972465494 12.64968226221131 -0.10009381739980826 -1.423440357403342 0.5745801071818427
P 4.236728309512121 6.370331247226989 7.7494944703869235 0.32068315578422835 -0.4846372621731074 2.3393727186829905
P 5.108727868346287 1.3269554537785786 3.670403867501373 -0.38099686507262126 -0.45993101767567884 -0.43477740122818664
P 0.4041474846207523 5.932333686625842 3.2327192013961774 0.13433859751529123 -1.033920285351058 0.39876987278532616
Ni 0.6428549692508709 0.04391925803961809 4.776327182870118 0.5734020277133415 1.6902285629413278 -0.9140744821353032
Ni 2.0371712258576036 6.620473520506534 4.521502438897514 0.5548690019061605 0.8779322278867911 -0.9082522190265713
Ni 6.766430136693862 6.182339125577712 9.117438190906308 -1.2152627624197134 0.6352627697738802 -0.25338710164073136
Ni 9.020903397188862 2.6327745650755294 10.144841407910528 0.19827062028256176 0.2885855039187353 0.456432260493801
Ni 2.4381322951012163 5.589782630722696 6.659647364062362 0.6623228592154659 -0.5606609259975893 1.5922579625321094
Ni 0.8687958111088543 9.487636166601888 9.405400560126544 -0.849207349148273 0.9466714422347179 -2.129930655164642
Ni 1.5163524078586597 1.0953679153318479 11.521075464229353 0.9228398870327591 1.5074143864231524 -0.16113026378683862
Ni 4.184421107185988 7.071023350099791 1.4017490972860722 0.4608147058322128 -0.002704286305040504 0.26061421551678987
Ni 5.9645444873606825 8.30355399549368 7.771350561432125 -0.36834060976119143 -0.6959487748000273 1.1023496817680498
Ni 5.078268547005694 3.1172319410668057 4.9790408537195905 0.5866822897620154 -0.527237356231821 0.5473498107109799
Ni 0.7562103507550567 7.600918845167885 6.811999616725248 0.7909600354706056 -0.8479868464776106 0.7353884688528883
Ni 5.566757974519145 4.710120349538695 7.319433300790963 -0.5471235536327868 0.8133360891729606 -0.5481028868269207
Ni 1.1949924281682107 7.871923792273705 11.176303131073604 -0.602637013319059 -0.6194535706557653 1.1042962639714595
Ni 4.901314394455583 0.6931771615968569 10.46763723581272 0.8053373872382001 0.18256709350437592 -0.6422021772061908
Ni 8.560300805655702 7.317471096532095 4.736192762334007 -1.280518131984098 -0.8734153138530442 -0.9390170110132536
Ni 7.746574425834326 6.206285132920945 6.827220155107033 -0.2513631292321671 0.3430234711526415 -0.15879595922670717
Ni 2.604531959843282 5.179854351872074 2.2532745917845607 -0.8530555192497695 1.804318180399596 0.20385711323140374
Ni 3.06710496569497 5.313295188221338 11.525722357997216 -1.5002551496705516 1.0594264000419626 0.12540581380203564
Ni 1.3249211834404677 3.610948439897465 3.4267283845477783 -1.6519232396032257 -1.0893260158148723 -0.13407094567620137
Ni 1.4515020588289276 1.2509759127645628 2.3758799738396186 0.5297274696435263 -0.66510659260819 -0.38371812065852623
Ni 1.5416485139016258 3.432315786261199 8.19123855487983 -0.8414251340996929 0.710380633954641 -0.4196685706112062
Ni 3.906309897329546 2.9627094959669837 7.310086603981866 -0.9604157884040041 -0.15405561632824438 -2.0548868387549257
Ni 4.37916372233393 7.037854709071221 5.714768930079309 -0.05039387907151966 1.3783385799686971 -0.16219932848130128
Ni 8.70395860513808 7.184376907146275 0.26268906889854776 -0.5320136945745417 1.0856616795894076 0.15788218916318617
P 0.5946947592821599 5.763580471447756 7.9865353129059535 -0.6693345146466085 -0.17974299379201947 -0.04112608061634852
P 8.884470450207756 2.072310281204703 7.990180579395232 0.26918653056683317 -1.1635406514550735 -0.573900821726631
P 2.046631039044245 3.7735805994841947 10.307848493555088 -2.4786308649870863 -0.28898145380557333 -0.33931234084964146
P 4.223236444803304 6.280522316829225 3.6790426747219604 0.6244916473003052 0.14029172977493257 -1.6182962955773998
P 6.9134996720796185 4.437455145923743 10.223961752859124 -0.13838242856736166 -1.1967888719852422 1.201363378729802
P 6.8567134260942355 8.321524903861745 10.090060240940018 -1.7715821236191556 0.06741946709523873 -1.5526668305030484
P 2.3684653777373024 8.34654734124936 5.736344966867201 2.2383173087008617 2.138011889510879 0.05497404224303436
P 7.0733130445162296 4.142130177645709 1.3834178585217949 0.19045266690003973 0.6721853538318423 -0.2092515447740977
Ni 2.7338312772082305 1.7133755951345286 0.22699902732534147 0.28243131139188127 0.2025283671176512 -0.02555213743749148
Ni 1.5887104003335273 1.3917054576346817 6.759983415402638 0.8184027050625905 -0.9908522505169903 0.7025400548642997
Ni 7.2599915566198225 1.133599426484416 9.020680813349175 -0.7231878130216384 -0.4771139572128686 0.763314248728879
Ni 3.2108174989084173 1.8799120942042697 9.277481445013416 -1.4028519917290292 -1.386328283042393 -0.5357091411482581
Ni 6.930549229308 2.0889037240074995 2.5232259145672797 -1.1852744435877396 0.2389336452195627 1.1220798132071255
Ni 4.598937897157998 7.285460986144511 10.140368749853238 -0.17546956322764617 -0.16951848785053386 0.09278648510511762
Ni 7.810594646609493 6.96515919192142 11.391153094559055 -0.13135251830377379 -1.45063311576805 0.024174797473990622
Ni 7.699476050248378 4.097741121747738 8.10644414647695 1.8101705254153149 -0.8302380071346217 0.36943744236979603
Ni 3.628873736822971 9.014800586174529 12.352240010769709 -0.6442426046749872 -1.114914405806938 -0.017705901920195312
Ni -0.041888636616911896 5.040976631569832 10.093024072477473 0.6539258934010221 0.7093501358075976 -0.2901258518226616
Ni 8.919199002571828 2.499032693205379 5.719309093071587 -0.34943554532657234 1.2319697907617493 -0.19748951914216312
Ni 3.534567518188934 2.8267235411229525 11.372034602296218 1.3760649534431721 -0.24854288617455259 1.2050284862862148
Ni 1.1936240848914546 3.7475090989177335 12.47977234084994 -0.7690398383587466 0.5496949139043887 -4.3369869489686925
Ni 3.308380374541134 8.317903355322597 8.175083894154445 0.342716481435184 0.8776015840202499 -2.3063967779776022
Ni 5.733294473588885 8.079209554125246 3.513565273348429 0.26958967954252283 0.30525525126493236 -0.02019035890494587
Ni 3.2479360908625576 8.709286021628916 3.2009426215944936 0.12608818458104093 -0.6631574393016193 0.35733885933404913
Ni 3.632905788345146 4.457177533686056 9.21000296466346 0.7228301725719035 2.1710096845931384 -0.9235567105941255
Ni 5.260650461220272 4.700304767100097 11.739678337208517 1.545215773541642 -1.4170087428453855 -0.914959712953734
Ni 8.152315574258074 9.232941871355 2.5161634388015153 0.7783505742367112 -1.7328263430071964 0.07236395558470764
Ni 4.7507692671468655 0.2926311564805269 1.3843656642981617 0.8195568732716918 1.0874048875327595 -0.20145595998907884
Ni 6.404184059893938 6.039867223601856 0.08083807187535147 0.43759610162390444 0.5333321562756492 0.8878590000822001
Ni 8.19581976817041 0.27802089920017536 11.375065026539804 0.21171903247798377 0.49260151132550645 -0.393407065811516
Ni 0.4781137365602342 5.110698282664816 5.525352819193354 -1.0755212487212962 -1.2065449229307414 -0.1704659393654677
Ni 7.5851920197737 6.170233848722675 2.2508042760555904 -0.48552814941849287 0.20209282224212938 1.167160764706164
P 8.910624051370824 1.8271578997410622 3.5082916783598104 -0.5898342051274358 1.16303748656641 1.4985656777832708
P 1.9008386240501278 3.572762540187455 0.8987287764023217 2.6776982701393304 -0.4720439988891289 5.036559693674552
P 5.023434470761817 1.175644054234878 8.143747920887877 -0.8695332051898187 -0.7780258439074408 0.2677914499915195
P 8.839661769038248 2.1532249803035524 12.426433407693132 -1.8839619574751683 -0.42126136901962286 -0.3508447669692732
P 6.812579794274592 8.05668662378984 1.3036042196463085 -1.5343703461867058 -0.5927099840133341 -0.30508838666976484
P 2.1783386405762846 3.383046306009464 5.848216152030532 -0.42869057160415847 -0.6858898479021284 0.16063506931797497
P 7.153634794861819 4.115401872306404 5.848643987361731 0.13191584700641154 0.5021655008648578 -0.6813415664098137
P 2.7580053417642567 8.881241160074612 10.101342687371298 1.1832386441046332 -0.03706605161436197 1.4935908502764987
