# total energy = -340865.26642829855 ev
CRYSTAL
PRIMVEC
9.27867733058300 0.00000000000000 0.00000000000000
0.00000000000000 9.27867733058300 0.00000000000000
0.00000000000000 0.00000000000000 13.58028217638592
PRIMCOORD
 96 1
Ni 1.5520629110731108 2.0698687770599227 7.63680422595073 -1.7840483744069662 -0.5092735726645486 0.5049021830697304
Ni 8.525935334959787 4.582182002991206 3.294807280214565 -0.5191730911664478 -1.3848892366030214 0.419634117828845
Ni 5.125272264648986 4.377949036710954 8.635389396117015 2.16390675499977 -2.4153421322307693 0.6465121174354542
Ni 4.1004145196781705 2.303375970254635 7.027958761797004 0.05872631019661499 2.4333038589155125 0.25589007056824314
Ni 6.991641090936183 5.9764610064001635 10.0616584952892 -0.4162585164883928 -0.6789103312605018 -0.008063750844740952
Ni 3.535658546500496 -0.030219724132395227 3.9564521297356596 -1.0300358626949873 0.526589438235177 -0.9695848564977817
Ni 8.324244726262599 5.966857575383851 5.158116926592507 0.04555300603945058 -0.21405333703811524 1.3137558109913052
Ni 1.0257392193153083 8.75844043100497 4.371574585398677 0.3144047789746844 -1.3034914529508197 -0.16935753679263735
Ni 2.9750779781125227 4.603884829220342 12.3842125636768 1.420811147310611 1.676320694610984 -1.1302698052170856
Ni 3.5971483410368292 6.632992376855471 10.811656765895835 1.7421093109710188 -2.233218039801083 -1.3727207195612876
Ni 8.171471304346086 0.5234955509135782 7.835252864795649 1.426305337655963 0.1611307780074709 -1.1862956857634022
Ni -0.024286937860095337 7.714932544640157 12.152668738600976 -1.0092178975083717 1.4015253024978056 1.5948558051662727
Ni 5.916474357588124 9.013492712914541 7.201949735119315 -0.8021006254684573 -0.6843279027316472 -0.7126933412482177
Ni 6.001364976301404 2.380723024314522 3.018951275907241 0.21554534820260943 0.40316671630144113 -0.8183541112128423
Ni 2.358639772315658 1.169029833020543 12.797949712817367 -1.2944650810824931 1.1905058671900077 -2.1333167980280554
Ni 5.981703459080566 1.847848586375544 5.178202479366432 1.076388481817598 -0.7819089810119308 1.988047412532873
Ni 4.287277802033265 3.465743712966277 5.020467748692024 -1.0765255216160945 -0.22410275085431727 -0.29354079104148156
Ni 3.0406039972789003 5.947520811868879 1.6936508874918788 -0.75142366793888 0.6154449637170046 -0.7154660188973485
Ni 9.324606763133835 5.68399709757487 9.520008284350002 -1.42971050668277 -0.6917162247759184 -0.261628258603601
Ni 6.58485459896887 5.868568546634284 2.6249730700992697 -0.8364541632476628 3.580437272657156 2.272786289012008
Ni 7.1009531883305606 4.30647538538858 1.4545978288687123 0.05598114335131004 -2.536317935285909 -2.083653112254341
Ni 6.425493316161941 4.502598787699501 6.732913524943944 1.7497154054530513 -1.1661660048930624 0.7933640169264079
Ni 6.45763465436533 2.0925829791158974 12.247323309448042 -0.2575759429110983 -2.270918896785966 -0.8178085231220174
Ni 2.753762966903738 5.3479883561316495 5.054934323429411 -0.658922061064033 2.037077835597963 1.6934475840992576
P 1.9214748908339419 4.991130426771853 10.105101262456714 1.0188387084275872 -1.0654327541370425 1.055440675921337
P 6.67261232897108 6.8569610897750435 6.35976873330112 -0.8291797410734365 -0.9205109817892664 -1.8056307285634323
P 2.4189047814470124 3.7329139474432913 6.599664295824075 0.23555418722436855 1.4068078910529838 -0.3114876053278894
P 6.562669281519592 7.548584417818461 1.2310373777507992 1.3457187370511468 1.2535896830243702 -0.29809935694644146
P 7.117617692780124 7.467618679607499 8.242484733273862 0.492232558021862 0.2880756541618522 2.7491973066205815
P 8.108441249376218 3.4159728878730387 5.42008089523063 -1.1474110928830625 0.8602535796601055 0.3103174962791882
P 0.3010958623272022 1.7435933681153601 0.18961719378083527 0.4498967733681284 -1.1325220915863723 1.1558108869109838
P 2.167369118238101 8.087694126910058 2.2357761667093725 -0.6354172930738735 -0.027134394322946818 0.7781654548090985
Ni 6.079361537773022 4.352061527014807 12.647520084789475 -0.745900938348438 0.5537076346082077 -0.16736210362916337
Ni 0.8995454964223032 3.7986997695743616 4.992329231880363 -0.5847398213236639 -0.5188882129361774 0.33560866674580914
Ni 2.1585358174385556 8.149174642769081 13.43938653102404 -1.7273766327465347 -0.11744824951785579 -0.5521384903488749
Ni 2.398194773690094 1.093816874742059 1.4965467289892436 -0.07675154312944202 0.07494405760705802 1.665146166051403
Ni 1.0774400092891196 5.9478084508655025 13.004600702404721 -0.19905634940865072 -1.4371034567127314 0.9601234539745659
Ni 6.044622169922707 1.896283281936078 7.982028549698688 1.0464392437536751 1.3984793165826301 0.4229822083654715
Ni 0.2810696930880642 9.002321185432763 1.543602613101445 2.214474954865625 4.268160060002965 1.2467042687584464
Ni 8.870035083017719 7.124669487536064 1.3253801850402325 -1.936365153667233 -4.235561557241653 -1.017752160231628
Ni 3.9987573310649123 2.7732760252876085 11.236570081856836 1.4509601600901654 -1.4472374598229396 0.35155439144178807
Ni 3.6471789690947602 3.609915801016004 0.8478688310094992 1.9391756265328344 -0.8385678671565558 0.31494008265286405
Ni 5.938251413235743 0.34832247410191597 1.692768485279655 0.5675856781418805 0.42521598279199674 -0.49045978239215526
Ni 3.831806090218037 -0.17793812265017547 10.71697435901684 -2.0532994396631477 1.11408676769932 1.4140576306368615
Ni 0.9218505088088871 6.365293257771761 3.383296169988837 -0.014171406404375593 1.9543813877389955 -0.08628210832769657
Ni 8.486630857872733 8.188822430916623 9.741597944407175 0.1287428485950686 -1.264190855578984 0.10010487314340179
Ni 8.253615434575474 3.4778802228883423 13.163272579487483 0.8257727722744165 -0.1524867291792277 0.31686712447224785
Ni 7.580967001631921 3.5711958805995088 10.687111863960897 -0.03422909638619912 -0.7061015469633131 -0.24612502076167933
Ni 4.984635352654539 6.468379362690828 8.677121175188482 -0.8229191048757054 2.0145408308377113 -1.0470660787043968
Ni 1.1434949130621928 9.156133819208046 8.835671501598478 0.9871809723129902 0.3663204940073691 0.3757723834488883
Ni 7.287630897139446 0.9931246685690867 9.823731868091523 -0.07582286066758555 0.5957153464985611 2.3770964584860095
Ni 1.4045133844823807 7.160123313539282 10.679194368611892 0.9166988071320277 -0.037719368927644714 -1.837246041475868
Ni 3.407974668031433 0.7008565398350439 8.431806865116226 0.46099314039160605 -1.6025943114611108 0.38387547217199697
Ni 0.7875861923912553 3.7585602115293675 11.613029217034953 0.27118582038504907 0.08789290445824219 -1.437044064229706
Ni 4.4296034332982135 1.005335407909635 0.08386903634140049 0.5453003843811189 1.3107612471393555 -0.37528310251729563
Ni 1.536567519964664 3.5059482217524445 0.2160540011737612 -1.4048679937177935 -0.09306313580527198 1.1156407424500012
P 4.889853663928322 4.6482647427962105 10.806917217525658 0.7710643249879431 0.7967578730993052 -0.24436612908904368
P 0.3805807236394164 0.942602270613702 5.91463346800973 -0.33117171402037804 0.25825240015283263 0.46569208852917215
P 2.771661535435591 2.284122714835457 3.403734312500559 0.1839405768131348 0.5156517082767507 -1.9944728564432426
P 1.0452151629899367 6.816830810407359 5.5840759494863965 0.25234400508819765 0.4430285854933854 0.8910615661798976
P 7.530351816903432 8.719739067943095 11.544530309658308 -2.0213326569485637 1.1665079616135134 0.30469963587177845
P 4.641741832646966 6.268349637232209 4.097863811285529 -0.12233437396556351 -0.049819494625288396 -0.6450707570032375
P 3.745022621333425 6.879471160930187 12.789624883534433 0.3461054525120749 -0.6294495055262127 2.8757269496144153
P -0.10318445889855825 2.099402806939076 9.432497367164252 0.6483412002243931 -0.1323220813058947 -0.007366981888032474
Ni 2.1202519948556504 2.2141893239466173 10.138155622507451 -1.8069720730826748 -1.435572364780186 -0.015476755479360442
Ni 3.090449051790622 3.766205841633176 8.641160733404112 -1.402751718705739 -0.4558355074500666 0.689909767694799
Ni 7.849640381833229 0.09738621344725984 13.614232998394373 -1.0923108094748093 -1.1006447832618012 -0.9280191172408533
Ni 6.9905183709816185 6.744355061935456 12.536800412047103 1.090131285324987 -0.6842322576940475 0.508132259971254
Ni 0.43524141167526037 1.6149630645606319 3.6379810162769135 -0.14419723547692584 0.7919424539885329 -0.08900619212707897
Ni 0.2733980826877865 4.697682978151652 7.170606363164625 0.40032127643284604 0.19240259153755898 -0.7883231120683908
Ni 4.653080376320332 5.800574399303328 6.19912699302535 0.2659327995162259 0.9375656232787078 1.1372858315236027
Ni 3.992763305522363 8.10699377571579 1.1221131290679984 2.0794424166071024 0.7526868509220198 1.0928090892674662
Ni 5.497208044638259 8.187374957256193 3.3069345114593194 -0.12990344456207306 -1.8649525062522012 0.48078986340255914
Ni 6.2653897391701765 4.66651590106586 4.532759128297109 0.8603304556446281 -0.936422253702884 -0.45534982606289964
Ni 2.338866910967095 1.7610558388136217 5.366439005963473 -0.5391078824171619 -0.3835029193239266 0.2132804634278327
Ni 0.13433390649746027 7.280402807514608 7.6950492670315995 -0.11335222507161123 -0.0545310411683448 -1.268048024541545
Ni 2.75753938856909 7.85942938639575 6.625887693638861 0.13465741430729067 0.36040515696419867 -0.04769396364185335
Ni 8.044910145831588 3.6393848801539845 8.458207485667641 -0.8718559397857242 -0.34285634944715787 -0.46056762281841324
Ni 2.152152087448968 4.46585522555013 3.20831423392977 0.884872149539734 -3.636885071232239 -2.2648582924141833
Ni 4.595144315193901 4.3328546649821815 2.921810947408708 -0.3216979702019879 0.9410898343818825 -1.4385918683327998
Ni 7.968713647758197 7.633762675528366 3.5403934555320173 0.5335339878738101 0.7118142810773741 -0.6314058579216352
Ni 9.060721180424718 1.346475257905534 11.730796973062342 0.10440812850444599 -0.32827613764013786 -1.1351654427464903
Ni 5.649415467238834 7.990407195310021 10.286561571013936 2.8372293077598494 0.37741146171420803 -1.2216511824445606
Ni 2.1785406457198793 5.9037532909955 8.111149695283139 0.6238272742434289 0.7182420389805888 -0.4267113363906006
Ni 8.143774452574402 8.690854545475675 5.7558530304024345 -0.4970855152387891 -0.6535551403251648 -0.6203922804199509
Ni 7.802170668712981 1.9023886516063522 1.477589463376269 1.2757243101398803 0.23781187291029365 1.1155132157332015
Ni 5.311838629330147 6.00668165840029 0.6532606367033742 -1.7686654641929926 -0.8559955757147 -0.8173783775631343
Ni 5.383200936524796 8.37637233539269 12.508852108120305 -0.36817220250412724 0.8091151091130775 1.5884637855969999
P 7.102539842150646 0.29607424216678824 3.908174243821672 -0.4736319122015391 1.3207787792763577 -0.37551373047086295
P 4.1690952891301 0.6728497802411902 5.847587601499902 0.97733133321242 -2.6536366012044366 0.13135688917914798
P 8.390030548393668 5.20378843204999 11.750773965311732 0.24330529192469713 1.4145921629840927 0.5853358030364499
P 1.6906399567046386 9.264054115005855 11.047613529900504 -1.2287448560665484 0.9726766080492282 0.717680510050164
P 3.134068113827034 7.726391711118559 9.032612355380449 -0.34357780099421475 1.2853695465391284 -2.1950312443187165
P 5.173410042535586 1.1273500145420146 9.77656742345479 -0.3176220003604014 1.0385485281516889 0.3216282933063171
P 5.94152678632633 2.621207782846691 0.648606452164454 -1.579548228274925 0.021309045890421367 0.5690422080827491
P 0.6543119108426481 4.798931904963251 1.7799407307435748 -0.05158481405582729 0.827293065573685 -2.1858171819196164
