# total energy = -340887.04421364557 ev
CRYSTAL
PRIMVEC
9.09191191296372 0.00000000000000 0.00000000000000
0.00000000000000 9.09191191296372 0.00000000000000
0.00000000000000 0.00000000000000 13.30693210916064
PRIMCOORD
 96 1
Ni 6.433618502836845 2.1999880392985456 11.359169807447389 -0.24076041401565632 -0.5709142282944814 0.6689766170865575
Ni 4.526080892811425 0.29679727222019764 5.737349909626366 0.5439544118761858 -0.2858868740406496 -0.23742877853926203
Ni 2.881526826488214 1.7805054208255147 4.741565562620342 -0.18698939094178763 0.0167525368679905 -0.9660503609819622
Ni 3.966100964024472 4.167032210898069 4.719303107819677 -1.1111125155623445 0.9786420816040435 -0.1017750617569731
Ni 3.549500481536008 3.064656110403507 2.452427693091282 0.46328039376388597 -0.4574020806062381 0.2327614549705798
Ni 5.255452227050958 4.718693040549757 2.6077329998659744 -0.2779995008727728 -0.14625463222658683 0.01599843231078535
Ni 5.273290557655754 4.926797805694091 11.167643233956872 -0.008412906654043576 -1.097966722209006 0.14581960157169727
Ni 5.775918707923311 8.126923399283868 12.017104173680803 1.3972850391642129 0.8391144836886453 3.363373945148124
Ni 1.9297400582093702 6.701457127345862 0.14872912709760355 0.12467099251854015 0.31198048580390786 -0.06197926991627391
Ni 2.7154448768664947 1.7957980161758036 0.2261522097164632 2.105504403801477 -0.6744193853686836 -0.852572408965764
Ni 7.968433195867553 8.943649820399486 6.885499239188128 0.004597389562695308 0.7102603063266929 -0.6139866340039233
Ni 8.664628144593884 2.3446221694010423 1.0340140169994227 0.09896253200884246 0.10818790726185239 0.7616761989048237
Ni 7.101964926261192 0.6917680969569747 4.4429053577085424 -0.46667604970899623 -0.8469257522029477 1.5648877980492728
Ni 0.867511111869548 7.656635178660173 2.2358174446234087 1.2575977757424988 -0.9488075147411145 0.08928721370260752
Ni 7.899207380768207 4.234821503960943 3.6060321696269875 0.2776048365375155 -1.7482426775622666 0.2956663220249166
Ni 7.963750861381586 3.774316180243855 12.498881843022785 -2.385853378743033 1.470795449648538 -0.029911185737135585
Ni 8.092983293194314 7.291949511540408 8.617036533202036 0.16136423417451562 0.7888489026648737 2.319435613439431
Ni 6.996316913199148 0.5133429681155458 0.19343132897558601 -0.6891466642765293 1.8531300596959763 0.25326343157867354
Ni 1.9788363809748646 6.798495100100698 8.876282392035929 0.20773073725419708 -0.5784709575958166 1.7035641037079694
Ni 0.3870608616245586 4.867600369115177 1.1697235266525472 -0.39553285390526716 -0.10488712502339355 0.23135634709293704
Ni 6.457330208350253 1.7140799145061256 6.863941407538264 -0.31752712665375 0.7602286678250197 0.5944624479280666
Ni 2.9681363766111946 4.479193904570379 0.49873226613699967 0.39164765991824807 0.01665406361691325 -0.7159205899362638
Ni 6.083870846514062 5.467648352425748 4.857561989491958 -0.05077260256717707 1.27694301303833 -0.5225805741860999
Ni 5.424370853099127 3.1821508843106328 9.334839319092158 -0.2588185570689478 -1.033888660782174 -0.7073523886512786
P 0.1502483855298469 5.604490714267128 12.331200626146538 0.697641846231734 0.7774432319310933 1.56246324776818
P 4.123500138045997 6.0353200384459615 12.609249467408452 -0.2994838959987939 0.6836118505012292 0.3630636776329683
P 2.6852324545424695 8.693904100020715 1.424121578208929 -0.2505941122766265 -0.49484325617183167 -0.6336344901418378
P 6.56115983908765 7.88728788463014 5.671933605497157 -1.424153838530599 -0.8779311994455267 -1.3240155410461003
P 4.720575066255768 1.4386768195265731 12.573799194798278 0.6599600154102441 -1.0879607600362295 0.10839950905202621
P 4.154294442713909 6.2646816929654285 8.300078856148467 -1.3490280039300382 1.828268520567606 -0.3598842514637221
P 4.877983332188916 1.6077136404258447 3.429489066491569 -1.5004312702370999 -1.2535143497017442 0.598296476962176
P 0.23200103646369324 5.928890120984319 3.2974045020026304 1.2694215078503042 -1.3676533323407092 0.9614889668635247
Ni 0.673836119662459 0.270558015275528 4.580365969540303 0.4748375024738661 -0.4347213511792707 1.200807763336648
Ni 1.8282652325823925 6.300658387258587 4.933904043818814 0.6229854950684239 0.24974102024771186 -1.3771131922020283
Ni 6.031683273796666 5.848308508267546 8.988220189558932 2.662634948048305 1.1508262892121985 2.5444315655319794
Ni 8.608676520464467 2.34133089739343 10.08224991518336 1.29370686276023 0.6804324243319829 0.18558042640940298
Ni 2.5804572649962556 5.3671190856075865 7.123147261961016 -0.6173699486538593 -0.5871846833197306 -0.5621511373898705
Ni 0.7921227990719695 9.009257054672783 8.852608872551338 -0.10924617332303767 -0.14537891448985285 0.25889903259789604
Ni 1.579228681310235 1.3976359304592696 11.271742894469478 -0.9180692051169932 -1.4169745471733401 -0.3217995287768587
Ni 4.096124392148422 6.9237270907992015 1.5342091717166015 0.6882334084336404 0.4104974456348995 -0.8577012455518972
Ni 5.808267729478798 8.069653447969081 7.602130077670014 -0.7229993511599162 -0.1027273983679134 1.5500851858188012
Ni 5.9017962243470645 2.6744858150038002 4.875793090678878 -0.05075614750694484 1.1899631073126604 -0.49103365261775433
Ni 0.5663297198646242 7.5696437682490165 6.602646231824494 1.3224641373985806 -0.8160444892430592 0.41826371984387967
Ni 5.312549432044902 4.681852614652391 7.359052365275728 -1.1003326513380212 -2.0711704064062975 -2.764727541045697
Ni 0.76009744957027 7.362993708964402 11.248429414685168 0.7117913982592385 0.11512062982594368 0.0630817589518333
Ni 4.750096503296427 0.38737180500207335 10.321880883881274 -1.3817185521845234 1.7635080883617693 -0.07906784996744447
Ni 8.305970414880326 7.474687843255901 4.53997878891871 0.004337451033089305 -0.8499642819189556 -0.47949942672590967
Ni 7.60004712071713 5.9895604472461965 6.839749649091149 -1.8849261211606503 1.2913419620724793 -0.7086775352206053
Ni 2.474627413701746 5.420370411984901 2.614226443147292 -0.44411924745440284 0.5594756474402365 -0.05133773104202771
Ni 2.422812609360903 5.308639910046909 11.287072766657424 0.9872519347602418 0.8822529667493322 0.7468144513016428
Ni 1.3523763943987823 3.6926071704858 3.7615902315448064 -0.9433732310994206 -0.5178394599566888 -0.02273189437987698
Ni 1.6864677789063467 1.261120877436326 2.6574475726218494 -0.18646591433814982 -0.5795978721114083 -0.05644908412666407
Ni 1.3956720775486497 3.3017549817143506 8.030520041960333 -1.1688312104300516 0.5573359753894144 0.2772559378385289
Ni 3.8439147637197544 2.6911876566556914 6.648435826332616 0.4967749259769057 0.19635797664088117 1.5295968360574625
Ni 4.119126928555219 6.721286586596148 5.925044242367688 0.8438103465024178 1.1647709243177489 -0.26672547062085034
Ni 0.9057380542894592 0.3096805109903282 0.4275553268033057 -1.5774026426868317 -0.6626141652036395 -0.9426605213031121
P 0.46472851666608334 5.7431514584331556 7.827137615713112 -0.5696687859231544 -0.8196656309354142 0.8680589346371372
P 8.702695978560389 1.4554786722063202 8.006581038656343 0.7952452931095206 2.3292587701774403 -0.46522389064350195
P 1.7613305792121023 3.390319292836328 10.260309549177533 0.5807448412316579 -0.6921360859221564 -1.1947386743244328
P 4.107480189765848 6.333234706604655 3.691568874178426 0.3758523447572043 -1.2343028097703002 0.9863615617354884
P 7.144451429276591 4.0405091687490655 10.245392449777285 -0.0722971069025142 1.3475488482813502 1.3853744037695561
P 6.490397490923976 8.235208066716652 10.001702851730755 0.36066663815570144 -2.4100983673333265 -0.4144340616851443
P 2.3284021990651826 8.39497113776022 5.719306101818884 1.3224319986090645 0.8658097335916443 0.3884726046243761
P 6.879767698100838 4.1301281416193385 1.3510526120664388 2.074963554900142 -0.11967379641426486 0.11259529230092868
Ni 5.267117149663574 3.455790148435277 0.13647595780296348 -0.47908830733042 -0.2657152841887811 -0.23006513908533927
Ni 1.733182020826552 1.2415187159766214 6.9119266987033985 -0.39155175777033213 -0.9615401318164343 -0.8336241499980352
Ni 6.888659587668367 1.0112115026483377 9.123591480099671 -0.7401594078789704 0.14127054874843412 -0.2973588792359911
Ni 2.842804374884836 1.5628996080348967 9.103364704311451 0.06390039819838672 0.34258252696048097 0.36329224870400656
Ni 6.761163710975676 2.00773047611352 2.4445768274046142 -0.2567022820568934 1.0660176801062349 -0.42677947062437466
Ni 4.592497307219191 7.154788932792214 10.559329793789614 -2.998728524850332 -1.9743699150457803 -2.040857614355369
Ni 8.08045463897749 7.5785447497281675 0.011942225917125286 2.0673934558623683 -0.7210625391485195 -0.18660989611518183
Ni 7.9876353132158355 4.02584391530078 8.325761688101794 0.08257123513501263 -0.275054559311836 -1.5279829546031234
Ni 3.0349073755722666 8.83606523016169 12.322205088786504 0.9540386812330667 -0.8385241584028139 -0.1963371507052748
Ni 0.3277834162233607 5.168233518849219 10.226403992352148 -1.017824151120144 -1.1533233446024393 -1.9367294789851874
Ni 8.738581753737316 2.3469042392184756 5.858136864732268 -0.1775678405175716 0.5401118982016441 0.25851876644034183
Ni 3.6426652999393445 2.9753462625284235 11.403029189117897 0.4353096195825729 0.02075060228379007 -0.07349961185104761
Ni 1.1275697876025588 3.4682733430939847 12.265970706205604 0.27098064635277846 0.30434302386330814 1.7342471346141228
Ni 3.3342676576790558 8.498146150860743 7.863704375070618 0.21285597429590436 0.10601995307625613 -0.022211245989716587
Ni 5.785101538662784 7.864094418079256 3.440813042418314 -0.4597214727680341 0.0923339709487313 1.161576328639851
Ni 3.2102176154915734 8.329563925542633 3.6616283000119356 -0.25016370960742723 0.5239314317870397 -0.18761751144408978
Ni 3.4441343177342834 4.348470399251439 9.224658078894766 -0.16736698872516984 0.3528527985382374 -0.3544504820426605
Ni 7.396088267272995 6.293430317518112 11.267445147845173 -0.0030503567905495856 -0.12016796244186402 -0.7998575950705515
Ni 8.369795634475468 0.006899851730876574 2.5812255315284194 -1.4979375572809688 0.9204328202531632 -1.5087408185440596
Ni 4.740531812268779 0.4264606606438677 1.6010638162646074 0.19518143983427677 0.1077104534048016 -0.7975795976696521
Ni 6.294484979266408 5.956765922021171 0.12053965510974902 -1.1766733321822895 -0.24688401041489094 0.3079060586242181
Ni 8.260383570001402 8.919365324453812 10.921305162054493 -0.052564147249961085 1.1725271712243999 0.5073789267449972
Ni 0.1808408497597237 4.81100321926051 5.831150252652168 -0.12871739467377186 -0.5931905231941784 -0.5440981365429017
Ni 7.369739907388846 6.169925790028025 2.4761939500744305 -0.30021460351723134 0.5056076937771874 -1.0454254577771802
P 8.753801613794618 1.9731903038568326 3.647683125964211 -0.3090283451541194 0.4051063565263152 -0.6314307976222996
P 1.6389807244981662 2.9602264134989764 1.4550731729479236 -1.2745703990410953 2.7812535637251776 0.32658975107665045
P 4.768498532421864 1.2489377158611847 8.163310138791235 0.052709157468257606 -0.25534268270520544 -0.5169051210678774
P 8.475898243118676 1.6562644484939446 12.238771343393521 0.9342573848410813 -1.0385804098308888 0.1096755475509724
P 6.485033263066265 7.890406410316912 1.4344336243720073 -0.1727447080973154 0.2527821210668808 -0.7765394891699013
P 2.0102762113680273 3.745276614519227 5.870486408290114 1.1830573813317626 -2.1183396078929326 -0.6983573842415198
P 6.977423920846055 4.027762308653283 6.161215738692961 1.3348612255113526 -0.818273378573578 -0.11021907875926824
P 2.3529321766246833 8.439967008383633 10.203516014031806 1.7481712008943828 1.60569583320457 0.8073343630635709
