# total energy = -340866.4421769563 ev
CRYSTAL
PRIMVEC
9.28994380591564 0.00000000000000 0.00000000000000
0.00000000000000 9.28994380591564 0.00000000000000
0.00000000000000 0.00000000000000 13.59677180187204
PRIMCOORD
 96 1
Ni 9.129841127108305 6.533589761114944 1.9600295496199691 0.25516681924897344 -0.33257476501549177 0.33320339973842616
Ni 2.350978263914215 5.772390327808338 1.8655452449458476 -0.32498692536590484 -1.881816371887075 0.8291656000060493
Ni 3.4443675155734494 2.984505996521113 7.634505725421119 -1.2479792788161281 -1.0355110268769456 0.8010878679332268
Ni 1.9885589677127293 8.417525379247515 12.354190253427475 0.3085287798098815 -0.1625849939554942 0.6602081268653082
Ni 8.87395890895559 0.6637990152038565 8.530220761188728 0.15277983493961428 0.6296852756861027 0.6802089954672673
Ni 4.678936046540947 3.1943286722108173 5.7653578401833885 1.088517403870648 0.03882134374257185 -1.4103889235360227
Ni 8.210025189563408 4.2102583706113625 8.166425624277526 -0.06316557691489122 -1.477949801305132 0.8207259538791284
Ni 6.878850530707075 2.1983909333464564 12.300184092847713 -0.40458725079805163 0.5890484760013469 -0.03114171571012701
Ni 4.099791646241121 5.1420954957212315 6.65809451989742 0.5173121266983091 1.7967807343719702 1.3607380932781146
Ni 0.15072190980806272 3.809889653078413 1.3700382106796003 0.6906990963653137 -0.3133495982372926 0.019375576313134375
Ni 5.667218871530858 4.790090226768846 4.623541968324239 0.4066613597182609 4.099776199977507 0.22386595225316283
Ni 6.361224139723517 0.6620682986324853 1.987508275043797 -0.10369361893592463 1.0244987349268422 1.7524783129101689
Ni 4.830315684385796 0.7928474856076829 12.093676069185197 -0.8582126379706768 1.787826867612792 -1.2077327725912557
Ni 9.093935493461768 1.6290660038782967 2.4806222197298764 1.3307862841110307 -0.9463359132721701 0.24568124835604138
Ni 0.6095132273090196 2.679647193482357 7.356288623849774 1.5720611758692604 -0.7220017631333371 0.9340990048863462
Ni 1.8722024188322923 2.1742463688322644 4.2259992517629 1.2616714315912398 0.8221899400191648 1.0923046388272222
Ni 3.6639167626545963 4.457779639143927 3.432586937558656 -0.6121971462036683 -0.5503135213249941 0.39819780233194
Ni 3.5582900991200197 8.208575958295915 5.098381664123875 1.9215823389311033 -0.5420803347819244 0.9891969743017546
Ni 0.7346543472570286 1.339860756517268 10.859184644753086 0.3680403049119532 0.248393762191198 1.2607792587942739
Ni 0.9035111567911992 5.637964837804352 13.618255285660464 -0.09922915540666781 0.6038726854983729 -2.339993897206757
Ni 0.06109252988004228 7.13473274885979 5.337385911976711 2.0818597677993433 0.3297090134319225 -0.08929621256367201
Ni 5.950339205557222 3.523768667132818 2.859210663502332 -0.9757634745046679 -0.10306832664709993 -1.8829152613782087
Ni 2.333141571391226 7.157651040763026 7.5472824409948975 0.07945942897890831 0.7484375887273627 -1.7575896659948052
Ni 3.7811279863850933 0.70603017173524 0.7833958965593031 0.8674668095790932 -2.103855812454461 0.5196394892799051
P 2.71133519254273 0.5446870689263786 10.926869318911416 1.992302331154485 0.22273929484788735 0.8910893340940396
P 1.1424122862653872 0.79397063983999 0.8123749479427471 1.771095928011356 -2.52839353823251 0.05038410887950678
P -0.3588593896521057 2.7781391800077375 9.852533742442104 -0.8584304104084378 2.0709965998325943 -1.003576382951878
P 4.625825436564942 3.25780685971581 12.053117102577843 1.030785082156186 -0.6149495121378248 0.5494773985769441
P 7.406036274089673 2.5920337314071955 1.5824462777907362 -0.496233708761455 0.5005251370479573 -1.097377168254123
P 6.992475836044929 6.404394509595564 10.58745285310377 0.22680600871809328 -0.6413817381874245 0.25659815237886135
P 5.600693582386523 8.984527822710078 3.9318062334562507 -0.2801222036427305 0.06618970845319568 1.48693092175782
P 4.040809791642966 2.310789966073355 3.4465367175026773 0.9077349130705206 -0.4974215584219691 0.41764434109232584
Ni 2.0435182765491895 3.476984509036061 9.974034133327738 -0.8731959987533865 -0.7999139022297836 -0.30341357007050324
Ni 2.317701684426013 2.0899587067171184 1.9757332709954176 -0.8744167585343651 1.386701864331728 -0.07972219572199173
Ni 8.195282048399875 9.134086631526536 5.461115889427719 0.31440812140879404 2.216747295839569 0.22344172023155068
Ni 0.15280099928027363 5.264360448999908 10.078566441456477 -0.10094742364935518 0.15945853251137054 0.5309366594602791
Ni 5.869340183626002 3.3685429924627006 7.849580006466681 -0.24456281848088204 -0.17735572450676554 -0.43459202469025804
Ni 3.7250260144338787 8.49678718164655 9.500091846120664 -0.47958041647549016 0.15789273068614745 1.8249170875968699
Ni 4.789783658616107 8.095675268591808 2.190779682208912 0.000801669965688942 -1.2833090644656735 -1.1424550344293678
Ni 9.150985039703265 8.725979390622937 3.329645996840953 0.6147088568819286 -0.9787330986559531 -0.41178968208376177
Ni 4.3362950411631305 3.033287492582684 1.172272953336556 -0.1977448296860788 -0.4033806320844601 -0.26955239854668417
Ni 6.699851889283662 3.2353995147338046 10.000725071498469 0.80825224689215 0.5512771707898441 1.0310781879165727
Ni 2.597347579388002 2.107126523270495 13.01920810928707 -0.6164559214800223 0.15002541212292872 -1.2283663896812071
Ni 1.5960402528786997 4.899702276289027 8.030158867368304 0.297536542464436 -0.7230561725397805 -0.3434518169393117
Ni 6.835178503857819 6.271613339683541 2.655884445667485 -1.4301555646399884 -1.1481551701379389 0.17507978398839524
Ni 2.4031320096559132 5.9585329361849695 5.324903943188228 -0.787981669568572 0.5135927688651929 -1.1887585454815979
Ni 8.19373991769216 3.492749544042057 3.509027383958089 -0.09361489454368394 0.9464667824230798 1.4569456882496392
Ni 2.9885192523387856 9.427713892242222 3.248445383124447 0.43161520145012117 1.3370224948287295 -0.44783834817720286
Ni 2.3001065304476063 1.147215187324963 9.000302147660095 -0.3344313586082563 0.3245166705977056 -2.083860086058824
Ni 4.361350020191517 2.2717071715711596 9.906213825986681 -1.0453557808815095 1.1177343917542364 0.9616766573942988
Ni 6.325420695461225 0.9072968089803232 10.192820676004647 2.046699932068759 -1.4866136476277172 1.456181556390105
Ni 5.127259455117475 5.394085227328564 11.534971403723436 0.47802978415891867 -0.3328722416512525 -1.1895568730131771
Ni 6.614114995901022 5.612389621910712 7.171400157916164 -0.4377295418779752 -0.08572289339011689 -0.5394161576862001
Ni 3.7098183760692263 1.348741943002673 5.664550799607628 -1.4923829460113265 -2.515202236353217 -0.44069685203641523
Ni 2.7580914808074195 4.476656805397423 11.955165790794567 0.008690328685146322 0.8037250484457577 0.7853028371848282
Ni 6.2484442192917 1.7722333312073517 4.3950883098976306 0.21372140761999325 0.31976630039691384 -1.4987829360003992
P 0.766410162908765 8.55948501385366 7.453356461956521 -0.8527798969908797 -0.26629789616512844 -0.3853690259983879
P 5.372504687364553 1.1358721656736246 8.438265179277503 -0.5002605705326609 -0.5423137909489693 -3.35864825753768
P 1.6067608482805378 6.43142824670072 11.493079330148868 -0.5071495843430104 -0.19326596797911877 0.7806959345404362
P 1.9563971815072145 7.587951957936117 3.833256649277931 -1.3195384791113534 -0.5791530712645058 -0.8021628461649605
P 8.317082504477433 0.20535049663732588 11.304410785992548 -1.600826935148043 -0.7866534376754516 0.30629989047936285
P 3.7834597623347133 4.4518154950815525 9.156610100808821 0.6115793101140112 0.7138230839772868 0.08641940523650923
P 4.4458513510191775 5.833350940483262 1.988690884917847 1.8860257819827326 0.1412453519374535 -0.4311912265388252
P 5.203037528508111 7.158468555836998 6.056002099873485 -1.5440446360516764 -0.7300241192171815 2.0656713309649395
Ni 7.0461624225503225 7.042056267292426 5.21732639140895 0.33729016821329005 -0.3366486779745493 -2.0055301426986687
Ni 1.0533310130346878 8.406396026308693 9.915173976996277 1.6965023117651816 -0.35834698888358935 0.09727434567314215
Ni 4.046625296600982 8.851932451678502 7.416903650607065 1.2575761784759438 0.5762454106994075 -1.975114763631605
Ni 0.574775339626096 3.4182627728705324 12.143522192831734 -0.6026462692904394 0.25583144941616587 -0.26962156122172276
Ni 7.289819074369571 7.973846942682183 7.353379013381961 -0.5281164164026646 0.41183904726445847 -0.34388170538787877
Ni 8.789485447959995 1.698313246621193 13.694668791222234 -1.4591691782635192 0.519473396015686 -1.834856715308085
Ni 6.866755023589923 9.312054089163466 13.536130322513731 0.5494262336240344 0.4260827016676662 -1.647680405166472
Ni 3.57057140511762 6.484241578468008 13.257261066872013 0.10938886954848903 0.4505279791942241 0.27877468847590053
Ni 6.027557220271329 0.5940900622430474 6.215003207794302 -1.7065440122718998 -1.8494333275706796 1.8746872170414617
Ni 8.781505386044763 7.278095165013315 11.62237119708608 0.0022273466686219706 -0.46699563783194414 0.5468836697078387
Ni 9.254893063593698 8.24450946177452 0.0959456128688435 -0.527053265245473 0.531216395484227 1.2712529046320882
Ni 2.5687159719109958 6.457059202258494 9.575390558399747 -0.3022720002668923 -1.551992173033527 2.4511048916526756
Ni 5.3965749323265655 7.805215878787757 10.982819864775065 0.31768833482196257 0.3930021170636135 0.62805236806837
Ni 2.0728001801077633 7.868285308755764 1.5569936891581915 -0.6538191926198289 2.624698063793215 -0.5101996840232439
Ni 5.408772628827964 4.809914967312626 0.20261089214512307 1.3975951142054641 0.5318193191755487 0.4267655866673037
Ni 8.970834445221074 4.12711337161097 5.797473176668792 0.45078200418655917 1.0624921834514798 -0.5233778732764147
Ni 1.4461748759095012 0.015001401607355658 5.330491844517695 -0.6211720960087689 0.15002284101976743 0.7635515615506657
Ni 7.7152520608749295 4.644303135225476 12.007132808661416 -0.5074573453914164 0.7313032430399212 -0.27998027874822745
Ni 4.700683805497363 6.381234679147745 8.734186127172316 1.3771340181376346 0.05839052412375105 -0.19841974426591635
Ni 9.045850743201875 6.142000040683153 7.36598360943154 -0.08496493217816979 1.7434092607293652 0.8085546086239171
Ni 6.483777081266888 7.085997702518331 13.312572464586923 0.31633850566228744 -1.8410260773435907 0.03938544377615798
Ni 8.268170949199549 7.8141620948813175 9.373614832222236 -1.6934378139072448 -0.9207575505824336 0.2556404164512823
Ni 7.712418627948101 1.8900391113552815 6.937413408829821 0.06487818873062375 0.9038522901866628 -0.6995732589264919
Ni 1.2556845737303908 4.435706732146728 3.6050891211272127 -0.8445261416225198 0.4587999893950292 0.49503146092323774
P 8.606845148479804 5.7069426721706 4.008831946329094 -0.43054999341040046 -0.9543502989362146 -0.7788509109118974
P 7.549593779067669 8.08794603516518 1.8692565775827925 0.5105670946649917 1.0563606166324453 -1.6257666358125162
P 2.3919933667730673 3.9636289367049478 0.6022726449379686 -0.9977723746755914 0.24090388157205606 -0.3069174694587037
P 2.1479000875847656 3.9802579365050264 6.139160104795509 -0.23739201176405564 -1.0730738156220678 -1.1248275511555919
P 6.919744864293636 3.5778547212311733 5.653809766328941 0.20470866259842163 -0.8650324891059876 1.3551955661933306
P 9.218309264033525 1.818190684286116 4.684618705299443 -1.8630151800201722 -1.2649313332894343 1.2628209718146508
P 4.701807888724071 8.390538091862473 13.200671372859624 -0.02531970971171123 -1.5377690874556098 0.738962816467708
P 7.8755035952611605 5.029166936185057 0.5283581343182234 -0.39250255171937565 0.9602106143717334 -0.02743032829681082
