# total energy = -340867.49440239416 ev
CRYSTAL
PRIMVEC
9.25328925159006 0.00000000000000 0.00000000000000

0.00000000000000 9.25328925159006 0.00000000000000

0.00000000000000 0.00000000000000 13.54312415651188

PRIMCOORD
 96 1
Ni 2.044949103723423 2.764725439973373 0.6391653840107929 -0.8215404793606239 0.005675967338854741 0.8030766162284814
Ni 9.211334563306927 8.159744537683736 0.1283912351931621 -0.36101476552373957 -0.07530658315279934 -3.605951357767861
Ni 2.3238709933125805 6.632776044232081 7.490715088833343 1.2208417991693878 1.0624911550102152 0.2519580825036887
Ni 8.359745125600668 5.684415710419811 5.508421855420974 0.37625703639479074 0.44247656964465726 0.20482307668909888
Ni 7.905723248727708 1.3083040216710966 5.0765856641957265 0.9768613355545369 -1.582905831893248 -0.08982200316015498
Ni 1.179266906907443 0.5148872357672504 4.708524065918673 0.49821757196070326 1.0568085028031413 1.2170419658073233
Ni 2.8370769064729786 0.6384362248395219 0.44944334948787146 -0.11608633617332265 -0.968449714452074 0.5717536934766411
Ni 8.322889275611164 7.109375946205313 1.9489638118514363 -0.2910833306399245 0.11806480005593215 0.1102149649942102
Ni 9.129082077603513 7.615586372900217 10.58652413367979 -1.1098467614760434 -0.9476937128516452 0.8469427214838122
Ni 2.2468188560134097 7.940543375142597 3.4231062038707347 1.0230892561738252 0.4020858245324366 -0.6718341411400107
Ni 1.8375551379150497 4.559002945349906 12.6301546437242 0.9702464013411806 0.2496258348260862 -0.3499996453601585
Ni 3.4858805162806754 6.3343204616155955 12.914560032360253 0.46803719172258107 -0.11482983805840224 0.16108372681961936
Ni 8.014939818505793 5.5566000298009275 12.463600994138192 1.7954324478741919 -0.11173525829347854 0.45935663322944764
Ni 1.5895299802151595 6.554641272122773 0.787614973716194 -0.9077146013555464 0.45700098851307747 0.475241165670188
Ni 4.812265464609942 3.573083511585994 4.84037973250427 -0.3357233379468024 2.668456439826088 -0.5239268038013493
Ni 0.01708619809330127 3.7197851550039194 2.342756956111621 0.20800815928529984 -0.0538692392146298 -0.46719644098884056
Ni 5.139406243050544 1.1645634307253387 8.663617583583422 0.2815504514488248 -3.2522925183885603 -2.3799447265680818
Ni 6.821487619598875 2.954075492279478 9.161137321272514 -2.4940163463042206 1.3092247558901708 -0.15378822159947061
Ni 1.6339642738756157 5.635225226225937 3.084771721756443 -0.907503770896321 0.897182848586287 -0.3762004721252424
Ni 2.1097036199741255 1.934927497804467 3.0931006071633105 -2.5409824306411144 -0.8917845603888512 -0.9404635136517933
Ni 5.784082885975159 7.156151321976577 6.877712454071942 0.14360433908793332 0.4701393256672484 -0.5390181509168329
Ni 4.997192444785748 5.363918793463633 2.718037045118479 -0.7705171942352214 -0.8187839996614092 0.5314555080782267
Ni 0.24145624785616712 3.591876941495279 4.6498822723652 0.7711365729867752 -0.9406332064604381 1.044541255400014
Ni 5.932228042473265 6.567429317486945 1.0539329583917936 -0.17477305138125385 0.1309874216548712 -1.2824641999668753
P 7.2760461872324145 2.182665803546116 6.986071243961995 0.3430216713804286 -0.6541017568572541 0.5048199077685693
P 8.030031932824869 5.483313981114794 3.37967311607743 0.8171796312887669 -1.2985497926748282 -1.1488020596933182
P 7.395126763058407 2.56363296395733 11.219611032162561 0.27124109910301675 -0.5887247741133409 -0.05354399466472714
P 8.451907883796865 4.7380263271593295 9.115213248087 0.48508823366759685 -0.10877771832705137 -0.5287921023134506
P 2.316088977284167 2.9936147960718835 10.853432478192028 0.5297601226536748 -0.657146714331165 0.4546121765659267
P 9.054731900685194 1.6431527898283091 3.161222395272205 0.2691798456986138 -0.5499787636933948 -0.41559491476246485
P 0.06027407372875484 4.103676354731398 0.1782303749442208 -0.6284580881472209 -0.5298974195624874 0.3231799540641531
P 1.3343982965820684 6.653725490472662 12.083012293246075 0.1989501628480896 0.5229808949483121 0.18394340502661224
Ni 7.905649222415904 8.18926252951565 5.996692005450136 -0.8539168388088003 -1.4372836910443376 -1.9578490345726214
Ni 2.340443633867741 0.40892874903744614 9.713412471145363 -0.39540018498214485 0.7422728546775476 -1.1480243009870295
Ni 0.20964806700281047 4.866619284052158 10.931914248637916 1.3055485925901644 0.9875872066124733 -1.0730445050460293
Ni 8.840471994456983 3.7834477831555104 7.248306677541595 1.3847470545982021 -0.5599317611410486 -1.9369027713382576
Ni 4.041161134412771 2.916627431795541 2.841997805550162 1.1613390158180643 0.7455821215564385 -1.579526116787738
Ni 9.108558282655805 1.8472433314724213 0.6140778669403578 -0.6126216353355965 -0.9567190562787071 0.6973464264785023
Ni 8.45675660722004 0.43487774731150236 11.69580101343418 1.1218831238152873 0.6060293268300596 1.08184744804964
Ni 7.130991629252133 3.410679036776609 5.122672595267211 -0.3387749802889327 1.7770963685691652 0.6107555286611352
Ni 5.106381254696907 2.4656591402845036 6.857493092331528 0.8084849317282462 0.6715495200200564 0.3594985859895293
Ni 5.290938103313692 3.8796357220560607 11.902726762820391 0.8300636863402866 1.145492278593795 -0.6044097889487655
Ni 4.7349634885084315 8.38046323961686 13.519517857686335 -0.8311029262380784 0.6724609760907321 -1.5224321999882233
Ni 6.961508388376473 5.057357329704592 7.554991210044011 -1.6920985262705308 0.8278638504754904 0.16382066613480817
Ni 4.780998601161653 0.20301068282066856 6.314034476194559 0.113927637959107 -1.193727716561415 0.581834731861727
Ni 6.536652878354358 3.370723334980305 2.6659502814752662 0.1611965982483998 -0.18263959861352416 0.35631401761396053
Ni 2.124296056688524 7.087047759907379 10.017754070879176 0.4178559428824997 -0.08372154668937194 -0.765091909454592
Ni 6.721311513149874 5.321039052351065 10.219113041617714 -0.8774226352402243 0.7245332713059394 0.5056755709006453
Ni 0.2048354314066415 0.3755169732046315 6.94124368552008 0.4982777357746773 0.5366884743423919 1.035901577447145
Ni 4.10212180218351 6.359480154340039 5.135227457749199 0.41329891963943655 -0.595591162215871 -0.74826043971955
Ni 4.582978217085484 6.992238561064181 10.922962616882995 0.6294003974558322 -0.22478075075794834 0.33850964244268794
Ni 7.052440459138928 7.689686711016197 12.648763007853974 0.19194005007884363 2.369760072725596 -0.17452468281587363
Ni 9.213203727679982 6.926355143558465 8.105925558344305 -1.1720836559290781 0.9492443451682168 -0.5048543605509305
Ni 4.659327104422515 6.14284215284512 8.683620418361809 -0.20890496006795634 -0.7895222745828144 0.3747429137431095
Ni 2.428155560066713 3.064680055403892 8.657874992445214 1.0813681944203763 -0.887563066108336 -0.49862457759113477
Ni 2.537751514692795 0.617530269057125 7.412015866096529 0.6239391172309449 0.43559115537873366 0.06686205192987194
P 4.933788908725472 3.785603799486807 0.5443210226694881 0.22682606332275126 -0.4350792487393216 0.7171891722360423
P 2.353222425942936 3.9341653539888117 3.9815431188723815 1.4061059798899525 -0.26166991047481386 0.5039097372494741
P 4.749592938378733 9.093530941359557 11.160373326799064 -0.09255868536502769 0.8956759250234574 -0.4934751721797114
P 1.0958947732379902 0.7260306342685052 12.557265561135116 0.5001142747627838 0.10737492444225379 1.6044591325839916
P 6.02894341884542 5.888145373793878 12.534296121911177 -3.099239375182901 -0.7414781266903939 -0.7873126685260055
P 3.852579105091635 8.10698228394531 8.295718843192338 -0.5730549287865679 1.3626970167766983 -0.7965107900855056
P 6.221337803224473 8.876596834617422 4.7851246427158385 0.20401189364171318 -0.7137269247190546 0.5001852372100354
P 3.862702203230856 0.5917839178116328 3.118331550212866 -0.6609347206186875 0.47290840377195326 -0.26987481488310944
Ni 9.04323006248862 8.311609516350002 3.7909503498568635 -1.3192687703897343 -1.0321773345180223 -0.003054470555607643
Ni 0.41594181675199426 2.745506358771214 11.868502548215526 -1.0605083202522316 -0.9928674811748062 0.09008579834450292
Ni 3.76704170180191 2.371682737449103 12.658947177700433 -0.34002890730069185 -0.44504175926867223 0.17991885724825143
Ni 8.842748303544962 2.1426545820159593 8.900744217527944 1.8684690040458918 -1.4302779491504656 0.44349241250368143
Ni 0.7426504665974402 9.13400482733849 1.8307595224914262 1.0800731297580366 1.4008521876901812 1.896078538233044
Ni 6.176098473423146 1.0350543982239335 12.177272772053026 -1.2933021711226436 0.2708945143968754 2.447515117418888
Ni 6.401906484292808 6.9313056531603685 3.852422724507948 0.9488579083630755 -0.05047975391710661 0.5069215274926043
Ni 6.934849662837994 0.3902241507023261 10.103780047826808 -0.9054476596982406 -0.44919074844003926 -1.3228351475847542
Ni 2.592447705827105 8.760597604020278 11.688270686865899 1.0685059937457275 -1.5836967032256597 2.2273991191264604
Ni 1.2632867708051823 5.067230589041474 8.603201934533342 0.21491902747252017 -1.1024993199720368 0.7082620449497415
Ni 3.2065699885545453 1.8785101949207097 5.503668440874249 -0.580909134723664 0.3224397334640189 -1.1208497974547664
Ni 7.146463128419206 0.4248906725202215 2.890996746662243 1.4384494292176646 0.39667185260571686 -1.180003424996787
Ni 2.7319132772661723 8.115624855848447 5.768219972684421 -0.1930271124954353 0.5830457214506926 0.02440002611091927
Ni 3.065734930347102 4.6680529559264325 1.277417468399702 1.058377647062474 0.6000944494028633 0.3775469588508078
Ni 5.414367724958179 1.721953798743854 1.1707816409168894 -0.6684104601704424 -0.7649373861545987 0.04848714896711004
Ni 1.7783433417606846 5.454656545157602 5.5716680855686675 -0.4158736223451483 -0.050056293226442825 -0.2448780357284557
Ni 5.332661183304321 8.31619914768186 2.2782652332678235 -2.1917939683283416 1.0187204376821681 1.6138323462687754
Ni 3.8850581493957166 4.4736506078396925 6.7291990166726094 -1.1509391606409791 1.0491376165214448 0.8699648934105985
Ni 7.51094092787604 5.007324796213944 1.218577654462153 0.6478958851568583 -0.7610907587149989 0.1492391687762075
Ni 3.0908668632046195 4.928912425435372 10.382091220343584 0.8823717517153835 -0.11501804280980837 -0.3194852788213852
Ni 7.183504044188219 3.0062918019683487 13.371830738992516 -0.28984380180586855 0.5564065215966095 -0.04562011183196014
Ni 5.555341582500256 1.5379058810207225 4.2246149909836745 -0.6551906190460587 0.1705638983959127 -0.04588622100915324
Ni 7.182301116621402 8.983620374908307 7.8395187420945405 -0.4475298157978486 2.144046525740733 1.1543206755187023
Ni 4.43807171172881 2.0852934436566986 10.343370832625512 -1.4841333044080247 1.5216842660786052 2.0664591169735576
P 6.111973180822778 5.4231768560628755 5.4336506538542695 -1.2561900967616948 -0.5281493265231291 0.5459441886127049
P 6.621820150085062 9.215840915038006 0.78701165927499 1.290197821165707 -0.5669778693545526 -1.3052590863742037
P 7.041743657083224 7.259982477570908 9.026342810108291 -0.45929981184958313 -0.7417398649922129 0.0511585251516861
P 1.499032814034555 2.6617455869647895 6.637769118963272 -0.29712465173799796 -0.6198808880011711 0.3431494552075445
P 4.776695821788036 3.937006113704297 8.627972063791917 -0.26098882524738926 -0.4012543297700767 0.8775802438640111
P 0.6199833159645359 7.5933322129140866 5.636309711693869 1.7913631629008246 -0.8871825428404656 0.6453090982662887
P 9.188247607313 9.244961015443973 9.246215761429054 0.49886266174386984 0.2678701257482548 -0.7319192793573652
P 3.4775803160696324 6.886862106210937 1.857304432575506 0.6208090562423954 -0.3946221691655397 -0.2021118484055229
