# total energy = -381166.6538917265 ev
CRYSTAL
PRIMVEC
9.28116280580235 0.00000000000000 0.00000000000000

0.00000000000000 9.28116280580235 0.00000000000000

0.00000000000000 0.00000000000000 13.58391992060312

PRIMCOORD
 96 1
Ni 5.464108289254904 4.6166824335437076 1.9210512844275365 -0.043118428456028965 -1.472177674708045 0.7944145696781093
Ni 1.8325748870395306 2.3731933422267195 7.384436571095974 0.9757107668898616 0.12259534093643402 0.397647843365741
Ni 1.1451934036136593 1.8104578759541718 4.600738323873737 -0.1566848264209753 -0.12804865074152139 0.7483481143373499
Ni 4.942256345362131 8.737639396633705 4.300112177811689 -1.0072497180384072 -0.1535488518951549 -0.24407816553497966
Ni 2.8792301846132173 3.8195326370223515 9.31693895425499 -0.9970727775054056 -0.3984983642914944 -0.6510552567214465
Ni 5.698940271832223 2.054144087895919 1.5106401191768635 0.5519893663655203 2.263313830745199 1.1632010087274678
Ni 7.426535925809859 5.9028288574483225 1.3123109501113854 1.054029140285791 0.29003586321201663 2.104066900024002
Ni 1.8397677882527719 6.7608630823036915 1.1500706546943795 -0.45896865376240953 0.09905689149486167 1.0485778873632328
Ni 8.772508725482925 7.0841723903853016 8.651964982311863 0.11028824143430684 -1.5171254430633292 -0.6912649961711127
Ni 0.24561205323432458 8.223592910702656 10.3899870946417 0.8855930868661587 0.13560306605001163 2.042432415041657
Ni 0.017187785492646313 2.624759261433036 12.916229596709332 -1.0251299407529375 -0.32261122604487663 -1.0873555223520628
Ni 5.90192858465131 4.8090438148929096 6.816723617183863 -0.7612023445921987 -2.204938476130099 -1.1911663835921422
Ni 6.495273326022268 4.954553886146059 10.661339524940287 -1.6360083681451822 -0.6846222940436145 -0.5998213982471348
Ni 5.1600852375876345 2.4229310939709237 11.082372981079416 0.07696777290530615 -1.2805299590586396 1.4937021790433824
Ni 3.741867866245061 0.415999353406147 11.465874342745998 -0.7267305360675743 -1.2477365666777027 3.745888532416852
Ni 3.1197793635097057 3.6998427608340223 4.490272995447783 0.44810574290597666 -2.6743671488835683 -0.5912768511112333
Ni 1.810810560142692 8.857997516547652 3.4261904583797707 1.8270984115189048 0.10175577848326346 -2.9444803050297286
Ni 2.8156727813767346 6.800075995369424 7.319477712268266 -0.1106451105530933 0.5144492033282173 -0.21294750556844613
Ni 2.6597863700508055 7.476969764768247 11.194739091658239 -0.30908619497524836 0.7937411977601685 0.3285247633158342
Ni 7.687624318106222 8.297935025177573 6.999631206048153 0.7111524791236591 -0.02354333453757881 -0.7904887522611419
Ni 0.24106428343498515 8.554948986980241 4.842790123036579 -1.9470128631890662 2.262851803507116 0.16276959916247452
Ni 0.7323496455784825 3.913077477445907 3.530949727881983 0.2647287519057957 -0.3082919812087271 0.15622177074162774
Ni 7.778923117118675 4.737356112994751 8.356691282868754 0.5306867482330022 0.09085121575561772 0.56442913479077
Ni 1.120839632280054 4.5274904584995195 5.701755248526385 0.297136735922856 0.6657622239143179 -0.8083468634884853
P 6.661795949980938 2.592135973994918 9.835777304568486 3.0405040661252216 0.6049733747617193 -3.3035333188414073
Ni 7.632085839577146 6.118114711051337 6.1140272869296455 1.1717041611024723 -0.8638178999725963 -0.14728333060141732
P 5.00646342999852 6.630444181854063 5.995779703449107 -0.7075717037509361 0.7767382354442687 -0.37182651142726286
Ni 3.8938283456829885 1.0369936070408041 2.6646756866432386 1.0950096964632108 -1.0351266469543334 1.4591555514167645
P 3.3602357307776365 1.7196138539216528 10.055183994479473 -1.508915396448711 1.4123144226935096 -2.835311521911846
P 3.7897772289066736 7.7988404926072095 2.317117484368293 -0.5343695964012282 1.2977951738969908 0.5467070349206585
P 1.3627345797906325 9.056233873984572 12.391686115588378 1.295482466603414 -0.7105462129982278 -0.03460344900648234
Ni 0.5759230705743466 8.972230068976772 1.1122146476381638 0.05141332147496952 0.43989132541598436 0.06458405452897265
Ni 6.074957303771892 0.8422469668376626 12.924610486768113 1.6257854048655935 -1.067085459249117 -1.0180928314004982
Ni 4.32225610426933 5.655625084784228 11.602188637841627 0.5208576779577223 0.631887168433428 0.657150570985907
Ni 7.916182234593022 5.996531477640426 3.7943147894268714 0.46067766603371635 -1.4584803797266108 0.11636298687347701
Ni 5.723832350611464 2.781759412301661 4.3091316118749505 -1.6824121522207023 -1.3752422004315605 0.46535296002219856
Ni 7.529074213040679 3.032647806619505 11.784308255979457 -0.46472303974768353 -0.3138491635815305 -2.923536098677894
Ni 7.107774387527587 8.035120336590033 4.851361276933906 -0.15601351138556357 0.5798619244060723 -0.8293962279596168
Ni 0.4418260452849671 7.182923963170958 6.423414850727563 1.4440318084014487 -1.9083074761990682 1.8424975196827946
Ni 0.9566187367096215 1.432992982608999 10.85901251579186 0.8077539670994928 -0.6309831685619197 -0.15869979996847508
Ni 9.102045693840775 0.5862316581582778 8.820610208215653 0.368069872598308 -0.024541179674473865 -1.4073712197556214
Ni 1.2870559778644821 5.7912228741073895 9.96644029960122 0.9253441415118515 0.7101047545854351 1.6419702421555722
Ni 2.0589146056037975 5.660219260397847 12.739638767284697 0.4016690487099921 -0.4027936492327385 -1.3179652210869623
Ni 1.8457634194576151 1.716476820876394 2.2005952690626467 -1.2306521003915902 1.0682828219913278 -0.7646314248784057
Ni 7.226072089287547 0.6709621782176848 10.609204448830429 -0.04311380047033865 1.475036227202763 -0.23136714572621442
Ni 9.115735409053073 4.91835735100846 13.386966464290099 0.7226995605313102 0.21991288114268578 -0.05794829438000988
Ni 7.865664865168932 1.0584794990519688 0.9265319910799916 0.09844445472184335 0.61266457275839 0.716302912976347
Ni 4.38800386193978 2.068474203345266 13.276978187634933 -2.352972568854612 1.8338210749547192 0.5977467751062931
Ni 5.96352766252522 0.8123560537442901 5.86435472494591 -0.3923169180711308 0.48772232885633426 0.4710114438595566
Ni 4.507508114870993 8.792453944460028 7.435009627497199 0.007716909028283484 -1.044615303171059 -1.696491256021588
Ni 3.1153151241760684 5.77499940143546 5.055228515875437 0.12483888555497209 2.5572896524415696 1.401779841710773
Ni 2.255610290006656 9.15324058815334 8.572200812496593 0.06869653403544942 0.23381612148733924 0.22025380942187228
Ni 6.7699679030652264 0.5635141558361489 8.194621760848293 -1.9758097328161004 3.1968219961250814 -0.037086877549968394
Ni 0.08359914630728571 7.2286800960500255 12.99455425816567 -0.38771927139811935 -0.14053984122999666 -0.3199763595251909
Ni 2.5085405401527745 3.7926636705548256 0.5546014551457292 0.5128085824010007 0.394076838185031 1.073901710840002
Ni 9.2729026208531 3.068027599425794 1.433388360146656 -0.11480592679900227 0.4217383086560414 1.2929525010927088
P 1.3480889048041884 0.4518524855180822 6.590564881295284 -0.6616374031126669 -1.4149336054839114 -0.32277397687498605
Ni 5.949856509638634 7.182784745728121 2.935906533708413 -0.6620816897389371 -1.1528975699189306 -0.6166050454633768
P 7.317751415977089 8.122353986271648 0.2823042024684236 -0.21059726016871474 -0.3416037079869794 -0.09528379760567461
Ni 3.7069892562329843 6.298624047433689 9.420760826308767 0.26801924973160934 -0.25430395702804587 -0.42321386476030337
P 0.5088880156157978 4.0270037515007875 11.083731743321504 0.1532241215658845 0.6646036848298424 1.759982591707014
P 4.724288235693792 4.4422336965061895 13.420491880757801 -0.11053738133063544 -1.0791670730039995 -1.1061610850943402
P 0.10429057077799453 5.403418765340862 2.2454223575398498 0.2874357065850082 0.6716338522037466 -1.6143640504025292
Ni 7.006015717976654 0.7256625677408823 3.1655559149470567 -0.06329541762453615 0.7292669293361826 2.0152000616882644
Ni 3.2143729753359658 5.742051273297389 2.8834317670380356 0.24024902159687656 -0.708726900401302 -1.008920935093243
Ni 8.273804001752506 1.142000683591266 5.960270902479121 1.3061983103590213 -0.09613946073775055 -0.12767584078313496
Ni 5.119229558696426 3.771177778543661 8.997948171250181 0.5332676215863009 0.7434838442665131 -1.3377498599130573
Ni 2.848175413697728 8.171312120335964 5.311910212047867 -0.6415280339573016 -1.6291147263491428 0.9137484662544522
Ni 8.529026699124007 0.06974608262872645 12.427018574464105 0.10313594666024174 1.593914781409242 0.5599183914046099
Ni 5.8899373222416225 5.082800994487432 4.1936553836231525 -0.9468107960260599 0.6153639739674241 1.202161192040749
Ni 5.6757559270184474 9.12819072960555 1.5614990353940477 -0.8279625808368838 -2.3103107683200275 -1.4426866072274638
Ni 8.42116102441396 5.908843050978877 10.831763021647246 1.3704224104454141 -0.2722782821182795 0.7780911499277374
Ni 0.9505024503876528 6.540008530987199 3.995139663184273 1.080977643850177 -0.7046745847087993 -0.6861294747167602
Ni 1.9268529393286937 1.8580702414043988 13.01395188853428 2.598904756879195 -1.4556043437303963 0.45685315008130356
Ni 6.213617876837466 6.667986485605754 7.9311750250702735 -0.9321061428260334 1.3484708458749874 1.738110474224271
Ni 7.106437900076354 7.789828483474232 11.368790594925526 -0.3090059765566162 -1.3293546938708267 0.29867579827520174
Ni 7.387202357627 3.404330535505517 2.918423607236953 0.784864464095829 0.4488678178829818 -1.7045881740971096
Ni 4.471590014619068 6.344686458686999 0.8706148411063993 -0.34732544096210505 1.251608133817967 -1.40482171386089
Ni 3.3067205457511237 0.9939382925527722 5.687274778238774 0.9302235810913398 2.286040068698121 -0.12860837989973337
Ni 3.5779996548631487 4.590602365918924 6.9519510881090785 -0.2679639710136417 -1.5424814053296145 0.8920596684271088
Ni 6.656923339481645 5.88914842339888 12.92317097840918 -1.082423118047452 0.4566166085904652 -2.4018641523489923
Ni 9.365528626153933 2.920104425830137 9.334625138192992 -0.7933827859794852 0.4880907679393465 -1.065891438941016
Ni 1.2818956513166604 4.963835049001855 7.97096244211678 0.3891279788201879 1.1129156302093544 -0.2254554082274698
Ni 7.9234401039462545 3.540308852505766 5.0781854721992445 0.9038988271538819 0.6279071007397573 1.596122073473206
Ni 7.045098694762406 2.731158512411868 7.205400155258836 -0.33752131038748967 0.060809417977888816 0.8126981984786456
Ni 7.098437537694658 3.746332105578698 0.16609754669987414 -1.337481179632703 -0.8563814982992091 2.3114662220807096
Ni 8.166253886579558 7.863205357012147 2.493844746886909 0.6642141627009077 1.6627074747029236 -0.5378107608722931
Ni 4.672044569978524 8.848809165320414 9.668721941861893 1.0725318270756687 -0.9455560976833521 -0.15770992525138
P 3.788088057266919 3.1440588855404648 2.443122263763705 -0.2938359536843972 0.7218922341386664 0.07261129570882334
Ni 3.339520175283502 3.502599487822672 11.497076684150894 -2.231781821575189 0.5529198485995896 1.995195850652196
P 4.731954476212678 2.6795552469336488 6.364406145406706 0.3904770366489146 0.4911483238187476 -0.3009674225228559
Ni 2.8554240018881036 -0.004884676011004781 0.6445043672646706 1.3446825824771487 -0.938457538965358 -0.17161496536824636
P 7.03248559444138 8.205856608485233 9.301140558841857 -0.16842911144109704 -1.5771239351041482 0.5407639299633461
P 9.375552282038191 3.5027294241026534 7.154093886992002 -3.836848505836192 -0.8952642914073357 -0.3967155613594587
P 9.12476598051176 0.9239991617366453 3.0852617907327193 0.5701143581010053 -0.19057659407241373 -0.9708958619997213
Ni 5.1895714919804945 7.868087248674294 12.646615528213637 -0.6761037150496421 0.26389262915774553 0.25429881482172334
