# total energy = -381161.240635078 ev
CRYSTAL
PRIMVEC
9.36598834297729 0.00000000000000 0.00000000000000
0.00000000000000 9.36598834297729 0.00000000000000
0.00000000000000 0.00000000000000 13.70807066856810
PRIMCOORD
 96 1
Ni 1.307847884675045 8.386034377099211 12.867300160469336 0.017056184151338367 1.7474412647068938 0.5864588608972996
Ni 0.5870826297021944 7.588258219313715 8.40011426742299 -0.13616768030423002 0.021202087998911875 2.0229563085949156
Ni 5.698538940868193 3.600192271374844 11.073900706469868 -0.6853072359257811 -0.4404793367089704 2.398291861616702
Ni 2.4642383713418097 4.378402879445461 1.6286966752315986 1.187484820975497 -0.07749587749463428 -0.9328707889061998
Ni 3.6199451408572174 1.2728752840836828 11.96992889210313 -0.30724785621492895 0.5922993788384767 0.07712923818383491
Ni 5.56793959897051 3.7309508350748994 7.369294523495499 -1.2672718084971528 -0.31995476225863606 -1.0285333100075318
Ni 1.716823133047411 0.5945585616229296 3.721343204200068 0.35847091605596326 0.7053482137370561 -0.22700938297815096
Ni 4.044467929931689 7.898740733937082 9.52623200646485 -0.2716337065557451 -0.09983722130431193 3.303857020729413
Ni 2.566421304510466 5.809984836539489 10.225946265966584 0.7779739076235828 0.22789384246563332 -1.1277339261691093
Ni 4.143700576762295 1.2952225323458653 7.454819109740804 0.38820958077097656 1.3031548955470074 2.529872436770882
Ni 5.926375974072658 1.2323111884325875 5.8537848811740645 -0.9317988959982598 0.0134466124232091 1.587462340915679
Ni 9.42059208698707 9.024813516234742 1.8584986927970892 -0.4516602930264544 2.1410823009060866 -1.1583601356953985
Ni 7.7803452748917135 8.555296519007912 8.860951803222926 -0.08693696830287607 0.8461536499236136 -0.650302437715822
Ni 2.6342216943553693 4.052110576445495 4.5809489342415555 -0.9320812031253689 0.45938748646738303 -2.6540428355039194
Ni 6.428243095145917 6.517145056799159 8.21391748193388 -0.42309893644899393 0.10523525239143167 -1.1161292520506454
Ni 6.661549865561244 5.7596426490251424 2.9031089180075798 -1.3410043622946128 -0.8347271532542271 0.2014050521464854
Ni 9.260602273569381 4.269813610228468 10.848210357800898 -0.17375720852222978 2.6965017759990784 0.5055267040276068
Ni 6.303956429412823 1.5052173576964087 8.388557574367372 1.3388091544155072 0.09026217602136714 0.09119780046175906
Ni 7.8877731615502364 5.408951946308921 6.476596883328302 0.6767945704690795 0.6074323778251732 1.1362723026574237
Ni 3.488137586459189 5.144081795070646 6.3360349395963835 0.5676502128312289 0.03961864283288661 2.158528521406992
Ni 7.866118996427786 7.733646456855149 11.341125467185558 -0.7126797144014629 -0.4828626867711878 0.25907001095812154
Ni 1.8632228973333194 5.5038575065103865 8.000578062134709 -0.5549067971226315 -0.39273009434914946 -0.3332805328332647
Ni 6.763433087101906 8.927510263009339 4.314752559049414 0.08742059280751396 -0.7393577379132815 -1.1086208594887423
Ni 1.3996533027244638 7.548134325116234 2.8197225869082345 0.2852461551328571 0.6781436282978064 2.130444361576266
P 0.18497358740736616 2.2125742637119497 4.793835976802225 1.1109124837363964 -0.06604521245553142 -0.4088416551990314
Ni 5.335222885822793 6.324805119535043 12.779623270095511 -0.45552234708502193 0.419428172465626 -0.01389501281453736
P 2.804214383357303 6.082094896791455 3.1930349613460187 0.5371818690390426 -1.15142458491783 0.448046607533267
Ni 8.179767215121823 1.0032846747045274 5.88738349127085 0.19535498929766354 -0.2933885817343334 0.19452143765277466
P 4.357694679148862 6.108947185461899 8.309475851525066 -0.8134980686721216 -1.042623726662327 -0.13037112822711094
P 4.7804285644437545 3.747575464440102 4.905254711107235 -1.3622018223078347 -0.983179821573397 0.3687234470219069
P 4.583976958283116 2.901386512745461 9.358376636010036 0.18609516126229242 -0.3869258289625465 -1.7077987106146073
Ni 9.106934502304657 4.798504922007045 0.7564965006225681 -2.9174389846412208 0.47911401836203293 1.3845490796547832
Ni 8.282043808174226 9.04378900868201 13.232428534265253 1.1391231418426575 1.4999882691624102 0.9107677863595733
Ni 3.1585671875280563 3.6353334597569518 10.782795485195045 0.44721639832248783 -0.5746862937424038 0.4949995792440378
Ni 9.294591445381393 8.879949774042295 4.348117956035667 -1.711632996759033 -0.6593923158322321 -0.8133754270513281
Ni 6.93326655430147 7.413217262577784 0.32801377166324697 0.12481548851620439 -0.9176218331669294 0.7385804934276248
Ni 3.2045635564365136 2.082068581698013 5.551645588994936 1.0525247878261228 0.15344395088617444 -1.0495731613969668
Ni 4.6574531370831265 0.7082494847076556 9.968303847957113 -0.47998253700991533 1.0639266019051612 0.05062065037034508
Ni 7.932992153423587 3.05246927121875 7.115982938510518 -0.15993341526526003 -0.0707315621876072 0.7453988019010388
Ni 2.852664641219948 7.601511092864004 7.658384184072072 -1.5821352722758106 0.34204208107597867 -2.362725534476318
Ni 1.2789444445505287 2.853610606045799 12.061566658960642 0.5960881564569476 -0.906887991689193 1.099940300995609
Ni 1.3790012983581132 4.844042357485138 13.208068535101333 2.145449062515215 -0.7481475682907696 -3.1242472100811485
Ni 3.6633190330207412 7.01201578455647 0.8026736331066582 -0.0917529016342807 0.51654233841182 0.17153191873613682
Ni 6.755378337099612 4.0622445758669885 0.37104018565806707 -1.2289446307821803 1.9448865608746826 -1.0320791183772613
Ni 3.8607634339491033 4.504300495179014 12.892344813383447 -0.05416748718133897 -0.6271931053918682 0.7213751852929319
Ni 4.5009287393641 3.5911821905583228 2.4961164493741506 1.8805855848037676 1.0067568375623888 0.3435736872291567
Ni 1.2184776236030637 3.2397890387139943 9.526025954720604 1.6567831387986884 -0.2579045298951107 -0.2843030744932975
Ni 2.4304833492391666 3.192565725328443 7.776314153495216 1.8370357252372749 -0.9430307601583372 -1.4880454949782371
Ni 2.7162490205415364 7.719934649874497 4.848449055015465 1.2506038609231689 2.0441352566653763 0.06212453724488656
Ni 1.4556431812287924 6.068148940101435 5.387560028860964 -1.1321713931151727 -1.8200970405004073 0.18447665182226292
Ni 5.018380865092962 8.304465984343405 7.573681931606073 2.43029155445175 1.3523280148375485 -1.6697512689235825
Ni 2.182977740447701 0.5723799011514927 8.459743769009751 0.6790769387453531 -0.5168994646409226 1.1728860972257156
Ni 3.921286450826817 8.364998367209495 12.160237346488762 -0.3305821600654952 0.39971835274152445 -0.36622999117609184
Ni 3.0747509575623093 1.8737221703014277 2.4588444986367843 -0.0332703320173556 1.0372758320868523 1.0671175980386332
Ni 8.628866357691669 2.426343582377522 9.625464653295454 -2.403099824528306 -0.3875858311440486 -0.7845991262495843
Ni 4.516635501868576 0.16551668315763515 0.645761483468917 3.695434489531358 0.4409195095701826 -0.8916488061419354
P 6.256152424748037 8.7320608176048 10.30128627645317 -0.6772445135223046 -0.44915655276799427 -0.42716025100256105
Ni 6.546554260295913 2.2155432820267493 1.5797181756246172 -1.3129405141788615 0.33316123364658107 -0.636466046053362
P 5.144409604663762 5.5391766486716145 1.1499204618974794 0.30405865985366987 -0.6682644215108813 0.2277801997059045
Ni 0.5114681957562267 7.963113172036823 6.247699620239813 0.46731599728584033 -0.18034360349049586 0.1990236963985024
P 9.212283139543983 4.8397527348094975 8.147185751362537 -0.18176079555299665 -0.8226128864891962 0.7461783603795408
P 6.940778076978029 6.657222778932103 5.048312690741027 -1.3719226491400243 -0.6980465378693204 -2.2989637187383245
P 7.785693254253703 3.18304051515131 11.872834500418483 -1.2629855224169733 -0.9857954048193732 -1.1254960379775263
Ni 5.113089739538558 7.893804858063583 2.582367836317336 0.4995116081817785 -0.9306827801159455 -0.5691825903153552
Ni 4.698841439711201 6.07541694708025 4.626871311841852 0.834271553774047 0.11229113079694855 -1.3166511302612292
Ni 2.622926312375406 9.353156970688781 1.337813427881259 -4.052458902948782 -1.1835536042418906 0.45567558483343457
Ni 6.090046620921628 1.9039743127519095 12.95301674947632 -0.003360174721484536 0.8892962467493587 0.05073763556418358
Ni 0.6359927575940402 3.873192100522413 6.206095899879119 0.6496635185802424 -0.06871530308852682 -0.4847434487336683
Ni 6.103543010169661 1.7699751170741869 3.7372447792627397 -2.031671576980727 1.3127469101108167 -0.06727574242852286
Ni 0.5336374902392889 2.793677646435696 1.8967306573428684 0.9484539880564377 -0.9519157213527929 0.39062641774258533
Ni 6.640120484159787 4.338728552689968 9.284449016570361 1.8929777878205336 -0.2536794360701696 -1.2238888135258277
Ni 5.993782992405822 9.130162153474068 12.393412056468003 0.6354311770309444 -0.8317829830242384 0.22661728974605488
Ni 7.521525552143535 5.33419262710157 12.129517841218378 -0.511271576931184 0.7411055738423236 -0.19239076446301706
Ni 8.588967247215184 2.463948025702192 13.624176920219917 -0.6059154269600145 -0.37005450712850463 0.6151865678492953
Ni 0.7503093287022002 4.9571085691452685 2.877886311314345 -1.046762688531365 1.2096677848304394 1.814572254027436
Ni 1.3259710721802096 6.6579345940485855 0.8496262694281786 -0.6794872868098943 0.4258659576711698 -0.48230347183360806
Ni 8.180460298261554 1.5872727818477006 3.1041105213206763 2.177010896481896 0.003973125715135093 0.8014010282982714
Ni 7.508272678593245 8.069538897939246 6.37142900966461 0.2991038869515558 0.6332074299067482 1.968124191246385
Ni 6.8729308571912515 9.450937889321297 1.7297116696499217 -0.06967175346452517 -1.9560371781748638 0.12112595547975913
Ni 0.6814646311535107 6.8976757984773736 11.150268165881167 -0.41986063201735435 -0.7941988541228774 -0.8635278795360032
Ni 8.398491141637644 7.014694457231653 2.342956314679339 1.0116036241317288 0.3230537128989339 -0.12673173170231078
Ni 1.236273001515112 0.8746044238248321 10.897586911913805 -0.476388906121386 0.2262298244996491 -0.31469711340412254
Ni 9.427429258500645 0.9469107906768337 7.961894656949266 -2.0692623907503074 -0.106073689132327 1.093766568084729
Ni 1.3880488431281335 0.8111189448241813 6.1632717912331945 0.1866893432028656 -0.07416732734203355 -0.7862402613974331
Ni 2.705946433329298 6.600474255369419 12.329313105228806 0.2532796295285896 -1.602334372931505 0.7119924585264513
Ni 5.590052697523323 6.059532230796653 10.527743699570035 -0.3219129144262714 0.5104927897836306 -0.6609349777290037
Ni 7.914803403999799 0.7820684586821814 10.994146505662254 -0.343976321984214 0.2774557125541609 0.4893647495557637
Ni 3.24469681662237 2.2642932515173864 0.26253802013295935 -0.5407055659215849 0.8903246880138731 -0.32737470887179104
P 0.7715485805396485 1.0778754061211338 0.16785162405946338 1.5492940573760736 -1.1108086111686803 -0.14462686681517672
Ni 8.191868072102015 6.2680191320188605 9.519733883730439 1.298275455967519 -1.0692354157125843 0.6112692350727602
P 1.9240268938622755 8.434597026822352 10.154075417574008 0.6961961149241429 -1.1761958783252389 -0.5436659341014894
Ni 4.252168088130416 0.24519689265708716 3.7733244396799983 -0.3042764322914308 0.20650560659784437 0.9523672070679147
P 3.7427894443805987 9.278791022993168 6.038062575645186 -0.4774916522672615 -1.0553494017591116 -1.7036754324748529
P 7.7476486094754184 3.863732452263903 2.3240388913599945 1.051783024564092 -0.3343560252856306 0.7489417820572909
P 8.986047690351601 6.685498697835511 13.138788319093216 -0.2232000365343898 0.7066538199223572 0.23446686769746072
Ni 6.77234950803468 4.170674623281609 4.926269179223689 0.6118063385231528 -0.36256874027442076 -0.8465598842230969
