# total energy = -381168.34835956607 ev
CRYSTAL
PRIMVEC
9.28307570459248 0.00000000000000 0.00000000000000

0.00000000000000 9.28307570459248 0.00000000000000

0.00000000000000 0.00000000000000 13.58671964133890

PRIMCOORD
 96 1
Ni 9.278239348894795 8.951837119586836 7.663263574813206 -1.6777186033997753 -0.48419528953968227 0.10350104330914434
Ni 5.673685985091847 3.9161490871598192 11.913760275885082 1.4047180984034904 0.6773303883678915 0.24184079156402868
Ni 8.60766708313757 2.943700478441203 11.01332698454374 -2.833534118296449 0.9418030583988232 -0.35318267107383045
Ni 3.281474475642631 8.955717445284362 9.65321527249057 -0.11475681872862172 1.414046832003584 0.5032661901282043
Ni 6.915390208300306 4.378084223606262 4.552012860691011 -1.7623228098044168 0.2955400808596975 -0.30661587905788484
Ni 1.0586791001165188 5.386746111143181 7.442098934667945 0.5433021230041676 0.19504440003578022 1.1731825454202118
Ni 3.5771311577969835 7.926753470904164 3.0325422990704785 0.24543776488666766 -1.812074427306247 -0.47466575278269213
Ni 3.6873398340673993 9.050627612584625 0.7305075165550939 -0.7717513237526387 0.1378124149965046 0.1436544755995784
Ni 5.151902858760349 0.7412025482204533 10.290174448969866 -0.13828266976470377 -0.36189459702553156 -0.81275501985851
Ni 4.4705529419628665 4.923446362549522 9.786582438037588 1.1771006495276952 -1.4585292306866753 -1.630476896803992
Ni 7.073545971239918 8.094368688115976 10.845721050407759 0.30039355229725684 0.9482657833050314 -0.25075146379009716
Ni 3.792377837099724 5.985123896159584 7.138177530100895 -1.4384162619868839 0.5287946734166118 0.6913387868318417
Ni 2.1029972819218568 0.542604137113751 7.609052268572979 0.7081574010510772 2.7200404825509668 -0.7098368456360291
Ni 7.514687017824018 6.810240808358005 0.8545656136583798 0.9220803831589152 0.4671249643209568 -0.12136995316976516
Ni 7.859191245003213 7.9102295959242666 3.0928674390532676 -1.3980735965037794 -2.6333467406071485 -2.3676216862263546
Ni 6.8606200608950285 8.778605641497025 13.098766256838083 0.4642658976056069 -1.180980701308392 0.3521148919309484
Ni 5.833716929349403 6.084322844493957 2.502116629139945 -0.10612254009239143 0.01983606088932068 0.5627005821354374
Ni 4.256345967153244 8.638440479518671 7.7260886471173915 1.281119513013523 -0.2400775290160188 -1.596024114442761
Ni 5.762441473115891 9.07923805229701 1.68005199227489 0.062292430281318534 -1.1006751222791045 0.8337267370141707
Ni 6.978041687086445 4.815512039857801 9.950098248962252 -0.26067617910297686 0.6014064833460675 0.4551315394045065
Ni 4.013017983460509 0.6853277147912389 3.479517758814615 0.0944283915839148 2.4270763899485623 0.8956514995434253
Ni 2.401476019128956 4.005860731994497 9.755740346895333 -1.3689604811879068 1.1739019400847395 0.7693085186391009
Ni 9.37321449772588 4.231031019361008 9.217312665598131 -0.3836142480908103 0.12962885074444772 0.10257518906076528
Ni 5.5184079756599695 6.432763095825667 11.133827806988432 1.0635591912634135 -0.3638391223464121 1.3571136091516498
P 8.38640497069608 9.161421122632419 1.0314239894755195 -0.5912025462298721 -1.851263953021515 -0.7144974843364921
Ni 1.9061125266136316 5.210571898014816 5.298250549242417 -0.23972683054481936 -0.23577915875098104 -0.1347602584337421
P 9.248171466276881 0.886637712348294 11.102605109737091 0.04202956626722439 -1.395068234018552 0.5677435438759836
Ni 3.5135513714277047 1.9667031625651987 9.015128202297758 1.0101357813369507 0.4422667676266963 -0.01351217555382189
P 5.8605171692746625 7.267590105343734 4.393333532274507 0.3760194664626879 -0.04442532019291059 -0.400873035171258
P 2.875414172625403 1.8936732049995517 13.647452665236568 0.6284786569725112 0.232785880450612 -1.0427592237989265
P 2.3092486607439677 7.6843537947945695 1.3890925464912272 -2.101341273562723 -1.6896194686024189 -0.4042172690531426
Ni 8.763065772555256 1.748912920484654 13.128765444694842 0.6955358556323247 -0.6152431321188436 -0.6031766878726128
Ni 2.5995675742952637 7.671032580976507 5.769070517567095 0.31820435522643264 1.2435027311020133 -1.3131595721682028
Ni 1.2488429085228083 9.776749804116966 0.5363055701621441 -0.01510368841065786 -1.443462823271856 -0.054795350573324984
Ni 2.288055398620875 2.5708921530520605 4.341676928503083 0.12785041868778627 0.6695144918678986 1.3595733835460522
Ni 3.64168566712856 3.0263662687198463 11.452939108538407 0.055691894245665376 -1.933341793459877 0.2362015910003803
Ni 5.527626069960553 9.248459241627653 5.415924675096448 0.13674797828773225 -1.4885682002509266 0.11254592712023198
Ni 8.36833082205234 0.2894565158065587 4.1309603902060665 1.3741939616727041 1.0720808555811796 1.0455038764235993
Ni 1.0044380880336312 5.1047077012334965 12.219895694037923 -0.31818172951861334 0.44108714549629846 -0.6428781202272927
Ni 2.7211851507624742 0.5519809720110511 11.88214397621849 -1.03751108802611 0.6139773780325426 -0.031403454011945914
Ni 4.431647571153457 8.344733243288914 11.899670423388178 0.7314819347096305 -0.8459698160475817 -0.24454482075875306
Ni 1.188595746377003 3.241928572600854 6.521842563196226 1.542452608974208 0.611574939238637 -0.19354724666496345
Ni 3.350726221344897 6.889267632910738 10.417875225029395 -1.9138407473124717 -0.9042338418957976 -1.0314247726227141
Ni 1.2781681450742102 1.9095379815954192 9.688785234153757 -0.5129085983139747 -1.1580816852230313 -1.3318851736021642
Ni 0.671935949596857 6.185229878781306 0.7560777489326934 0.7067551213869119 0.4530142359511875 0.39018701621232155
Ni 3.67265400810212 5.667447758133144 1.3759133637333845 -0.5294554469290623 1.6718181787549402 -0.526375522452158
Ni 7.098573143681381 3.5530415760144924 2.2702458176383282 -0.7137752614584868 -0.2945710320782088 -0.4437906604703905
Ni 8.28316788437505 5.504455512685372 2.6634184264788194 1.3482631007395554 -0.07608717007256573 0.7625264627202609
Ni 2.0070381270526445 7.658156954798351 8.011762309522654 0.13381923467671147 -2.249526032932487 1.8527850176517318
Ni 2.1556973034167317 1.839033020655914 2.2198257195676465 0.27071787960969507 1.0563950694148065 -1.0298561425840134
Ni 7.503927932935422 1.1096803187342466 6.016756905362674 -0.4884422377414943 0.4583860417860622 1.025268523213331
Ni 4.947006809009624 3.6124625444113034 0.6764066789172607 -0.4403968042974931 0.05434772151294511 -0.6282300312968149
Ni 8.774353992766242 1.469770830234367 2.2940364843790477 0.5365375505868243 1.2378887273493455 -0.0808226278750221
Ni 0.5235264879726348 1.1685257364295096 5.515990662713472 2.5150220020216105 -1.4862459798756533 0.8715090979692668
Ni 4.123013148986803 4.077572492792085 3.024403826489088 0.7788478255881038 -1.2543160196674334 0.7667857522172472
Ni 8.78420333622336 5.291808094615424 5.478573368959836 1.0456789685488832 1.25336188328428 -0.6328590454283939
P 5.700411960410456 2.8116394416636643 9.995776551898253 -0.9577279571591959 0.10599115672084972 0.016442461826739425
Ni 7.770630701571629 5.471871916517147 7.468035848540886 0.6440703407631811 0.09261807784805338 0.463102473425125
P 3.6733131064861495 0.8160538452642216 6.080559485551906 -0.4391212800191792 0.45385935756030216 -0.35191460299468424
Ni 7.6982041439350235 0.8234960871582573 9.484956738123643 0.8581961829104446 -1.2712181947394106 0.22977537575906232
P 5.194697838343117 7.107846936436952 9.096254858603555 0.05283257041999933 -0.09604510125173137 -0.6716248533426821
P 7.321042055980953 3.3179383975083816 6.454901375068396 0.6203843100001509 -0.9332927069349669 -0.0891745993841432
P 0.42388659353627123 3.368475462334539 2.7781720966762906 0.908753584143022 0.20380697671975864 1.8268680406756534
Ni 3.375261390767295 5.229138049677622 12.023037859649607 0.5737398706687346 -0.586349589012945 1.1536380476293808
Ni 8.931859940397656 3.1005658938402503 4.805636703788354 -0.7410508093449882 -0.46874347376098624 -1.269089578432182
Ni 2.3804591354466598 7.234746583052231 12.600106344095027 -0.33430948831841134 0.8532421813392789 1.214596075369992
Ni 5.002510319405581 0.9283911308227782 12.94690720423491 -1.440481886266661 2.668677554697959 0.19127799101481252
Ni 8.217852162825299 6.689105951834028 9.348655192306317 1.7594254336519632 0.336500325322143 0.6625041219883365
Ni 7.900974369320358 6.018672932214274 12.080414694748344 -0.1761845870167998 -0.4271116571528128 0.0781507374698138
Ni 5.82417392739472 4.44020656707001 7.362534620024575 -2.5117785553836485 -0.5332329116936236 0.4573987381721284
Ni 5.222936955022244 2.420617721493309 5.544875881470466 -0.6216842597584971 0.9577492973154346 -0.3567973850082823
Ni 9.212737965828415 3.704513524355495 0.8766723304432829 -1.0067966896613885 0.9375447973431015 -2.194310306992292
Ni 5.652037852253015 6.819440336506925 6.585021320689588 2.311247421201684 0.948684616010005 -1.0477973004434662
Ni 5.302585745655683 6.962910273481258 0.13057110310659828 -0.5766943253113681 -0.41596438228674165 -0.2384898728139248
Ni 9.115525595721964 2.0346924099543937 7.607625459817692 -0.5212916801713474 -0.8070453710682423 0.8351819814034583
Ni 1.8380118823144596 5.004441199178514 2.8010381690642023 -0.33675743563827165 -0.36507170920193255 -0.0581760941200998
Ni 0.9346386408573123 6.769478822382315 3.9398636326787213 -0.7716428231992324 1.797438422560627 0.03234164955549914
Ni 1.5984899597126005 0.05658591703789985 3.539353680701089 -0.5447311421412103 -0.5381768859624602 0.37094693703578696
Ni 6.811410475912761 1.641442751584502 0.6938495784044668 -0.12888554482051995 0.6470399649144662 0.4683863475318837
Ni 3.882228728071873 6.124267919796483 4.3822198338891525 1.1552377880163331 -0.1410499480971958 0.11350212038591419
Ni 5.7910797620557695 1.652201836473098 7.795068398697798 -0.5792566867219057 -0.5414907808270416 0.34117433375904466
Ni 7.497996047479156 2.911488205306235 8.876775096721694 -0.6979475503976109 1.3499011505636107 -1.4610735943750837
Ni 7.957749661105218 7.666855196852375 5.450530125180751 -0.4651213036273667 -0.2838101940172789 1.2672448119139594
Ni 2.3044121782358067 3.858037032455237 0.7288987595135118 0.21270710742286592 -0.01618252329713342 -1.1327318936043331
Ni 1.2148018694490537 8.378050202447819 10.184931289961668 -1.912825161563764 -0.3310912384914298 0.9158842816505323
Ni 6.396057813988299 1.2190720843314988 3.5300603934862718 1.087035934229115 0.41256538390752173 1.2240927020065175
Ni 3.189237834181811 3.9266111136218105 7.594527968127165 0.25219899486990116 -1.5101510686280248 -0.4131230561832047
Ni 6.840865675525803 8.34074152068141 8.22284552931501 -0.7565018537927358 -0.16838077470166485 -0.37816273805793577
P 5.203182569653019 2.138105874716223 2.1979371550647815 -0.7704989394027763 0.4038264613726271 -0.4027311714259193
Ni 9.347036223881323 8.183634745310746 12.583462717436905 -0.7580730549345976 0.3096091573582539 -0.11336045260172734
P 0.6016222200194785 7.211947348810305 6.490254112757127 -1.1826562892386019 0.027651186058365283 -2.038268256361638
Ni 1.299584201017257 2.8322850023127044 11.777254502399467 2.267743327271462 -0.216206378825376 2.5890628310881088
P 1.2374711406293397 6.004720469239676 9.626204306743936 0.1900523461378275 1.0844445193528551 0.42357819007825764
P 6.680825448192417 4.90040576833598 0.08929112149951561 0.26126958971260167 0.561979901919329 0.37757961186095623
P 3.7764759282005302 4.285123502230593 5.45369565403926 1.1661935156968886 -1.779992716280354 0.21661724111054953
Ni 6.753846122682232 1.2732016995044095 11.680530422081748 2.4257283605610995 1.6892381740036007 -0.30558872334495113
