# total energy = -340866.036598899 ev
CRYSTAL
PRIMVEC
9.30755817606189 0.00000000000000 0.00000000000000

0.00000000000000 9.30755817606189 0.00000000000000

0.00000000000000 0.00000000000000 13.62255221306661

PRIMCOORD
 96 1
Ni 0.8841714926289314 0.0019387643761735501 9.442757944066114 -1.3499104065349914 1.1919390000921086 -0.4264971634972655
Ni 6.337097548438034 0.15417411729567526 5.907392716061091 0.8335675857284869 1.115094640138544 -0.245814431499796
Ni 6.5424967431254935 7.895564403507048 4.28558699658354 -0.03755044744994823 -1.5087194783878208 -0.6846564897156596
Ni 8.294346735226469 6.594125768543808 11.810943272091054 1.0776136124739506 -0.3450561853119541 -0.27725645205916116
Ni 3.055838898015111 0.4501591223101111 8.502979375637803 -0.5862608859538807 1.1355917316506314 1.3205844038773644
Ni 3.5545006369391348 5.277059743337672 13.327596852635237 0.8428346128527097 -0.028669600020550624 -0.08762988060484263
Ni 0.533571597520827 3.4997349644023843 0.5634283827627353 0.37793108166310396 -0.9996405382325815 -0.37410502304879445
Ni 7.854229537474466 2.20880456266382 6.580878320936473 -1.5411351757143652 0.9693819964583563 2.7451686450771624
Ni 9.142851664775723 7.319165938371782 8.39860348705956 -0.7035646394740721 1.000726829318225 -0.2577541203601754
Ni 6.831291659418883 7.812773673185089 7.715582288792966 0.021101557865305598 -1.3393339165707256 0.05380239053243638
Ni 2.425251828952423 7.4088256466563704 8.869235514419271 1.4989261464464831 0.958684150424878 -0.6524073998739667
Ni 6.3344169716721295 3.9255371376197994 3.171438771044758 0.15942073729489964 -0.09663851186135615 1.3044648726076824
Ni 6.746304345358198 4.386121655886473 10.697668095512833 -0.9917361957838404 -0.06670547174734964 1.642391903074023
Ni 7.522173090598001 5.967997019866078 2.7565366792528683 0.4577008427935795 0.6152603585100243 0.8538451050306005
Ni 7.660250716716747 8.195733155939102 2.0297057352243373 -0.9432405621762981 1.2438721986262902 -0.43208211378421063
Ni 5.192649497886312 0.21865781136465257 7.797630275969371 0.0006744003592052902 -0.6501630839244803 0.7667153039906279
Ni 1.6755000920637622 7.954081022004422 4.904254806596167 1.349158101749999 -1.987883376151183 2.505095486936518
Ni 8.847411151916862 1.1382771394552111 5.065450545809198 1.726225035640595 -1.3305600270328375 -3.34434701042366
Ni 6.697569970544733 1.1368344679318942 3.7873422362675457 -0.23677983210135353 0.4404523401257769 -0.55909486706205
Ni 7.971253466911 4.857447096333195 13.544099964273128 -0.2063955633825413 0.22457223429156806 0.03387531259120618
Ni 7.737680293506894 0.4323128101887709 8.638809226447638 0.6717701206712947 0.36928471884201564 -0.033313526550465204
Ni 1.057394458567318 7.493645424669187 10.647236952836785 -0.7587765087595255 -1.3313997493253136 1.5844497793416001
Ni 5.945891569105578 0.34331114626997905 11.415439993130756 -0.44411024859333836 -3.8707258753099274 4.396509272704042
Ni 4.805724995332733 7.629089011813102 9.707158681033949 -0.05885383691341477 0.529594543610088 0.9728846102949762
P 8.410132759420415 6.954393424369778 0.48088430273347404 1.7765037292904888 -0.8137420663621276 0.06745957630455479
P 8.38118625337193 4.063866067810348 2.4197333776867804 1.2938922392981587 -1.2179400521415604 -1.2859778695470885
P 6.036528571002736 6.176095406435873 6.287325380883603 0.3523923139620512 0.6662479053014848 -0.44109742990894363
P 2.063634577185285 6.432369714326236 3.1496432619728156 0.9230599734633651 3.8287083932275614 -1.1899469093627442
P 1.4432578994843939 1.982696050948102 8.993895364615348 -0.08237248886064523 -0.904730579026558 0.6370661415312061
P 3.1785404379627633 1.6445245383244171 3.618204357629699 1.2462427557409956 -0.4282581120524302 0.894179285873273
P 0.4951472049420595 2.8779714605274656 5.954649050630023 -1.9196424415959135 0.7942217369410128 -0.45314664776399377
P 1.4678577758465 6.102928691308171 6.589038257223517 0.07316485421944818 2.5671680878975467 -2.2134693964192462
Ni 1.4225206597814908 0.37512158798120493 3.6808135094741865 0.8679596900551115 0.41808939904954445 -0.44984895084932847
Ni 8.86005081597276 2.473492903180495 10.20726960677204 -0.2265998062445581 0.016990363910409447 -1.0258213103930076
Ni 4.530211964612074 7.65086869803608 12.98682853126958 -0.7869169757494835 1.0879633311393908 -0.3956534386435315
Ni 1.0520426125937232 1.6196454352158625 11.705668273389247 -0.9238395319418671 -0.13769337292013706 0.2553110581363216
Ni 8.781727713593977 4.938851000481126 9.98148965186131 1.839399340373445 0.46719438410631153 -0.3722062633641848
Ni 1.307200013498292 5.738081716840447 0.6840385143794886 -0.7475754978373835 1.2934086147935209 -0.08655464526279287
Ni 1.391340339761417 0.5965921434384146 6.826206009610235 -1.974323635188877 -1.237679696662333 -0.7492217751915549
Ni 4.371322638324706 8.891491747622853 4.100129245371605 -0.6695420026717244 0.44270565493632785 -0.28885212731656057
Ni 2.1175811845991204 7.675980490100008 12.849404295737525 -0.7862078654976008 1.1944504536600526 0.20250959806457383
Ni 4.294097827815287 3.647548296413964 4.382197589343051 0.26351621965493327 -0.8964415995448883 1.0298777398505683
Ni 3.91216217646492 1.3245306868945241 13.190799015771047 -0.20516143386512412 -0.4226379376521754 0.14668966288147642
Ni 5.284403406769265 8.767952527435854 1.5299894499545599 -0.6390309785670608 1.308529015374727 0.9094480391068852
Ni 4.055796414837989 2.8670816174159772 9.675512983103127 -0.21150820201875833 -0.3997263231613245 -0.3937973592713992
Ni 1.2626726549979836 5.584246394663796 8.365514186849602 -0.09523983174161663 -2.803664584430526 3.5141002399928194
Ni 4.535666193726033 4.494098638738078 6.656728405097544 -0.5895020185989976 0.5797151144155629 -0.3249355033026791
Ni 1.5488242247583275 4.58679261100074 2.6067976134466155 -0.4407295050465636 -2.901036117803165 -0.35039636657794493
Ni 8.25732126864741 6.635172100271725 5.7065821475736005 0.17033661287645502 0.22506922853264466 0.30231185236589225
Ni 6.783394964844764 8.189981084962264 13.481232062310266 0.44448562965488614 -0.4306029581355229 -1.8984102716900144
Ni 1.338910864336618 5.437121821960122 12.044611382588952 0.42804908136541764 0.6374631198593086 -1.1003429357506662
Ni 3.2227606470419783 7.125121964706558 1.1461485414375923 0.3022290628440989 0.272209376553557 3.2224993462865275
Ni 2.0729793656330924 3.119046525852819 4.641176673650677 -0.4468057931476305 0.2713681115991842 -0.2565899248487452
Ni 2.690991923547387 3.182142462991948 12.055836297796176 0.6634903971610057 0.6203089766775253 0.8789128466325057
Ni 3.67924053213586 1.249148772911665 6.111267332712943 0.7112900331427879 0.44756812523495176 -1.3639324318456962
Ni 0.8060652563565569 2.2521312461544003 2.5568709404258154 -0.6302113233929018 0.7044892081708707 -0.6276530757474224
P 4.962678349511392 6.475752243166107 3.4379783848903864 0.8285840164709665 0.7172328809897842 -0.5094144691177872
P 5.818052257023275 4.640432068993482 13.081845670062695 -0.47596827364419964 -0.002293938240499275 -0.7146399234516273
P 7.517882306260911 3.472780275811896 8.687946618531809 -0.4537128046801089 -0.6981231567435268 0.1434719272751271
P 8.713093779316955 0.6107172937854187 2.8736909145044116 -0.6939505134230759 0.13002042975591158 -0.6655074275910344
P 6.084108808597548 2.867947220329967 5.3712494402054745 0.22112207095943853 -0.12943447534545452 -0.6767781154088472
P 4.791912578941751 0.7410417239111127 9.853410204777061 -2.6263726232821605 -0.20853112166830534 -2.031260971805869
P 2.922163746932036 3.4952207986681345 0.7832570849508284 -0.3997065256669826 -0.47062603549567983 -0.013633274512718455
P 8.029621164476936 0.474160522678996 10.992745613601311 1.8199582009296977 0.20545505384614296 -0.6042403532504368
Ni 4.464342375124891 7.01424102369189 7.481164919858764 -0.006355509904382602 -0.539050289706349 0.26580141614468417
Ni 4.259697092652842 4.97704921939527 11.00195451169918 0.18208089789657672 -0.19558458880996638 -0.5427657908847233
Ni 8.350005933351856 4.036092314096945 4.687438961002252 0.47763383427208056 -0.15590835326626698 -0.3312429335779457
Ni 8.329417614580391 1.206669077218645 0.548010412579675 0.823726174158033 -0.7132535846270619 1.966391010605362
Ni 4.939334993508304 2.153266362795229 2.33235774418814 -0.5087804350782141 -0.2645207496600477 0.028451827582789708
Ni 6.69024492222957 3.0408351141726158 1.0671543641115118 0.31664369560753214 -0.20015652445136498 -1.0860234338042005
Ni 9.122691493682145 8.657080893979401 12.66867385334296 0.19279905564502922 0.3942359894707146 -0.3961059527999178
Ni 1.2345917518634872 5.434692549266021 4.775304172062999 -1.1479911337562487 -1.2546854871917101 -0.581538797887863
Ni 6.492347619463358 1.9243283533821667 10.105591048564492 1.18876703012203 3.0752119019200523 -3.1056501638052514
Ni 3.6710591884649215 6.622020520514004 5.185764697074717 0.0818019610691559 -0.7068042294572924 -0.00373298467987099
Ni 7.318281720341362 4.539612598409171 6.813782280904924 -0.05733277228319803 0.01395749062135661 -0.107355384058228
Ni 1.7545305688668809 3.847093036984222 9.815702494180846 0.4620112972434753 0.452455278123924 1.049597843987315
Ni 0.8881988730685392 8.05280629199037 1.4723254037896745 0.021398777390750245 0.3884132121413504 0.08180504639294944
Ni 6.0756761608548056 6.767786189718296 11.638427680577003 -0.3362792104502724 -1.2338240703616687 -1.215381804496081
Ni 5.739077625569447 5.035463454752281 8.699675072638465 0.6458919673529522 0.841473213728809 -0.018065856362775336
Ni 3.2576546827898163 0.6543455421621635 1.7651560773250647 -2.1501058445609353 -1.1333137342497321 -0.7792854273461547
Ni 2.828213254310357 0.3271662557903312 11.036651227212861 1.3425997318061909 -0.8253295140894107 -0.0785356316130583
Ni 5.272945802606665 2.7964186354480964 11.913916511646303 -1.2643872878605062 0.9710074478769214 0.7724918014630889
Ni 5.717251401555395 6.529466161624568 1.3384883011936595 -0.4470263937988688 -1.4129188890467277 -0.39651835774698807
Ni 4.177930193734529 4.66012686217631 2.3954853270251992 -0.5605318566188927 0.7638058436533168 -1.7322920677702809
Ni 2.0580593498145316 2.7546090839465522 7.179534880786964 2.761205386825051 2.1764000023707744 0.9993284063088017
Ni 5.567297331154377 2.6004386896741636 7.504105258591145 0.2994990655074455 -0.5555302896392432 0.7979758046668063
Ni 7.504209503243152 2.379216646021293 12.38453457766869 1.1256436192989838 0.49616686007926164 -0.7498928331166504
Ni 9.075585941556298 7.932887711948987 3.7606965586097942 -0.5064047357571859 -0.5561180438219132 0.7100715873546545
P 0.1413780862617655 3.7670387287774596 12.000283205834442 -0.9920107896014657 -1.053288919685657 -0.7163533065983082
P 7.392006888961961 6.556765229869009 9.608381288721999 -0.8582334639062833 0.5261608353381907 0.5317524704933552
P 8.4547066557118 9.097114323707471 6.561929063166662 -0.3353687828208611 -2.078565670429104 1.7074225582221112
P 3.164746636688211 8.525378945237895 6.71751234477608 -0.12193071076924164 -0.191696823719786 -1.4161026860913484
P 1.2334748448776935 0.8146654401471685 13.599353352860343 0.983091632734965 -0.9100303939729165 1.799872485923416
P 3.0573560300041476 6.748240317466907 11.235703597953549 0.8701137602836369 0.7518607554762987 -0.6765927388709186
P 6.107601085532075 0.8503292109593824 13.555406785992647 -0.6504042534010088 2.239587947883169 1.3149845411920837
P 3.6029650925643657 5.001611865524517 8.832127210572096 -1.1911309023685164 -0.14253013218714808 -0.6178484309521746
