# total energy = -340882.22543770564 ev
CRYSTAL
PRIMVEC
9.17099252441826 0.00000000000000 0.00000000000000

0.00000000000000 9.17099252441826 0.00000000000000

0.00000000000000 0.00000000000000 13.42267457761480

PRIMCOORD
 96 1
Ni 9.334327768978074 7.62899090422561 12.122768923604733 -1.1586974644301593 -0.4233966701950708 -2.4827657130910663
Ni 4.85455477208449 5.526357477953907 11.103437880642945 -0.26147990595119486 0.25072472431721987 1.662750155015401
Ni 1.9252664333633653 2.5984998140463134 7.885753929590275 1.3728168788195194 0.2826282578940359 0.05952540905914265
Ni 2.4952252686926006 2.8767752362706003 12.708776078524986 0.5073694136633004 -1.3938988963007994 0.0017362659648163647
Ni 3.6501008279463925 6.685020657066599 7.621125861148144 -1.8894461205181912 -0.2860033450138558 1.8356257322636256
Ni 8.04678463374641 5.689124250970307 6.184940198286748 -0.5496769161822599 -0.9679061832437782 -0.5048404765938596
Ni 5.597047487330198 5.827569552156671 7.125037535357589 1.467824539945672 -1.4570917269092003 -1.8629005088191788
Ni 3.22758403734246 7.007839589350648 12.574159666663297 0.5667387567605531 -1.1478373817872038 -0.6969322217592191
Ni 1.2657987122644614 8.62240197138301 9.091714667778778 0.8688330937990005 -0.9063637437546068 0.4063564268833324
Ni 5.148549275272836 0.7564573853647111 1.7336990758314865 1.7534188224465674 -0.002822042829827398 -0.6717973743648044
Ni 3.1118461133247126 0.9985193099210998 6.2018799383385055 -1.2856742222637407 0.2660035048531612 -0.6080214175594237
Ni 3.8315213994930706 4.652985530247243 0.15740907925957284 0.26725511787207523 0.7160159778635475 0.2782584109611143
Ni 0.7438160894482244 0.569459016243739 7.099426621996895 -0.26241295928842545 0.38496459147111767 -0.34404754154178163
Ni 8.658242209660456 4.863817474402868 1.7064107879618504 -0.31524398704652806 0.021860804628833316 -0.6748256196681669
Ni 5.774588729094031 1.0253352916824225 5.986660591421383 -0.2739458996286895 -1.1771713548646308 0.5058843444773417
Ni 1.712251793017865 8.41532096311671 0.3237268605310981 -0.8074734597445964 0.4486145642215952 1.333427835498936
Ni 6.398161185961123 1.958795581557413 3.638256491268982 -0.7407821290646338 -0.5510881947074896 1.5894482609974563
Ni 4.257422286290549 3.1085078720931385 7.1769701139895465 0.45631141864522057 0.5171905135187802 0.48695691144521935
Ni 3.950148186115064 0.49853881495834745 3.6173035249454206 -0.801044159179485 0.7605587974709288 2.1325680927874884
Ni 7.576743760554524 5.585739653707861 12.538133257240245 -0.5049302080941884 0.8338164685144995 1.2019318496387623
Ni 6.185605095235345 3.8915272027298466 0.44491693952733585 -0.5103881458849662 0.32312673222871446 -0.05533605356814342
Ni 1.0291320825337178 5.068862522357605 12.935444492347319 -1.2459691903646348 -0.32807533448324144 -0.3004431745882697
Ni 5.538976763488647 7.953854967813618 3.400755301230345 0.8741969292140751 -0.0014799269796361607 0.2597359266768946
Ni 6.281772121483371 1.474668064047678 13.112812402354896 0.7416979560106839 1.3453754947791152 -0.7060940907641453
P 5.088479275089298 6.538119700892568 9.186196065624708 0.5958495580835803 -0.6358350973375824 0.6583494763900145
P 2.6423279866993092 4.807186596367242 11.615552515642772 1.0962762218804605 0.26513138666085306 -1.6106817164549356
P 0.7192864360908339 2.0168479634141754 0.494048697082033 0.09558153135175151 -1.0198026150027533 2.048586093347878
P 7.0368657802790295 3.815187862038585 7.684199361340859 0.10020694593890483 -0.16687307980788682 -1.9420784020019262
P 4.2966833047311175 2.2652167794402156 0.41605215806509677 0.607109961488748 0.9641053214404494 -0.4541138967732695
P 2.032466163461895 8.44708010977863 11.341220620148091 1.056537765640258 -0.6981110725586687 -0.6735079292980078
P 3.1948894494563054 4.981206177051613 2.5105765928616424 -0.7192771651133225 0.05134467302056319 1.1873236128072842
P 7.331676501790479 0.1692231516620817 11.602022550563264 0.4638511786656914 -0.07747608000029238 1.6210905704930854
Ni 8.446383114356653 3.1142947682940263 12.924612633230252 -0.48867337991569393 0.8751094137260154 -0.7115648840707295
Ni 2.006594793917199 6.252113132079773 1.2552575736063 0.12315198477085243 0.5502019354477944 1.142093537324891
Ni 4.622436954581386 3.419954773808091 2.83357986209282 -0.7648484259852182 -1.2257364082575277 -0.31662929742982887
Ni 0.5826790017803144 3.9798163465110554 6.326589844215726 0.2824757914765716 -1.0890300818410084 -0.07431902242854942
Ni 1.8718637446505806 3.479914722082895 1.5641714472219095 -0.55386421479073 0.46097771377263835 0.4591578869550802
Ni 7.602972798802603 2.4031943600144636 1.7917927271540235 1.275275652638236 -0.16276728516962938 -1.3347588956055334
Ni 1.3031796772641713 9.098403989631278 4.622125140839975 0.616315796357732 -1.1468315662305089 0.11951387379763287
Ni 2.826334778101218 1.1109006507224843 1.512641475156068 -1.7377885721084783 0.4504721862556242 0.25787161977464623
Ni 2.5533235055113352 1.2436415946395107 10.461753630896085 0.990073720479753 0.18421877017518595 -0.450081892795741
Ni 1.0457774337296142 3.2050784220065207 10.936767933263472 -0.47213732993388363 0.8806665960988188 -0.6481537668039353
Ni 6.751436983987084 7.997820705352531 5.500961165815242 0.31862421637267063 -1.4643597213255233 0.6752693920738048
Ni 6.3927044454864355 1.7148288418807007 8.622753220391717 0.1764956904993154 0.6081687417705655 -1.4887427781555778
Ni 8.33785359036093 4.847960828552893 10.437525703188472 0.2823480076494556 0.21806811462446316 0.7718230575308385
Ni 3.720497365566062 4.4925298473142385 5.086012278135195 -0.4710412686562275 0.9438663686857551 0.2571527393307507
Ni 3.5005494549703697 4.674078812754439 9.159230596687356 -0.2485565130213074 -0.2153275757648485 0.0024703159173634875
Ni 8.072701858253078 9.79663749558145 4.801532679556074 0.9704657164408382 -1.2780532153833732 -1.4750606526827952
Ni 0.7212646191503131 0.9163435496700203 12.11941325748761 -0.8182137289802361 0.2328380738447861 -0.7818806988771566
Ni 6.8229340406940855 7.26194027562321 1.4119852481309663 1.0794126133559023 0.50890821890533 -0.46844702556649004
Ni 7.766005530598442 5.854137917123344 3.796844960150479 -0.9426114132327315 0.14665161055468937 -0.1186049888301183
Ni 8.389843946244973 9.140333766858626 0.6222179012904343 -0.2175873183333027 0.8723002264119945 -0.5646561631999114
Ni 3.592167668990758 9.230237005301255 8.323373510469361 0.447006596304527 0.04205810551231467 0.1809141312819852
Ni 4.2634934832556635 8.148775240164902 5.879990027584012 0.6142113484202196 1.45574755417648 0.24848606479468818
Ni 2.444152012048002 2.8100287536239152 3.844414897700404 -0.4686938514699734 -0.807270599705171 0.9656340993801498
Ni 7.935888993712924 2.272599428317734 10.451954425522635 -0.5702940782119792 -0.453485004940019 1.2096544150940005
P 6.606131780489685 4.136823736303752 2.7521717139051547 2.270771829685141 0.17695591796518556 0.7465820235758627
P 4.253744718340381 2.0556871162046 9.110801337150074 -0.8280813658029351 -1.1018079503319669 -2.2396339706297557
P 8.966809419763557 7.411592529515571 4.977221380856231 -1.2122993089160155 0.0055019036548356855 -0.6160643424685583
P 5.477879612156932 6.345803990381303 13.3799230584382 -0.5030103653636563 -0.37437781709420687 -0.5705393614535658
P -0.06790844738305964 6.928941541781339 0.6383230810342985 -0.759241621321402 -1.6873301583476101 0.44365490622347464
P 2.300167431455401 7.948068071612731 6.746142570077778 -2.2688033931048603 2.2180439031638057 -0.5287234538590442
P 2.347847420914059 8.440807150980838 2.7276750761203843 -0.3005704441947534 -0.08780291584759718 -0.775716993268606
P 5.068495682661828 6.453177969335328 5.037918676919548 2.80917857227022 -1.7426780389902954 0.5652580584499685
Ni 7.425128914289754 5.7817237611769 8.468741076715043 0.8368524271273459 1.2990925525521757 1.0820220259542914
Ni 6.072600126951138 8.235991377835962 8.096893101991114 -0.5310099359003758 -0.06288198423620138 0.08681509801303114
Ni -0.27722259229740615 7.74866318398057 2.609555445377802 0.9135499770904009 0.7813441096473962 1.387408146370133
Ni 1.1683294050964252 5.226218409861291 3.4344733718677185 0.7352491150615467 0.05193551252702668 -0.18331194209020044
Ni 3.386196350804182 6.794889145951909 4.001661650394595 -2.7765307043282115 -0.11190443688149115 -2.100695155338292
Ni 1.3470995598411117 6.072132406339022 5.60434209468073 1.1984955702637037 1.0320978874303386 1.038621033260837
Ni 5.200567144134061 5.753678866434723 2.157198079720863 -0.03366499635261299 -0.6810137507567497 0.2188859825400682
Ni 8.187852838757582 9.16365560051767 9.63509138165275 -0.4233761013697805 0.055306228771472496 -0.8670348642479971
Ni 6.038447351274269 3.7656003061618843 5.1805615413248445 0.84447831910372 1.3951283978325264 0.39399893375924405
Ni 4.445381775414457 3.017247326776134 10.830044177670214 -0.9000632554578757 1.197306692161925 3.863903967292087
Ni 4.1162623713554325 7.7347416175258195 1.3947364456355165 -0.5823255554552165 0.524316068819968 -0.13327981723347368
Ni 5.580695607890923 0.957203989184178 10.660476196694102 -0.4618534315093723 -0.9141418450381289 0.5199361945847174
Ni 8.763424321432211 3.602585916350834 4.188988341043288 -0.7117793140743807 -0.6395567691635436 -0.7667950081886278
Ni 8.665340557773748 7.672672341000296 7.248109501993165 -0.10799995962076239 0.4901057414868462 0.6286336944931368
Ni 7.760172779435583 2.344490837697696 6.170457367097459 0.7425898716973339 1.760043783962253 1.5213489942263736
Ni 5.478934276282292 8.494090616792496 12.785419896163743 0.6941813984869594 -1.449581277464768 -0.45752060846197334
Ni 0.5340965866700439 1.5416346505118292 2.916210503566663 0.0025690462787568663 -0.1286484891090494 -0.9016390845854277
Ni 3.432152193692687 0.3494872610678216 12.641689352060467 0.6840931610130219 1.228282314607833 -0.1734085669335594
Ni 4.19106098532443 8.131524603470973 10.432491745463167 -0.6846737161068402 -0.21413689789085702 0.3247547547504407
Ni 8.979648809115762 3.454456047195949 8.65747734889476 -0.41943819976795504 0.4616881095761016 -0.7451049248097038
Ni 6.650326792838459 7.326614113988753 10.570771968786433 0.22388626396813702 0.1949670098306255 0.5355607884958519
Ni 1.9307140028456584 6.372693340081781 9.936496963795037 0.19286564721690655 0.6763065750890676 2.293767519249366
Ni 0.8020326320688469 5.558309215456112 8.140301243192445 -0.42842934752297185 0.4894390544371249 -0.3793639574548886
Ni 5.911896827223485 4.102028991159273 9.433455191571023 0.491898828831527 0.10066125986750407 0.031836942004938716
P 7.499037941996491 0.4581305053692352 7.222606806342725 1.0455337012202703 -1.1529592763948013 -0.12510833716627487
P 2.621564859918313 4.795924617706879 7.148379545199901 -0.31266388502417763 -1.2532302428024225 -0.7149093750629301
P 7.210142510579451 0.2641429229444655 2.4968457830486974 0.1909694586354582 -0.6354355479063185 0.2155047247726611
P 0.8076516991089162 1.9371978944685229 5.403002127653343 0.1785291759895764 1.4460249275720773 -1.0978623354206576
P -0.46241060751971724 7.035260856610004 9.888108056624288 1.3539940896860616 -1.2500513308538084 -0.9462739496859833
P 0.7331621475836113 1.6280529118445737 9.37836870865462 -1.085642396315698 -0.6243402093241054 0.19606641354239135
P 4.4053870775823345 2.299626342904129 5.135756657981841 -1.1077469415242212 1.4486803629170535 -2.605451042638145
P 6.624391226347001 3.6510729531402024 11.686572680745263 0.042536587810629974 0.3010301574399913 -0.704434186563219
