# total energy = -381180.15099350264 ev
CRYSTAL
PRIMVEC
9.07718042735650 0.00000000000000 0.00000000000000

0.00000000000000 9.07718042735650 0.00000000000000

0.00000000000000 0.00000000000000 13.28537109090270

PRIMCOORD
 96 1
Ni 4.604027587474666 2.2002812945375503 8.608654460636721 0.2695164031024262 1.2981808393711838 -1.1025124325981595
Ni 1.0180511664288707 5.573270754956649 0.5309723899568162 -0.19789292522816887 -0.8769824623790121 -1.4207844078377336
Ni 0.10202569212631822 2.4422516921434925 11.109731728003421 0.34283320951870633 -0.9273778841124286 0.005392117549848778
Ni 4.97561104384248 4.281315670316453 7.380183360194913 -0.4336821112814789 0.7204472741620238 -2.117981196112249
Ni 6.538873973103001 5.13064020769107 3.7758483418141586 0.39258251302769165 0.822802633902499 -2.937940704138998
Ni 3.0744319202736574 0.5190912685468144 8.072603388252755 1.425117487995449 -1.9913163130921319 -0.03459650702794687
Ni 1.2764784920784622 1.1970350093216928 6.862027041228074 -0.5456276858135507 1.6301465100477666 -0.7520067941358597
Ni 5.404471508459291 3.0644833305682853 2.108548217253314 -0.6506608494965053 0.7719451849309996 1.8404275245276434
Ni 4.606124416144319 7.526707206019841 1.5994391239793082 0.20280861736223135 0.538282558302389 -1.23387909196932
Ni 3.9339773627652903 3.252961904147074 0.1616727521746509 0.5219591385520171 -1.0757027686044829 -1.2148333881917788
Ni 6.101834968956498 6.375448417395404 7.774479737329865 1.982800562311637 -0.6414156767491535 0.3953600757728288
Ni 3.441431400545475 2.7938381201162925 6.217008956875 0.20844267571955716 -1.7794478995204774 -0.2828311179334613
Ni 0.7530637625127894 4.087899110606531 7.266539784889848 0.3058435196682346 0.784960623354061 -1.5493025420165059
Ni 8.780138737092884 -0.024368598469929528 5.462333087125281 -0.38929304364314243 0.6903226868625014 0.4753082714626976
Ni 3.284396179831111 5.703918612282767 0.25695773014475604 0.9513611344009036 1.302434729551531 -1.0193485581844701
Ni 6.899927900220604 5.894466782990046 11.053256234782696 0.43084207072952246 -0.11575106432109096 0.06602875739529919
Ni 3.2917033100435424 0.09504624812589775 0.6275254500271408 -1.8453285613736865 -0.05744152994692043 1.0779131459922404
Ni 2.6988998904370134 2.4052440277011535 3.2173848033339016 -0.07557037833714728 -0.4018675378740434 -0.6128044407703639
Ni 2.758355421979157 5.707603947520341 11.190281719049501 -2.170298774569043 0.9816929526152254 -1.2572013116350282
Ni 5.321306381743395 4.468959143299537 9.58811853323572 0.8451784304945379 0.3730195032940995 -1.3078803260471348
Ni 8.724441158231418 2.3296674237897204 8.419151981110153 -0.5579617818988714 0.3502896657967516 0.8951030832391229
Ni 1.8003951897195978 1.5851933970782028 9.601829614211965 -0.32243767658148986 0.8669150508406811 0.6547422186547305
Ni 2.685311351396008 6.96268752542402 4.705001234394 0.9997192139893171 1.712556794124883 0.032570477736853586
Ni 2.689087458437463 1.441583326157859 11.922624094172306 -0.7967301051851634 -0.02720895631462411 0.6097509986560209
P 2.485586151316346 3.037578567897917 8.077545005256043 0.11677770581339242 0.23788129269564834 1.0349824080669852
Ni 2.9570367463141856 5.118485863151386 6.028037492401136 -0.30260932900165305 -0.11970747786567772 0.9673156008476307
P 0.5744148675762886 6.008766638437171 5.51377437610276 0.33661422519218803 -0.3168581256111833 0.05833293141293825
Ni 7.2929425794847536 1.9496512668413484 1.396637667466115 0.765743684105978 -0.6057081960452149 0.23281621946791517
P 5.604024242111578 6.790538799363447 12.90364218005375 0.43093360200206426 0.4828205206793426 -0.2505974547107362
P 8.079625495000998 -0.02337373949939229 2.305104573659485 -0.503265933017888 -0.18172659988095155 0.14789885269822917
P 2.177488494582997 1.0573644346897904 4.90849255661669 0.4237044312434768 -0.589574523708146 -0.4464880047968955
Ni 8.894011965061768 5.918911629775236 2.5759540206702103 -0.8510675422854633 -0.9433884006080719 0.09752811355516106
Ni 4.624006461508904 1.5417046258387508 4.429488839817902 -0.05062964923140958 0.5264333722732869 -0.834003387714325
Ni 1.917073266428409 5.054037882395781 3.7894532197798636 -0.7952928585180045 -0.2736682204872707 0.7247669845833002
Ni 7.248763942535805 4.94125391607347 6.223199593899693 0.9690297553252603 -0.813343031151496 0.35673850674588886
Ni 5.216592028786117 0.8685745138236891 2.0903466551390686 -0.5271247419133567 -1.7352403517653279 0.02730383002127556
Ni 5.434489744002781 8.840284134344524 8.62850262327337 -0.6626984973873296 -1.4166109931863344 -1.7326350529319965
Ni 6.818133427743312 7.181347723793286 2.3708542220827464 0.57822567435423 0.1481186820185191 -0.32883355280550464
Ni 3.6877769990984874 7.869270916686856 11.815384469631054 1.4408829783598218 0.3139252682351045 1.5037485075357908
Ni 4.179896333840062 7.031946411785326 7.348789931822622 -3.148415579797236 0.7599995825333492 -0.13618413536446225
Ni 5.43175751270596 8.032315230818151 4.023620873124183 -0.7577182426983402 0.6583924138128081 0.3914797668818161
Ni 6.848678139749314 8.821948229960535 0.4634908155155027 0.6203832815588863 -1.9857629873740703 0.143411763461153
Ni 7.736952858169326 5.8618252423143895 0.3038949222136522 -1.1960625353421788 -0.8708246703077326 -0.3793444170708628
Ni 5.921525857727012 1.7275145083834345 6.498619401235834 -0.6486697872084055 0.47541728623673607 0.03045343139385078
Ni 5.445926991291805 5.0620167239569325 1.0641341958232453 0.02678189607953452 1.817317163762425 0.6289100880829749
Ni 3.978936637227616 8.859927152704401 5.87014084726794 -0.4993874238990883 0.3769350362984218 -0.09020098376612852
Ni 4.285146240440238 0.8575602631407521 10.354192618398793 -0.24275584717913035 -0.8803004710086517 1.365657384956603
Ni 7.135780278244956 3.510381662773585 10.517125283211314 1.4793405110050717 0.10568802365813411 -0.26086464096469913
Ni 2.096374810634815 6.862439145217694 2.1480584603286554 0.903896770271353 0.7160599437276055 0.1785338039752667
Ni 0.6894762984579766 8.782054022154774 8.585140024841312 -1.5436337737665027 -0.5967378742258046 1.017366494757435
Ni 7.234086141848226 1.5011205523234954 12.27768889766983 0.7798430996218376 0.1402215386586295 -1.4977071864377174
Ni 7.594087116040808 7.011132437155382 4.74566700253275 -1.2810318383957229 -0.02464196691839627 1.0964160898924344
Ni 8.825515561853063 3.3909350460463994 13.417958851716417 0.5829295075878026 -0.011958457913456825 -0.9817649435037415
Ni 3.2286078291657656 5.270592174915004 8.848987334900647 -0.8175110464862565 -0.36548539970058347 -0.6907101521089072
Ni -0.00046565935391022306 7.617923791739993 0.9889188636912593 0.04706687158081572 1.27622310415317 -0.556191577372326
Ni 8.452552374066254 7.016615054109802 7.093152931424337 0.4790294290680266 -0.0891476028009497 -0.17464192512002827
P 5.394187063079557 2.5910176015242845 11.432699621648576 -0.8185747118640806 -0.5016867614562264 0.1682589044118199
Ni 5.261660229413101 5.968845199090248 5.309152944921749 -1.2853924293572636 0.6022024968848017 2.4766765694741926
P 6.726236053494051 3.2525261994884445 7.967808248390023 1.0435549802273447 -0.04378305862322137 0.46973309136776525
Ni 0.4761226197436015 7.65330664089286 3.9230103134203715 2.1435194495926697 0.4597559255503953 -1.5566206729444738
P 8.38939335292576 0.2746101228455204 10.450631305996227 1.1287631387645722 -0.3090473713175129 0.44056855398866707
P 1.8942713892934677 7.678214423877844 13.043576900634948 -0.7472152862844873 -0.5647541222303564 -0.012785581800442496
P 2.084774174098806 2.0551553344923916 0.7320500899143066 -0.40429954435430365 0.9357751070371885 0.3817126601927232
Ni 0.7488047494746866 3.725084210493634 2.1744431005627853 0.7011454885096183 -1.280256393682279 -0.10945417556878569
Ni 4.773643780206954 5.094131788170078 11.60272610293441 0.9776776608082453 -0.7651507877169854 3.1218283162270106
Ni 1.7958747538863173 7.901549370146988 6.6953219002462525 -0.08765430608487484 -0.8488425096096864 -0.21126317588748778
Ni 1.2210532286286413 0.26598498604073495 2.0352790325965397 0.13144944889295426 0.15497272882587504 -1.2286199004529097
Ni 3.105720961071485 4.318159945511806 1.995489212365244 0.5147456515227136 0.04638784323592011 0.0784746964681358
Ni 6.925244156323052 0.9251099164349765 3.9313141180394178 -0.09372493775898696 -0.5849928178747344 0.7007060869793545
Ni 3.5082848341039305 3.3419818122133034 10.542831858070452 -0.4323685346763779 -0.8077616804089767 -0.16960693379928207
Ni 1.889424174966215 3.812088984513702 12.209787049776548 -1.0016966494306618 -0.11355405666977218 0.5021780992703481
Ni 3.0127706338972025 8.939152783131854 3.131640849669743 2.006282704593977 -0.3014466761521195 2.01446318352224
Ni 0.35461729850439166 0.8631309287449375 13.160554524296565 0.030300964976386527 -0.005062245014255797 -0.49443367943823885
Ni 6.619987657051182 3.699758877210797 12.890928681202158 -1.0225722073280905 0.13975514054517219 -0.061572264285842344
Ni 8.591805398400304 4.096368119908641 4.145115301746927 -0.5083099231996988 1.01116653659431 0.10858205737647753
Ni 7.444930887903327 7.511884170446051 9.190234854411386 1.0244059181027194 0.8278566513866387 1.3750100298160965
Ni 6.505333791568921 3.1695698479214753 4.649507892091269 -1.6821527279117288 -1.4254705004594936 0.4681192099134261
Ni 6.661506680146414 1.2879338937282616 9.677622255016635 0.6264330872973921 1.224493279879046 0.23297845607739232
Ni 8.259135814356332 5.062806438650698 8.748536533571666 -2.166479915043585 -0.7634307197020852 -0.41443714700893786
Ni 1.1917248587946463 3.987514572694384 9.61701482928324 0.43460282332353534 0.1820878398751122 0.9426214405350606
Ni 1.2340335965836433 3.116404802388294 5.033441760095151 2.5076660758771716 -0.48863352781669395 0.4461681595636316
Ni 8.49182933360562 7.45588704463178 11.803560534457498 0.957400655726764 1.2805554129799364 -0.012407886746049599
Ni 4.741165628778284 6.832257520427217 10.037337298026992 0.4611394361614832 0.8432197641062703 -1.5827001436403452
Ni 8.393587010265069 2.4344362398293264 5.872160519904296 -1.6034672009843676 -0.9420455134269323 1.051843188378066
Ni 7.627400368065184 0.44430165617503076 7.468556973017508 0.4989415946109214 -0.9250839458719293 0.4777770447181643
Ni 5.088930563807689 0.8190258169571327 12.876102014756214 -0.7198335518374247 1.415404117362427 -1.1193945530654787
Ni 6.248386046322592 8.512398224365086 11.186694417360119 -0.2113207685983006 -1.010088473038783 0.34176080239013396
Ni 0.7083595568193692 6.319324211055699 9.811804766385885 0.1814437785332101 1.097361227414523 0.2897049622351591
P 2.440908269446051 7.338201400899888 8.848229390338238 0.5670956258793395 0.6052001460605447 -0.03399126934378017
Ni 1.7398322421701045 8.468401131023901 10.770011897952001 -0.539144134971736 0.0031303180988655767 0.10912738835698625
P 9.008021350736472 5.06323306612894 11.608624454750606 0.08706809456410167 -0.5267426759835896 0.3149717072217479
Ni 9.126197162209323 1.5953326075717256 3.34916276961834 0.07298744810131946 1.4323276325906427 1.7013982064049022
P 7.501935580740679 4.041877806038795 2.0410185337559437 0.08636566918043835 0.7317521576518817 -0.4635845552678661
P 4.1580929465478125 3.9670001450172467 4.481182474410169 0.481873583385041 0.45699790318928396 -0.851552966562314
P 6.156270819744016 8.649082406649299 6.108109116040763 0.4217149116172737 -0.900597787805107 -0.44585937007396115
Ni 4.329569961259665 6.034636602543295 3.210556040527924 -0.8092022695102451 -1.5062028826135543 -0.2985644695083181
