# total energy = -340863.72890810197 ev
CRYSTAL
PRIMVEC
9.33825354459970 0.00000000000000 0.00000000000000
0.00000000000000 9.33825354459970 0.00000000000000
0.00000000000000 0.00000000000000 13.66747798765742
PRIMCOORD
 96 1
Ni 3.945720337141264 3.6750323780641887 1.3770805183715258 1.1254561858785261 0.8297243007229967 -1.6384869115926621
Ni 3.5882239719655757 2.559970184064279 12.23352692366756 -1.1419310436050978 -1.3304142454835926 0.3390968824047257
Ni 8.627500504909127 5.761142217994646 4.712559985683272 1.2377596579706491 0.43305064834506707 0.5748503301240938
Ni 2.834356091593919 6.077989164953115 4.9219731256664065 -0.7087605818527148 1.2862360083044817 0.21478661565971394
Ni 7.5948670760374934 5.303315655408943 8.91536431395793 0.2274557264869502 1.2111428267140691 -0.8900338962463317
Ni 4.306793253471833 0.38086347732936265 2.61246984618631 -0.9942633330810683 0.1679827679322978 0.7311345786725408
Ni 1.2351427979179461 4.407926540697304 5.734914798742433 -1.1950328085260837 0.4691857035047275 0.18510862897930702
Ni 4.938171260479085 6.478460173509378 1.1111672083949478 -0.3747058898575869 -0.6190244535381468 -0.004871212049372256
Ni 5.293874680950498 2.986952494784263 3.1635706217104147 0.15264279514111778 -1.560721582486725 -0.16343474355029916
Ni 7.466008513671447 1.58868908179203 10.655466642200556 -1.2196459790890737 -0.5999360694481279 0.43988361210650045
Ni 2.1003600150279698 8.68185847951111 3.3356849088924436 0.5680675028743055 -0.5066914137596693 0.8775655885759919
Ni 8.486913095935954 3.6111587229744178 11.6637711187907 -0.3050184526637779 0.7347312948848637 0.7112203562471171
Ni 9.38858685536622 6.782747169284259 9.634861817878795 -0.5534497529611307 2.9533315847727715 -0.4711394847969886
Ni 6.983874476787693 5.234511402382417 2.749965359369977 0.45075449338273343 1.072493774748882 -0.7591089523982798
Ni 7.412556349675271 7.939850181297933 9.690747530780877 -1.322756986048651 0.18812273321528247 0.451531480758074
Ni 0.7332471486217687 4.99834696711629 10.154061251221954 0.3208201955827249 -2.60712765900962 -0.07943911726393416
Ni 4.595550733396672 5.222922629580311 3.2046822834842033 -0.2851391972413476 1.3924770762526082 0.08388969683612003
Ni 1.4236447864621158 8.243735632165087 10.884985042331099 0.3716943567247728 -1.1651059390596643 0.029499809231329843
Ni 8.07649684722317 9.346191183713069 0.36467468077035287 0.2574900680655114 0.20044243112289997 1.0285474510749189
Ni 3.5566886893284186 8.398872040353153 0.38332877629773976 0.6946279991060746 0.8881716462266123 0.40241184041328765
Ni 5.409902482776581 3.4143550269193117 13.056459594343082 2.070861874026943 -0.968353812304158 1.0237261184268756
Ni 2.2865461166624517 6.556481282906312 0.9538297738173124 0.33510010254050676 0.5516350683498951 -0.02819831681108692
Ni 0.37514473078302113 6.281217579531871 2.5061510266989457 0.40023745846978814 -0.48025250284185034 0.251374956306709
Ni 5.21988769713818 2.718748511182901 10.497948979327125 -1.2280593999637495 -0.07526853082601231 0.03497548763392041
P 7.276992921175533 0.681676642739713 3.9626393851371193 -0.943632398298078 0.19494849788786425 -0.8392327544340642
P 4.049935248077206 8.284104902772263 10.427370458103663 0.7254835510343506 -1.4352327220525798 -1.093461892360117
P 0.43365075766437117 8.42049943584846 2.0097210572747044 -1.7420002961969807 0.0587911019962794 0.055221896587782315
P 0.7069114056270066 2.767998461028435 13.555418362860642 -0.4942053654775166 0.20330972536836597 -0.5607277746797826
P 0.11275287626468172 4.874447017448003 7.731241064955621 -0.03243009550424737 -0.04450579572185883 0.3399885409810596
P 8.837069593728518 2.5166313487906486 5.041851089479845 1.0888231080365247 0.05147322817862748 0.764998064189205
P 9.177374233901244 5.993552675286198 12.301099461035264 -0.31783848724658165 -0.48746059055451524 -0.41296776155226295
P 9.132111718371988 0.06491113507229646 10.728314359065367 -3.1734923202602054 0.1692102125814957 -1.978652087360902
Ni 3.0617425684120376 0.11089736526083122 11.82745296291044 1.175686028568356 1.0878530308137717 1.5613918690808724
Ni 1.2544823212645715 1.016254131937795 1.193846238721529 0.18064108012625663 0.7561946069649622 -0.27110045976009445
Ni 2.4837513576252856 8.443508892886648 8.878503425253857 1.341636082341341 0.38957637921151617 -0.6737498701054848
Ni 5.205973699172718 6.441900910398784 9.357630544456486 0.3810745123880921 0.44860376558831777 -0.33367442583757373
Ni 4.600359934035741 7.822533700465653 4.644659675611818 0.3805114407957705 -0.45793558451220495 -0.36504599817031974
Ni 8.484559856011593 8.226441186371774 3.9027755761724277 0.8676015353847446 -0.5578838774730843 0.146866811889289
Ni 3.747263770186905 2.320163829867594 7.751851524626474 1.4821576687388927 -1.364154318048515 0.15722347253326469
Ni 7.314598068696952 1.3006880004143062 6.113886345878639 1.616828709892938 -0.6508050883838534 -3.8847586992539096
Ni 2.3925726488100043 6.565978286886764 12.078620236519729 -0.0540265907281005 -1.1929152479624487 1.1655378843907604
Ni 2.9360963653078165 8.835687532185641 6.40664433367489 1.1643829448507108 -0.9157888937232487 0.10800021673107851
Ni 8.865299134567172 1.6259020226593892 7.872891167196224 -0.05036174028200358 1.0793388226951732 -1.1484935273139638
Ni 8.292724110907914 6.851719510876809 0.5442987915522642 0.6212039776879689 0.09810172667044395 0.2998075978867998
Ni 0.809287614415701 0.8264055672146863 12.261258735585702 0.6012337052136291 2.326209698938471 1.9943065060687073
Ni 8.495644363115623 4.387513118178847 0.5482871596939076 -0.6107835536855932 -0.42159612665122226 -0.16190210895585666
Ni 2.6716743744420333 1.7298928155072975 9.878689224104962 0.35257151985239277 -2.1309480406855625 1.4788530298456917
Ni 6.494353881252475 5.479192324993847 13.18958106950861 0.17388730634219085 -0.2161531569899374 2.6247890808451246
Ni 7.109231194028203 3.6641066212725173 4.418340561187963 -1.2447224624417272 -0.7015198411299015 -1.480165320899212
Ni 5.3565343630634175 0.5627212983886825 9.788155788618147 -0.723318939282864 -0.7788694228546587 0.2899769849496232
Ni 7.9275423629633845 8.055056216801225 12.018824596806816 0.5898627443725261 -0.8078910068979892 0.1765255152959863
Ni 5.715020583127924 1.3565214190958474 0.9097840327410077 -0.45634715697916245 0.3035385256841418 0.7182078433085438
Ni 8.695109461466135 7.014345198506687 7.221335061662952 -3.8062500642240455 -0.482551326178356 0.5045478850541052
Ni 6.446149815817768 8.43858763320356 2.4265106641159626 -0.14721802458112065 -0.011100995009167978 0.2742873421285083
Ni 0.987118780493338 0.49477896617572226 5.859001513484082 -2.0550547317913574 -0.034853103123443196 0.09910959910966802
Ni 1.514608715443031 4.547327991454628 0.834412185909711 -0.0964428509107823 -2.0461178343130437 0.7330747331180472
P 3.415447602598479 5.031180267013313 13.43073026458277 0.5220514411555074 0.1818605543556545 -0.9007690232756487
P 7.31132034165945 8.709695813695701 7.759396833590295 -0.3325775932289692 1.161948110156973 -1.526634668105345
P 6.741836279964334 6.549169430284194 4.641913295208031 -1.8548460139458183 0.8323643094490051 -0.7218374696413311
P 5.484029540393921 3.351536594494035 6.087317146542175 -0.4126841688735732 -0.6877742094090348 -0.7759435074571153
P 6.928498632535889 3.670428619005818 9.927769217733736 1.530697782431125 -0.23965381121503887 1.537099829302727
P 2.600227395627437 1.2444810515860414 4.407638922484326 2.1264295839899185 -1.878424829707023 -2.445025518227815
P 6.4320864057936165 3.6253435302962544 1.3352946346829004 0.4196492873374967 -0.17288894698466353 0.38250944506240575
P 0.5881054733346656 7.468184326776114 5.664363358454607 1.283923558121221 0.9325044067057165 -1.9669108876645738
Ni 2.898481879532729 6.322782146608563 9.74507562297112 -0.40577767156172695 -1.1336168673124476 0.03530818838299081
Ni 1.1793467322510773 8.333130734529762 13.739642497399458 -0.6271509393000232 -1.0043551700994315 -2.2011658964615446
Ni 4.82293721021479 1.1880499846697423 5.38937326591264 -0.3827048489026635 0.4386890775777671 -0.2521902531191528
Ni 4.588481675369924 4.879330924116417 11.554295035738154 -1.312528109231791 1.0256346483034982 -0.9663524656034133
Ni 0.2936497910215545 2.1213524092738476 9.969441174727612 0.31878182499645746 -0.337977681198618 0.47301793276662407
Ni 2.3842335882843955 2.6824974104433554 2.4994265502325503 -0.7804920460597462 -0.41321098791132066 1.749639043689161
Ni 6.207772214432302 5.997596139124483 6.830349851182741 -0.792992492519602 0.949856524830919 -0.3621709906153698
Ni 0.09734102241085743 8.887150648150515 8.601585917154797 -0.24780883622200547 -0.11989336862423867 0.06350239142901967
Ni 1.4807948989108581 6.692801109953166 7.531997283217042 2.893600487460726 -1.0711264620877101 -0.10774593462842734
Ni 5.7174858820963 3.8412626316099514 8.154454456495163 0.43965529814577825 0.10220546442617237 0.5321363361953351
Ni 6.308214470886334 1.4917860234782063 7.860972754039635 -1.5812729242755152 1.155479471713494 3.0948286477097153
Ni 1.5951231385693476 3.3557668234056823 8.227384349992253 -0.34317696601137027 0.1784286458559701 -0.06978231090046047
Ni 2.3724206973942548 2.4593691772978894 5.908532544765025 -0.9432256497779626 -0.28847314671058705 3.2527270348228177
Ni 8.008953258441839 1.8773345026728523 2.0986006880369006 -0.6703308171216068 0.6617163359797185 0.44808157453626063
Ni 1.6934269349333857 3.461896076343584 11.291878901760278 0.7112028727456203 -0.8758905148664141 1.8186795913275904
Ni 0.6340020562879866 1.3319244589340848 3.5348194330631064 -1.2602331564828166 -0.33853715324651373 -0.12336332945071012
Ni 4.852156605942259 7.409726858813838 12.25889428975694 -0.514422978075972 -2.1857739873865065 0.25471661908543225
Ni 9.258850497155374 3.8766826277730364 3.3554343815750984 0.7383642636517607 -0.40007599319125936 -0.9008106751468614
Ni 3.718436581113495 4.660544978926614 7.3111438486651235 -1.0260347119553943 0.7942983558152191 -0.392669159204227
Ni 5.837996045683068 0.025376704343048673 11.99319856109083 0.7118302219169741 1.7494852917201158 0.6098142477937885
Ni 6.7648363987488525 5.96329673340157 11.17979184298213 1.2712408204472299 -0.14506241169069858 -2.5631345412581212
Ni 7.7276290284368025 4.138200421748042 6.369017708170035 1.5122010091785183 0.04100035367176164 3.5604366611655127
Ni 5.076620209362264 8.888560724454397 7.797774254690066 -0.4996337355819395 -1.7268498137087873 -1.1915474210806447
Ni 3.6267816213611406 3.815302286412647 4.77534853569681 1.3597441047959615 -0.1537257437926514 -0.30135668754147454
P 6.362413695175959 7.849782724669156 0.285420921889229 0.120371850922554 0.44245008728209606 -0.973038619374337
P 3.3084405538157764 3.661323821679425 9.647312511494466 1.1483963396144672 2.818044250190966 -0.009523366109402954
P 7.036710316041775 1.6207099536199283 12.971653309830907 0.7027465144481511 0.8173608940616374 -1.847397013866941
P 1.7493163831369354 0.9283363413034125 8.139830751250926 -0.47059363959584755 1.3514970342958208 -2.382470578313729
P 3.9985281616343427 6.705538487956448 6.721597482789472 0.41147549327745264 1.9190094359976049 0.3239973077591259
P 1.9986851090897493 4.76783217531936 3.401657803406803 -0.6381614314779139 -0.9349760081746608 -0.6645854299973974
P 3.5234071532553273 1.2018239088301828 0.37014783124522344 -0.22350239826615703 0.5486834419207389 0.31890215262440563
P 3.426532109702508 7.0741660515045055 2.626301667519493 1.4181233160658029 1.1110711208014479 1.5573562655589177
