# total energy = -381165.6405178862 ev
CRYSTAL
PRIMVEC
9.32330208254463 0.00000000000000 0.00000000000000

0.00000000000000 9.32330208254463 0.00000000000000

0.00000000000000 0.00000000000000 13.64559501161631

PRIMCOORD
 96 1
Ni 0.11119902647545112 5.092490269990998 12.840696161207406 0.03574347614819651 -0.17386133820026184 0.3282278009007057
Ni 4.6195284678552415 7.5569280889968224 4.802308080032707 0.7153166378036778 0.20117365286196967 -0.47864247804225313
Ni 0.9319806056889647 1.1380022781582597 12.080445189815576 0.26547771425667827 -1.5825767306886036 0.6449627706704635
Ni 8.115860061597083 2.515622748606749 4.608881256634066 4.066857594872616 -2.85335758078028 3.3729019392432167
Ni 2.2210809824951996 1.4472935085008956 2.2702035976284147 0.8607662576304659 0.5023943290462122 -0.09057507927609562
Ni 1.7170166439024883 6.38267681151463 1.4767943016235265 -1.146601966718206 -0.2808112592899551 0.43960696140634614
Ni 5.252860392771599 1.0057792050070191 10.870722476420873 0.7014486215723338 -1.2040604659459908 0.5126985391856977
Ni 7.0138177603916025 3.12077965398686 1.0556355640308703 -2.2685992475138543 0.548243526169843 -0.05020901675422321
Ni 7.201803504570736 3.853581891091243 12.446010940482115 -0.08983383023469689 3.566701411128302 -0.7290897803283701
Ni 2.3395615080632415 4.926143910439141 6.905353258479349 -0.972766339549557 -0.42666737052654263 0.05692525243213422
Ni 1.7400918170832331 6.953962159656095 12.829643386336388 -0.019217196358399163 0.06509081896206209 -0.255643758885392
Ni 7.898664411326929 0.6646703409213824 6.489395058906983 -0.3011072905348298 1.5123871570473952 -1.6752871111401473
Ni 5.221534097059558 5.041100227739578 1.2086440073191422 1.4195909017502648 -1.2035025365599918 0.7786588495057493
Ni 8.314036175184924 5.817936421584429 7.627260284521503 0.6772123747327885 1.3789756993320639 0.6350966765096611
Ni 4.195569942583322 9.097771612728259 2.5392815605111765 -0.5575187808241817 -0.5087346694419431 0.6253689076989358
Ni 5.427299378715734 3.345816201487318 10.544865602560037 -1.311515865917193 -2.211900252159913 -1.258282460514349
Ni 4.7118571304851065 4.489356521208957 3.7374741459573433 -0.7795047424458124 -0.2257068621166435 1.1650218639862904
Ni 6.261884106977365 6.46311826371805 8.540695909614985 0.01812961972117523 0.5163266228565883 -1.072949374229062
Ni 7.050104052924717 6.509744098496597 0.09303536894384436 -0.4676088459359108 -0.872949172849903 -1.004326116633709
Ni 5.9117288426746475 2.0608134160398457 7.180080210222802 1.4627859490805 2.0467307853066945 -0.005085642053023499
Ni 8.662494598469907 8.630394468667358 7.991556201415427 0.4235049136381609 -1.1102794781380878 1.9074577266042632
Ni 0.43975499635076265 8.532900696565926 4.5015728442064225 -1.272096483579306 -0.7461151112417731 0.2397743959533032
Ni 8.216048268061842 6.995460178172255 10.10307626164845 -1.0837768038618691 -0.4451800846187494 -2.1536100010594526
Ni 7.24537129619644 4.2895581530217415 9.726908051611755 1.5586497875593608 0.9042035028784943 -1.2872369387651703
P 9.036750599205847 1.637535491835479 8.269435361664906 0.8192447413479116 0.36247103835429184 -0.7527148759464778
Ni 4.617225612188315 8.254693356075656 9.361492406112172 -1.0038826013383872 -0.881102912305289 1.6768613976058022
P 5.12983941898577 5.725085654026031 12.687974875629827 0.724738959558842 -2.295959127584046 -1.7906414542434517
Ni 9.046083224803391 2.701175110886822 13.506382742078971 0.7682960182141865 0.3315003010043904 -2.2114413102456236
P 1.8524842262524763 2.794762419326545 0.6065647240266936 -0.10077670239944579 0.48303212246951643 -0.16964061525069493
P 6.058197921733031 8.644528594946959 13.373938706663333 -0.12001343914187074 1.3261192176526644 3.6432788905737254
P 3.4019890978162017 2.1787998065862393 10.851509947381052 0.16231862766798497 2.15980841656068 0.7902804929050777
Ni 7.642944875972803 7.520259541069603 5.783767451002565 0.5891415499357854 -0.10782795281927236 0.6382881868637653
Ni 6.198905199972949 7.915884550666257 11.582722561444095 -0.12997620678153746 -1.7570052542462449 -2.377567227474841
Ni 1.9073425369577295 2.3541804460621933 7.403390082138181 0.2416369030833387 -0.9360612708190396 0.8906519894463049
Ni 3.0977977138290678 4.701601497960331 0.37686559304838074 -0.9254616409263223 0.08853388047635076 -0.9527459305635722
Ni 3.0098510032779706 5.1596180465168 11.686347337134885 1.3747819729656903 1.7213481671642676 -1.198350045824775
Ni 6.8115207471892605 1.7866244188388276 12.66050656240756 -1.3362172253186149 -1.3291346074402208 1.3897100550304324
Ni 4.309006561609633 7.007804230411166 0.36947594364916536 -1.5506991652537165 1.5913992140762399 0.7108159217198468
Ni 2.7691326613169016 9.029823385600475 4.339913308718388 -0.2697827693899354 0.6828088949839596 0.021141152853989396
Ni 5.715342803127494 0.8761601301868417 5.0536055731081975 0.621514309839536 0.23232488165379345 -0.33336512212727104
Ni 5.674478769167411 9.354721823985361 7.732536217048781 2.4714983677073628 -2.198818993495923 -0.6021132796051049
Ni 1.301160068325141 0.1555537048148752 6.3107326170231 -0.06886416996156527 0.4677921655913105 1.357590034567436
Ni 1.664601038398591 3.3805455025371254 11.969520268427605 1.059952961969394 -0.6274296468827065 0.29031302813280324
Ni 0.7362910168232661 8.355189231516158 10.450711437340761 0.5104966464383724 0.7219480270772664 -0.029533747793058812
Ni 4.127826828106033 3.1340560364552963 6.4936520787349945 -0.7957721121472683 1.4632343494718283 -0.5169087206123033
Ni 4.675757303997897 5.592415062364618 6.33741031421073 0.9083913157075969 -1.7545336527773008 -1.2782774155790373
Ni 3.6428099961025184 6.25889132694059 2.6435608320230926 1.378324181790994 1.455409454110771 -0.8470339956460381
Ni 8.04429439317874 0.49360452574766966 11.534430652545387 0.722837114550439 -2.0354904365061848 -1.5861623911573328
Ni 2.5553493396868108 5.858483463266473 4.570905581725052 -0.4692409822226951 -0.5238496707065107 -0.44331629193713323
Ni 8.183220920680265 7.443426206854444 1.8635239485002824 2.198705093625878 -0.18547526829010638 0.8720731980028529
Ni 8.86482890488143 2.8664959071862013 11.146895472350321 -0.6504860144815378 0.07063643137063964 -1.565696152883181
Ni 4.046620865114402 1.3405789904294596 8.690879392307796 -0.3942691567014952 1.7960916787247454 1.0421467870259085
Ni 2.7965524933672334 4.05826566968117 9.187128938916628 0.7188218227434587 -0.7236135877051474 0.5233758163938858
Ni 8.932944951450528 5.068641262719748 1.6639167080101196 -0.7324571541387064 -0.27900454509851946 0.0916279460206422
Ni 1.1694124835909583 6.803083158612059 8.45329647690862 -0.12500575015013957 -0.39073209008251414 -0.16898524105488316
Ni 3.558415463725912 8.322949252179184 12.240794801331129 0.9965037923758128 0.010825372750278131 -0.41952793126828397
P 5.171840895825874 4.103604888742972 8.34774737162409 -0.2961995688205673 0.27366384961189644 0.21440634950215978
Ni 4.925640452115197 3.235773264496478 12.668407128772557 -1.4625226681167844 0.696480221823465 1.7947919860767154
P 2.6472864236202747 3.726057762296809 4.942748711826982 0.2524550767447652 -0.7964796797372541 -0.4586158984086811
Ni 0.723194574089128 3.9835860182962146 3.6603350074269008 -0.715636997257574 -0.20823673035633813 -0.9940051943236752
P 0.5316706366889474 8.779930914180879 13.49344666014431 -0.37673577580342216 0.00895335253854587 0.08614815385299357
P 0.8054447469378267 6.513864998111097 6.083998296174678 -1.5708003068789658 -0.1505056941934569 0.22563152879401785
P 7.020483921532707 1.2876599266016187 3.052615126245825 0.30052262167595334 -0.7761921331328115 -0.6230014359080238
Ni 6.740458537094862 3.3406510920157495 3.5247797860353374 -3.8539972497013366 2.5550851885910832 -3.3522204996344653
Ni 5.325442301140123 5.50386233716433 10.416038076104728 -1.0934076420834138 2.19075601398213 1.3561617867613418
Ni 8.515223715414132 5.1811269049119435 5.4152135819504 -1.5767984334439296 -1.18913495498441 -0.0027351395429759348
Ni 8.86447461939421 2.3646318679351697 1.8938312072714527 1.875340020134112 -0.47288732072603085 4.8858562816479925
Ni 3.8973920885766247 0.8413357314536226 6.5089488208108115 -2.165404679701535 -1.3691337735409776 -1.6002420091788503
Ni 2.454694968107288 8.635876570416967 0.8735505378744012 0.0038772235672191293 0.4475079614209777 0.11897574190597575
Ni 0.564313382685078 9.338219578922768 2.4012286264347154 -0.9073050246219535 -0.9253179162596065 -0.518549598649836
Ni 1.4318075033884845 1.7840232174984527 9.837327650015323 -1.4380768763695944 1.3025535145175826 -1.3330948776395493
Ni 4.210412639837361 2.6018632948378153 1.3977588034062303 0.7723128526830635 0.4992336719300435 -0.11774624037424881
Ni 8.711432612217676 7.319165233863347 12.232867197389478 0.19725683430606672 0.7873252669314956 1.4978995049541817
Ni 5.977952258877811 7.53840268733616 1.9222682116021959 -1.5212263526055803 0.9321418811599754 0.4412789497921304
Ni 3.9605015218131747 2.1142452614939256 3.8702594142369873 -0.38044253523104804 0.057813054353726245 0.5805952030276711
Ni 0.14747506337604077 6.2814071019836195 3.830905755248735 0.5792646571417056 1.3365519829502144 -1.9365911536351101
Ni 0.27420857613583804 4.131565472326428 8.637497892686111 1.1470794205752568 -0.5060422102114447 1.2268432681684613
Ni 0.6566047521057613 3.382857681506348 5.82492237199426 -0.46595048439688147 0.8419085014940146 1.887008457610976
Ni 6.6569031019248275 5.683895304485614 3.1428124819709957 1.2240592776654209 0.657746552698693 0.6352152043653964
Ni 1.0935580961168012 1.6140594166560387 4.5797757715287535 0.4876074005450248 -0.7175714952761255 -1.647446177668479
Ni 7.889723364425785 3.5471156213440684 7.175577055214196 -0.7263155600173427 -1.185679392335642 -0.6026079598533364
Ni 2.7203344971035612 3.9632798658971593 2.499299510948225 -0.6747454012495347 0.27282207043689144 0.8197535626635302
Ni 3.759379244700034 6.199483244715255 8.40168826938349 -1.2975578610752039 -0.5316424272780522 1.8616414396010972
Ni 5.694244170033342 0.8600121706114682 1.3000720389472853 0.6488855027636373 0.22043250109158166 -0.8923571450628697
Ni 2.3154421250254282 9.046857058893897 8.371627145792916 -0.7201942776109532 -0.6427055992051705 -1.3363002719507244
Ni 6.923325788313902 8.610852827056513 3.8759354406743354 0.4847717308684425 -0.45979192099465327 -0.9401575523756002
Ni 7.1725935984797164 1.823423492998181 9.345622280945197 0.037981364339779757 -0.6368704805806321 0.20951611128939404
Ni 3.21331342926722 1.4415876474962022 13.14268724585286 0.09898695748887468 -0.23665461937739887 -0.5000906206137
P 2.5493731029155553 7.1507770711088305 10.230307638750814 0.7955137162795589 -0.2252003547938702 0.39629235777911104
Ni 2.660693332320845 7.41127946054042 6.225556791914152 0.8964675676868173 1.6731001307911573 1.2413972547232361
P 9.0625574999591 5.1271449846224435 10.752960777459796 -0.08305794496344406 -1.0617198240618295 -0.5587161435663925
Ni 2.880480860629077 0.21649360560732017 10.4314439008174 0.3865872146762052 -1.4158077805587488 2.1144760111724685
P 6.409854237705284 4.556055425829178 5.333449153151284 -0.16935676546168899 0.21586879298029918 -0.22823811317892947
P 6.747423043909414 8.65852287169213 9.6075902934976 1.1927026177310103 0.9979886044514554 -0.2905200019372868
P 4.731939523629076 7.5294243472258335 7.086730645991608 0.6285583611705111 1.8767721245949485 -0.2546438568659679
Ni 8.025125683659706 0.39648088874735804 0.9082537336777821 -0.04413555686663367 -0.6728998634003637 -0.7459071089960251
