# total energy = -340870.2498630434 ev
CRYSTAL
PRIMVEC
9.25574048907038 0.00000000000000 0.00000000000000
0.00000000000000 9.25574048907038 0.00000000000000
0.00000000000000 0.00000000000000 13.54671179033911
PRIMCOORD
 96 1
Ni 0.2302097071086199 7.165192790819089 4.937437828662029 -0.24251416348196939 -0.34673588700722224 0.1063346561031975
Ni 0.9221420367184964 1.4108432920766572 5.943064794927219 0.4864095235821816 1.6512498676852851 -0.006960490478233174
Ni -0.08336830721445962 1.0487679734512856 8.545293140315051 1.4342284491577817 0.3655573905890995 -1.1429990798582963
Ni 3.4850084938290697 7.30759236077362 0.4326586712751125 -0.5112841753366743 0.756246286138504 0.1773690942432042
Ni 4.444615917564917 9.499259190122574 1.5964662453091005 0.23117816964385993 -0.7773367882602161 -1.783710017230941
Ni 2.6051115086014067 7.75644024802582 11.204810818051962 -0.3954390086398803 -1.1340827512052727 0.9387187630465446
Ni 2.688783404109302 3.152496010851067 4.639911119780298 0.1653903246147732 1.0145447090379238 -0.07473039893435517
Ni 0.30129009303145543 6.223097228399716 7.076761593467149 0.8042174147011439 -0.6679350631959207 0.3306150701859596
Ni 2.5380444118259406 5.701906472199541 4.51442826701822 -0.07464426697845208 0.39123551208149393 0.6514535206011297
Ni 2.8461495067005895 0.8916452968391861 7.752119668288753 -1.3946337175842949 0.5012393895061625 1.7570350790429157
Ni 2.3233667631080066 8.53507017476323 2.7821284741742 0.588267117750632 -0.833471426470255 -0.22900198792814752
Ni 7.040517964216064 7.500417205808574 6.586194380793237 -0.5363382900918247 -0.277765787595412 -1.1260987045585316
Ni 6.832893189876118 2.212982800074029 11.596635938285905 0.4301722983560075 -0.4037228459152272 -0.10994834159638485
Ni 4.38268575685216 6.126235902460543 9.769251921708188 0.07835256906797473 0.9694154207994532 1.1046585324068847
Ni 7.619899561904972 5.362526229656621 13.00057629898316 0.3416407318725019 0.8434647902375408 -0.8008711239367303
Ni 3.9520439114654513 4.476307573562599 6.5428043941835625 -1.2592628221497473 0.5865030838716737 -0.7081221769377676
Ni 5.424132439446505 1.5307884352057297 9.46233804065565 -0.07767636893655654 -0.09210874231180266 -0.34436738677504564
Ni 0.5458286122458024 9.021005814814117 11.507430961015329 -0.1895550947864348 0.7821396089654982 0.10348793068302176
Ni 8.460320813245335 2.274218780237772 4.224298746066789 1.9111688569072636 0.3257726544919938 -0.5524436802941195
Ni 1.9982311054308666 5.10596635448147 11.10597339148326 -0.25413812087414295 1.1868525867081365 0.7665191288194219
Ni 7.837057749118051 8.177706028130505 12.884982279535311 0.5047890545306338 -0.7415058946045358 -1.5780035094956244
Ni 4.705044692333241 8.656746141394512 3.6802213199526337 0.4043555944032197 1.6044295648976368 2.0948983461508566
Ni 0.9002540612210328 1.2205174970181558 1.4496470591925088 1.6217793690299938 0.14239694904339345 -0.24067093962564357
Ni 2.173035023413401 3.824370224890682 1.0591575423348711 -0.5648106864999046 -1.078840028681884 1.4666770566047902
P 8.73336516252442 1.4840932236086797 10.529710052820526 -0.868278506847111 -0.0462366623700365 1.7495192302818448
P 8.484108066724904 9.249789212288027 5.855011231793943 -0.2079575085530225 -0.22263336539764236 0.11955655411011024
P 4.443255323688849 4.017741158624195 3.529365705337038 0.40034570191287827 0.7810443190187903 -0.015492182098328157
P 8.136555005184919 4.48796055104539 1.6361715215646062 -0.7050872467661857 -2.996114741376569 0.1684861899312776
P 4.268849402554416 6.254159494032957 12.260505787808349 -0.4035418402526727 0.5049916574597432 -0.8656719224621996
P 2.336445124651442 6.136991073099943 1.806792770345811 -0.8569047177925307 -1.1083748049162072 0.42025015414628913
P 0.1651381480180549 7.65499733046315 2.932782313643548 0.0008212103497147147 -0.1298337676664022 -1.827170402407421
P 1.1359570504075216 2.431131351537036 3.2591360267906926 0.2117581132460353 0.48847000565563614 0.30223677615358274
Ni 7.437987235100526 8.969673477149648 10.206675448271739 -1.14356729365694 0.2899399610641007 0.5351239580687494
Ni 7.1274386246933465 0.5267627120735995 7.727735419537032 -2.011687677659632 0.9270572675482163 -1.089356869052808
Ni 4.395005147662006 4.216980231932044 11.395101441295981 0.35342178366783006 0.08063236624108694 -0.3192219978576696
Ni 0.8641270543021813 3.1788748717136226 7.7516050491084165 0.0027503090516275215 0.8026572693028757 -0.7793137094809288
Ni 1.2165375285371385 8.500277845646616 6.723720803293686 -1.2415165539099198 -1.079661753252231 2.153135889636511
Ni 4.133697077531596 6.5966404096948095 2.9848958358191733 -1.7340219059771942 -2.2628893416132705 -0.5212806244277538
Ni 5.0497007070486735 4.083179245044639 8.823813185764761 1.3012414805743784 -1.3372618645330454 -0.29148802227751086
Ni 8.976643049861755 4.200662361159874 11.052816747335983 -0.9223351794821987 0.8048666182493687 1.119798987592749
Ni 6.723527358314028 1.6385622793754124 5.421922168578442 -0.6379462301433142 -1.3544080372950287 -0.2679560005938418
Ni 8.787048458314883 3.1331700243665 13.51494464874762 0.5301648142912612 0.4768023395097208 -1.8606345956031374
Ni 2.6789445517946016 0.3260936268347804 12.858593237358038 0.188205779847392 0.20528767503034323 0.48353271625501887
Ni 6.259185361207822 3.536239018346348 13.456775095462392 1.066219511704396 0.5102289945992826 -0.7729008639760495
Ni 6.1495603689074345 4.277059244514096 5.777984032501216 -0.29794869030119014 -0.4293917114362411 0.7561660677198719
Ni 2.998702624152042 9.058445285757639 5.650428819406813 1.8081699500455184 0.4968975675976991 -2.492793529640713
Ni 5.861530975510289 6.864538567170531 0.3891159649446542 0.4278071405579406 0.13976105408244316 -2.2995386174051884
Ni 7.29817001678833 8.002291231264836 3.9717743738165776 0.4506475354912239 1.3080834431968762 0.2871444005968345
Ni 4.444014294422438 2.2378252079880987 12.628407595175116 -0.4437490085991777 -1.1925519510857592 0.11934443809930415
Ni 5.998108684593752 5.03468789570865 1.8267333380097723 0.33001266071527036 -0.05243713475379357 0.7436967316082675
Ni 8.308193459863945 6.437876690264839 1.439513874325026 -0.5265200184498222 2.4989906595903606 1.387561384118546
Ni 8.559440539903969 8.09566314297763 8.259931251374253 0.7554050211841313 -1.8757079449964922 0.8464148740048004
Ni 8.022107772004041 4.692123678380916 8.006783967778059 -0.6137089548625043 1.1476926286792235 -0.15104176920258502
Ni 0.46716037013520434 0.32306237177074987 3.8603658002922536 -0.2726042979991305 -0.3898743700679092 0.1755505529772267
Ni 0.5217905281945242 5.0006915602882405 3.1133599626457538 0.3324562371597565 0.19218816153390772 -0.6449473440514957
Ni 7.6962779337778855 8.556497214376147 1.5460455980990055 -0.29304611079325016 2.4057850846699536 1.7431637203774624
P 2.564960105646401 6.6289429445756225 6.805800711409175 1.1963163032241977 -0.045568689768734426 -1.8680329449497375
P 8.62125037598823 0.9174919526141637 -0.0718615704339933 0.3523151808672126 -0.3023779297171373 -0.0691027683349326
P 8.005049441979589 5.384638194077899 5.520555968852766 0.5534471818579694 0.29039427499269993 0.1786675013396536
P 6.723740240349059 4.596058346137946 11.239910437758272 -0.16038952896607217 -0.6766729572895508 -0.3907606293276044
P 5.83325468781376 7.498566057677869 2.2852220047266862 1.7880454113815014 0.2582421157401875 0.8499606823745297
P 5.57603765505221 0.3788522741339567 11.590593790787281 0.34526521599896665 -0.053470975334946616 0.3453752592142697
P 0.6966573852135026 7.028383688219288 12.370816630491163 -0.338601687935862 -0.9049745767165639 -0.6379868535732626
P 0.5593466214702804 5.482480628526346 9.209718334276706 0.19458880055560035 -1.4316411480465794 -0.21489794442659763
Ni 8.194884682783453 3.096878265264016 6.2589872883578375 0.9455892649141328 0.31474750702608373 1.2256412774405603
Ni 0.6032928780932325 5.363211154464982 0.2655601573866403 2.154919206789179 -0.13485358947849677 -0.8443554203726104
Ni 5.193053618290518 2.688801915590609 1.6753353369918802 -1.3620735242600863 -0.383707579135565 0.24887455848235845
Ni 4.181891719114518 4.614255132262783 0.29628736520822335 -0.30631814531180795 0.8440939391811076 -0.5650999356055494
Ni 0.9979261900414549 2.7412541978741536 9.95264701816533 2.016645278775224 0.4577787472193664 0.2302497442923196
Ni 4.317923339499423 8.337413833107133 7.592593275828932 0.7985067374696119 -0.34687652635014454 0.5551004011906762
Ni 6.2143968321853995 6.9877509867502985 11.409311779921344 -0.412464082442967 -0.17744854133088794 -0.5572966375110466
Ni 7.5443727181721805 3.028543132019017 9.518868402271139 -0.7094979742393717 -0.32373196991288117 -0.4790829080137814
Ni 2.3171654168701425 6.929606423964834 8.932214569150755 0.6088079180164612 -0.7688657746747274 -1.0529904146086317
Ni 6.470993730323164 0.9488244858744876 0.1586128508573175 -0.6926441359068265 0.0487494014895612 -0.2273755080683181
Ni 8.14786552026353 2.3208862246128614 1.9420570898305383 -1.7348125201992897 -0.6580669121525893 0.8995634330033218
Ni 6.22816937427785 5.950219482452397 4.076977898806775 0.25716868017035066 -0.618549056563625 0.30455976785980454
Ni 3.4032062579331868 1.7021121947025375 3.058061540111249 -0.8310859569572139 -0.4489758042157558 -0.23510372995051126
Ni 4.577556120571543 6.9435085464264334 5.610736501188222 -0.7867485684924191 0.6432478448618857 -1.3240736479775455
Ni 5.280751760982699 5.9493586985716185 7.48913723467412 1.6277368721650098 1.107494459193783 1.376398682633507
Ni 2.5046774667699716 0.997611494859235 10.469400572296202 0.6837031246634547 -0.24109722852978477 -0.294971352840421
Ni 1.0839490436753465 8.232731406315729 0.6775322483011171 -0.7810219504212872 -1.2610793065331958 -0.30917772624779016
Ni 4.671853606349689 1.7644403522633965 6.489470965389801 -0.2286482041331546 1.2214640061344189 0.9377646266633913
Ni 6.501148933372358 3.3144807280284647 3.6091289015669483 -0.18162684107829366 0.0331515470513042 -0.3759163652259203
Ni 0.7634847583060419 4.300411478182947 5.484888046670329 -0.2932371437581337 0.4454158547786393 0.08291319185546364
Ni 2.5956058629502334 4.550418288975399 8.933690859784992 0.555901556935733 -0.6804949021388023 -1.0476160376705959
Ni 1.6688748300157175 3.1602152985561096 12.38937624164962 0.7645861734627671 -0.671274926202431 0.013530944606899279
Ni 4.42702075458256 8.589197746105063 10.123701435609119 0.7253871346658023 0.16658074537844858 -0.65814455946806
Ni 8.52122358674555 6.627425003108444 10.456720207600869 -0.4812112672106938 0.4228593096343621 0.6749060951971151
P 3.6869780106297094 2.806803353182441 9.841537405064113 -1.5475392794684961 -0.7970607490517047 0.7513444779615125
P 3.120980213925803 1.808145959629357 0.8254389839444987 -0.25254095159035217 0.5351609819542719 -0.45804177107276595
P 1.250922605064996 8.609856559243738 9.29003687494583 -0.5126088076853689 2.4081826383678524 0.5928236267730629
P 6.519762227826603 2.7681698916946136 7.557738007675876 -0.7994801571264748 -0.077135408831422 0.41218048976427724
P 6.434729738442639 6.956355514453531 9.031267654476682 0.5080237594178476 0.8714818442757571 0.27240863704855667
P 5.411331750122675 9.212405275788427 5.67081643934434 -0.8813952467347271 -2.463326887640164 0.5205383469450905
P 6.28357423782987 1.0761742215263828 2.717348470914221 0.41902348082803964 0.21230807221223433 0.15906335395548088
P 2.732618591844412 2.8344039718112617 6.706299648235616 -1.6826895742518053 -1.1656445851719537 1.2664485412649091
