# total energy = -340874.40955028596 ev
CRYSTAL
PRIMVEC
9.14087588278055 0.00000000000000 0.00000000000000

0.00000000000000 9.14087588278055 0.00000000000000

0.00000000000000 0.00000000000000 13.37859582834282

PRIMCOORD
 96 1
Ni 3.4336420449794685 8.211166518189554 8.529296420785206 -0.36589060555880215 -0.03022100366807053 -0.7203426302633593
Ni 0.6383887151793666 7.806381112430186 1.6103544990721455 -3.9690811127520744 0.688254491479563 -2.688179115065996
Ni 3.665463797694129 5.179869265114527 9.924843993470638 1.368680488053643 -0.7136217665997581 -0.23351221709367528
Ni 6.678095382260685 3.75343558698185 12.59585453856597 -1.218267353573992 0.03403446387688978 -0.7318861121265846
Ni 2.0813317292048685 6.2374868840014654 0.38253194347539443 0.8618440640756769 1.1554691873008487 -0.09633023659231796
Ni 8.036923142524287 -0.022609956442557994 0.5096934098426299 -0.2886376973129094 0.9100630469830651 -0.9982547136286485
Ni 1.6976526058088994 0.8219512137850785 0.7985807364708728 -2.1819307023810164 -0.2539445168060981 -1.8031984649728559
Ni 9.068617237469 3.4993100971659796 7.7017098570317275 0.3042144687052438 -0.4765843099616437 -0.1830815712469492
Ni 4.993459383678066 0.01645631881283087 11.178566306732375 -0.5473657515505799 0.6783238626294125 -1.230711749984932
Ni 1.9737619020708388 6.736743241785833 9.979000940685202 1.0160889135965918 3.1020053679638124 0.988602278140549
Ni 2.006687336922706 3.255769741597323 3.7427828102532636 -0.3368088577014973 -0.24022048235178628 -1.5643041576316608
Ni 5.56573305784131 5.36924079033 2.456831596880279 0.7093773895011073 0.32911354593976866 1.09727509545862
Ni 7.663234996444555 8.32394664456444 11.50746507518005 -2.472362258369555 -0.10494574617547088 -0.9920550125758398
Ni 8.150352271085314 2.475468014585995 0.3868793440349581 0.9434966440511622 -0.31031029719033654 0.931625603645189
Ni 5.726950685404438 6.826771728142313 10.000701379979576 -0.2942550434996868 0.2389231036966014 -0.006527259595556501
Ni 1.1806446671021762 7.811079522622818 5.270938897231591 0.20866996123901482 1.181129053960798 0.4771157569850816
Ni 9.207878481213642 7.192553016602147 12.588669810139105 0.8468807578976254 -1.1913270775397224 1.387324328407075
Ni 2.8591014336026577 1.9658184809474981 5.362248020296219 -0.21183036124486745 -0.707265228254111 0.8381474917896856
Ni 4.345078777094875 1.564552312394674 3.4513433510845877 1.224267537021485 1.9509317386274978 -0.5770869327640964
Ni 6.282167485210774 4.208523232605134 9.751885824951447 -1.5422122108286278 1.290829798322751 0.8717410114744147
Ni 8.922344941938855 3.6012400038936794 3.8756719494350973 -1.3276585371153264 1.419621497877884 -2.2769375921762207
Ni 0.924398494086519 1.8877005558380984 9.943453902636357 0.03351535814862615 1.3410629834466903 0.4238131889071991
Ni 7.796033640955363 5.620550890380636 0.8594717669323467 0.11096829822046694 0.26191159417197474 -0.31945134025965627
Ni 2.4131638047163864 3.577437163151241 7.8495434141589575 -0.1448865482344666 -0.2830542896878609 0.8278491951874709
P 6.1924497886335725 9.041724780685492 3.9096540695365136 -0.5224674456470034 0.3722435443600234 -0.36371288118119294
P 1.0197104066907448 3.5629305931595936 5.705502534283832 1.0822228291111877 0.7337565896764202 1.3247663031691959
P 6.2471122262832575 1.4615803458188035 12.887921975906306 -1.3059561124412282 0.147026734505921 0.7748569592611558
P 7.16930776928724 6.153966701258125 6.728523766211485 -1.041054068182362 -1.5483797730919204 -1.802776804054405
P 3.374948481075015 0.06326491592261498 6.388948454757986 0.6788069729134181 0.5497116260749372 0.8996973874780247
P 5.558456920655834 2.8499879803690895 5.530457503805541 1.2535907114656346 1.336477420958537 -2.7785500487510855
P 6.67940252750883 7.2135587493310735 13.27927303641254 0.556097732106939 0.9545493023208981 0.10059261141309772
P 2.5802041702030674 3.2399925898609756 10.390352237575634 -0.3159703236895913 0.827659447774168 0.48301309630612294
Ni 2.2008121175859787 4.934308775980555 11.916033889458348 -0.9428307283323891 -0.720245699674179 -1.1904305338673822
Ni 1.8800496427423146 2.369214473575971 12.32722522102121 -0.36482282641592007 0.334900584935191 -0.06096959770483694
Ni 8.035862800924393 8.436150895760074 5.010110403146739 -0.6484813253466831 -0.1580919911811471 -0.6599384181436893
Ni 7.215578882896389 1.9817327458217628 3.272578898218394 -0.10725382548335721 -0.3868726071271079 0.6942209934756431
Ni 2.1847607395737967 8.508080447911473 12.440087615278847 0.05360930068502381 -0.35832307762418936 0.2947607794915117
Ni 7.503946093688132 6.097348116174154 4.518286491525074 0.3362470716607564 -0.40857991689721246 -0.6510269745866722
Ni 7.730648955920548 1.5691044685735274 11.327121993052636 1.1451914595239245 0.137007402596706 0.3083164066887593
Ni 4.962709477281153 6.635508041623582 7.642242060941835 0.9116116224171075 -1.6108910042522644 0.7733667478688745
Ni 5.658659201845776 7.720968768383588 5.619424734474541 0.19426484155727836 1.271234649799643 -0.27319308062306497
Ni 0.3836818656587273 1.6763817876800002 5.048346686873935 -0.8447441711705967 -1.9972000255664186 0.18007492321014149
Ni 4.404759555592332 2.2546153129047157 7.032914018300241 -1.2386189206471505 -0.5816490982134822 2.035384764166256
Ni 3.203959257216317 5.202045029953679 2.1867854435770417 0.022423104890206543 -0.3258132779219421 -0.3249704703056726
Ni 5.726292542342435 2.9257932638856183 1.2434123193779445 -0.6592115672799936 0.20731730386586233 0.585125743908173
Ni 1.2165317457330567 2.911149580756054 1.4995670836349904 0.08878996235121482 2.0415196734194 -0.34933861473739186
Ni 4.7432096252273235 6.145118333424531 0.4662897889911248 0.2618552870127426 0.9263347875598951 -0.9577932631794924
Ni 1.8881393178794335 1.0026626732096973 7.768495838336059 -1.1748475918274606 -0.3967271313236845 -1.130152562912931
Ni 0.8586682839441515 7.5371274730641105 7.911352188556891 0.3450317598319219 0.43883588756827646 -0.8505034422518772
Ni 0.28756921232906474 5.574490016916293 6.14104333096563 -0.5860258871249391 0.2448358696366106 0.9743473108834315
Ni 8.287437986375002 1.048111107991342 8.63332872896097 -0.756328304329349 -0.15572606205213183 -0.7294672182724469
Ni 3.7582893920641216 6.9470930771026485 11.708585368139863 0.6957117190885567 -0.41285103346874064 -0.208378398140525
Ni 0.3917322350296433 8.745021091108379 10.01366497012586 0.9233291679643518 -1.2071668727854565 0.4251087677901711
Ni 5.7981124039835015 0.6725152611193892 1.8397575760339453 1.1106900833129454 -0.2729022888555236 -0.5468165639153292
Ni 7.590592455975985 3.6280319110427137 5.7551777100636725 -0.544926545981468 0.8820269667814551 -0.18736014401764509
Ni 0.8914858564608572 5.276579731725508 2.2997675833084594 -1.7766186576017982 -0.35782325516963537 -1.26609784279371
P 2.737527784649344 8.797965044096168 10.462383253449092 0.8327324914217015 0.5532949725508213 -1.1666701982229908
P 6.428896824533976 8.862060865634561 9.620789211525986 1.8964379784549918 -1.6522600541173544 0.4076170387633109
P 9.032794144969149 0.21324840705238715 6.712683542431697 1.2935202006707207 -0.37937964118417244 0.10758704045305988
P 7.189746767712775 4.081465058135129 2.1883640728382625 1.5712543636972487 -0.7955003465431203 1.631031226645565
P 9.12879162326296 1.3943400629841738 2.352505866589372 -1.5930231228329081 -0.44116839235619504 -0.41454616178297643
P 4.011546498673182 6.3589874059478895 4.0716952900147305 0.24302375612853627 -0.028722307635356988 -0.5919471377053805
P 0.20221262762521908 6.931553588138692 3.6065078906524604 -1.5058809804977615 0.5566327786748027 -0.15917905359773876
P -0.1429788379573719 6.51537865105633 10.550199647847176 1.3325294920543824 0.910816894429954 -1.0229383324182575
Ni 1.8505154728349344 5.604728034264982 4.333635314604299 0.3057527597266412 0.18591595537195077 0.34466049253543224
Ni 1.8936604068995688 0.7956721097718543 2.98987537411022 0.22156944290950228 0.6362120210610269 1.6487782662163413
Ni 7.1389052161730495 1.2092190450441354 6.312489598617385 -0.4383540628358515 -0.16229445929826888 -1.129690535674848
Ni 8.180599429309865 5.927464938294654 8.629367987450333 -0.6629705201017937 -1.6242954505836285 0.09340200720192947
Ni 7.3593282966888545 5.6171047801809815 11.342935708292428 -1.0502573319481847 0.8989749074897034 1.4758011303932455
Ni 1.0008070754098837 4.94522298175877 9.445007426453287 -0.571879420421228 -3.2422970977387453 -0.08074678033176418
Ni 6.1324582203568365 1.7788784287110908 9.650623202161613 -1.493567453237731 0.5477251917725275 0.8637543937245123
Ni 3.895950982533061 1.5654481182290667 0.4242609558691367 0.37209879125204304 -0.9169361199538145 -1.2492221500842937
Ni 2.2504287917603083 7.463388027492202 2.7651551678520883 3.774355015287661 -1.7108308125727116 4.1432214156453355
Ni 4.957471755412712 8.666638080599007 13.318981001153382 0.07318130927968042 -1.704938872568309 1.2316833698695822
Ni 6.669055056034006 2.9119539778318355 7.798169863644114 -0.4999515239326745 0.9795442817033387 -0.7792995684135416
Ni 4.521269159318567 2.498914361169848 11.283869196652839 0.3078165842342054 1.090827282950747 1.5696649077229419
Ni 4.08210491944541 3.998758413343431 3.92441018543917 2.696982829400555 -1.0208341415910611 0.154618687920566
Ni 4.877315414986277 7.741179244912594 2.3723863574997903 -0.6360158458898209 -0.373174540814725 0.7055184207663333
Ni 3.233712808144365 4.715201981588756 5.917579995138406 -0.7537605436021728 -1.3888471928095047 1.8662791954834246
Ni 3.8615538666675486 4.004160670977372 0.009282559436999249 0.00258832955246651 -0.0350680473477267 -0.46602684616077156
Ni 3.2356963782062342 7.0545989181056505 6.0527708068620765 0.40262755596851946 0.9778262705709676 -0.730994967770883
Ni 3.448139474095254 8.902079620154682 4.202430838843676 0.8941988262572987 -2.2569585779511323 2.487199323382388
Ni 5.408363739015727 5.3497433021181635 5.442586264152292 1.1827334223334407 -0.9250541210752584 0.39362740935243823
Ni 7.490463301792933 7.954481583132562 2.4268641494570806 -0.5147109416300361 -1.1850656700110431 0.9211686699779232
Ni 5.471865403623147 0.34755986651821524 7.935474045866883 -1.0153738898074385 -0.8944237977839112 -2.2129688026337435
Ni 8.845506739450016 3.8271476099261745 11.62506335722135 1.1690029601212253 -0.40067968821352934 -0.3364545596858722
Ni 3.466302394431362 1.5635011116706417 9.399091892915136 0.2923349436588385 -1.1900088729489313 -0.19553830895306326
Ni 7.603992979988433 7.908247033026858 7.698512378655497 -1.0359784534316674 2.7288346838038295 0.3295604036692002
P 8.082664085333487 3.1106583373015444 9.591449742274449 0.787875740118327 -0.012458023257694673 0.35059279885946715
P 0.41022148463399427 0.5467907404375268 12.053258546061125 -0.1501035736590318 0.6849501096966784 0.7233395081081543
P 3.4023985312860523 2.947201195152435 1.847678144967633 0.20844550393303454 0.9596966508497923 2.3880172191635713
P 0.5178525556362936 4.646124382706034 0.14267718905395388 0.6984468586315326 -0.38176665335911025 -0.1568951426595685
P 4.612723622309388 4.061601934888847 8.268454215386562 0.8949089649504458 0.2943247203953576 -0.5035497828068941
P 2.9848433219486563 8.34736556852071 1.116774625197553 1.9294404015229414 0.1482256399100286 -1.4508022943560628
P 2.492881383101488 6.065620136060097 7.76228826953875 -0.21215329180192496 -0.8084371092094463 1.3578718274739132
P 5.134941860256967 5.062546123436648 11.910562161167864 -0.806008959383928 0.6012239350216162 -1.4913138813168638
