# total energy = -340890.2337689301 ev
CRYSTAL
PRIMVEC
9.11721239826756 0.00000000000000 0.00000000000000
0.00000000000000 9.11721239826756 0.00000000000000
0.00000000000000 0.00000000000000 13.34396192681479
PRIMCOORD
 96 1
Ni 6.471470096745223 1.9942351574952284 11.502334977566345 -0.1676968612607628 0.5647471802518209 0.4869893073450516
Ni 4.6065899447340435 0.2134977560910597 6.012788625579509 -0.41982489368341247 -0.6673889608844634 -0.34017803128404644
Ni 2.5111081467045357 1.3405766349283528 4.761112102539642 1.1221068097903193 0.5462851168918914 1.3022485816826541
Ni 3.294440777179476 4.394596528641918 4.7795936032174495 0.9570203895692099 -0.8238303038360649 0.10162182400856046
Ni 5.02570818564902 4.7416796766382685 2.5553020089883547 0.4512892828402808 -0.7632774819536726 0.27542942615275146
Ni 7.196379631988856 6.284530779544426 2.7497767020019928 0.3971282234168451 -1.3320276127172994 -1.7244288629721205
Ni 5.149410519621925 4.344816550495392 11.595969657706021 -0.5637447071292355 1.1373331398217703 0.9857257279237024
Ni 5.415405183069704 7.84577129928603 12.499209126750497 2.566572106184761 -0.637381872999412 0.44283600986660504
Ni 1.9601914874587583 6.299182139412826 0.13663418763646312 0.2636584016597524 0.894651083303369 0.8464632107442326
Ni 2.93014433271048 1.6437330549558467 0.34817903689254376 -0.5237758800457818 -0.26767343635641644 0.38153294008174937
Ni 0.3581250035885226 9.270016589791428 4.729139863095643 0.3447353116374256 -0.6322774618933111 1.01635733676663
Ni 8.876426542797745 2.102793802145536 1.4066800696451234 0.5700382534474311 1.8941838923134926 0.34755915423946593
Ni 6.892174732568166 0.9072774822900964 5.05960324512802 -0.32148971084592376 -0.9594271992384897 -1.201597606227795
Ni 1.0009696008660953 7.353906822907477 2.1328587208151295 -0.18378631062345765 0.14103066482348614 0.9726570676652022
Ni 7.754471537168941 3.826074532802561 3.7972112626896903 0.03201949032939002 0.9875895206053185 -1.2822610828171337
Ni 7.658813747661002 4.19331583678462 12.833501737871066 0.452955100578478 -1.4791278807736332 -0.11105674416921518
Ni 7.992175491424658 9.187596992274102 7.1040186263816105 -0.19693801751406728 -0.3263172141415541 0.16892764834407034
Ni 7.232976121417456 0.8054227237077634 0.523939740319449 -1.8340961829929767 -1.4675028949401951 -1.3541815231065193
Ni 1.7691494248063235 6.801978153116963 9.31497903305652 -0.3783360304110065 -0.6224363074331731 -1.6333958702229996
Ni 0.44014982582127815 4.644408140586019 1.3550657084211104 -2.1496448457641173 0.8470203687992831 0.087342688381727
Ni 6.51053735065692 2.199117148137851 7.130892520811043 1.3070184922674717 -0.1680503879454396 0.7049934015007987
Ni 3.6108627408339284 4.348080512432472 0.4940252556497485 -0.6833030610115587 0.11346741049323684 -0.6643650864564752
Ni 5.971254254069562 5.680378718760633 4.819305444025658 0.059107861905749806 0.45583267923658916 0.19233034353872686
Ni 5.328919308949202 2.796978332562467 9.241454187678343 0.4573177484225479 0.4290096455064741 0.7690719771482626
P 0.13821511221716046 5.718479548188166 12.518664345682158 1.0035835820407297 -1.078782178860755 -0.5135714287089542
P 4.005255102493708 6.151692999032543 12.575269468817783 0.31264125931635833 -0.06827641577889532 0.8451069538266541
P 2.6207426223843835 8.767731139965717 1.5274968059837097 -0.4879951229017466 -0.4900766880211237 -0.6116793260269852
P 6.419921379448437 7.878401801444714 5.89396126492436 0.1895612654340219 -0.31019793998218836 0.16700317762784786
P 4.8473755166845445 0.8493248352039106 12.716421235057105 0.9388259780483703 2.242792827973712 -0.4027142021450548
P 3.7358141328665533 6.037819019719339 8.551611273670456 0.6170452183245889 0.5354340331100005 -1.7399557549631262
P 5.005030348572771 1.066020909304824 3.7199629478838516 -1.1692865527999152 -0.1031410888665643 0.9851657416551743
P 0.2726192297703562 5.640308571516314 3.466641209275572 -0.387182682168359 -0.2006319214258867 -0.40430134412651664
Ni 1.455398804301492 1.073013810996836 2.682456119467903 0.35647136912743127 -0.5517942196355787 -0.7944096845821028
Ni 1.796437240665765 6.320899338670157 4.8373192317219775 1.0543291880247134 1.018674157825265 -0.5953543636147166
Ni 5.867390973658349 5.85758085342288 9.365686231675115 -0.34292422657061583 -0.2700455361330188 -0.259576775391211
Ni 8.681017335542347 3.0709596738227667 10.4446389946435 0.29722672453350096 -1.4934949481285826 1.5163661962998012
Ni 2.2078696717680093 5.169586910031863 6.987979309191153 0.0941864507764378 -0.15263276783878876 0.7375728780987169
Ni 0.2772179515610352 9.07486266447524 9.286650031573574 0.6214829423809685 0.05287859316658635 0.26991775230590287
Ni 1.2062345144175373 0.9708372148268523 11.523871656023804 0.9014570504816086 1.1939413752341181 -0.9500128479031251
Ni 4.247891468503503 6.933922446841598 1.6147932002612126 -0.5498640924924014 0.8631067328381844 0.04462252380538122
Ni 5.718278969521641 7.972573485377949 8.078527342527073 -0.2697269764513355 0.15499638297495885 -0.14165904243610442
Ni 5.040049560305519 2.5515520996455594 5.401102100704088 -0.6104901908148905 0.4615338433864245 -2.176527014866942
Ni 0.47433390092431527 7.31412842645083 6.760557746758449 -0.13260567398458453 0.04643746552693293 0.789683225640711
Ni 5.117782910795864 4.658940976696928 7.037325308041016 0.8144403779807329 0.31317733432548645 0.34479778944424494
Ni 8.16862089748138 7.117935138953563 9.162124413346708 -0.2984487698660602 0.3350394245059004 -0.22546774952264395
Ni 4.753705279417621 0.08712407896853425 10.582308897576196 -0.4876428817686505 1.132925497672378 -0.41389747245538394
Ni 8.262063204445436 7.233085527962833 4.572949255473046 -0.19222518541943026 -0.10877000501756752 1.2240068271609306
Ni 7.388843979731193 6.122189700629218 6.939620704413317 -0.39966667356798263 -0.451229633246939 0.10897852148394782
Ni 2.4206836369504625 5.271189121838616 2.427706625442453 0.42162749410978995 0.23207085666145838 1.4038554932928788
Ni 2.4139916032582374 5.192781097651782 11.459940852953977 -0.392047466459828 -1.0574232535690047 -0.48950667445026674
Ni 1.1074404039421253 3.2119391247531186 3.717453891109873 -0.30072702437727566 1.045966932102947 -0.947337357953491
Ni 3.78302305719672 2.562957732001109 2.4638691355743907 0.7206681319235781 -0.1467292578701602 1.3883340006185123
Ni 1.0140163314023 3.2982882406918996 8.277072870749945 1.5115597760500936 0.14608468230762583 -0.10440504318065245
Ni 3.762864901211011 2.8315508009015926 7.28537638632576 -2.4318424438786375 -0.30024339987263776 -0.14506678256607275
Ni 4.209052144894676 6.79101014694292 6.297335903959589 -0.5639809915097578 0.26658457416761183 -0.22632984041262308
Ni 0.9226709832246374 7.608742018726805 11.399386153530243 -0.054705361962679985 -0.23409637173191944 0.741180392944317
P 0.20078471551825475 5.517034746512803 8.157430431331738 0.4662222500010293 0.03577818604087387 -1.8124078993862656
P 8.575950583131988 1.7982424486644852 8.586999732493851 -0.6409731898950961 -0.9231425058748424 -1.4502387085431088
P 1.880780569939301 3.1210496371811933 10.626891153096103 -0.3090183178517904 0.47075279088153116 -0.18662018052782697
P 4.061845638089951 6.220044738256812 3.8089806718086194 -0.5265444439298544 0.8907028972888983 -0.04365758878895062
P 6.7621906394482005 4.141438899851702 10.356729011990673 1.222529728394772 -0.29529376917684624 -0.14255018679180612
P 6.51579798204713 7.792754710838769 10.373422627372776 -0.983257468888868 0.5752578499751576 0.14125152258504062
P 2.2056450720120107 8.226697538652326 5.873571531750937 0.904110686054372 1.5672583551639783 -0.17941003593263297
P 7.072412898864624 4.167386485530276 1.629804690008146 -0.6132746955385632 -0.29060999054793174 0.26859311995720836
Ni 5.4135999750709844 2.942169935489833 0.6123894619294676 0.5639797059581771 -0.625599021431871 -1.4533309743151872
Ni 1.1878724492184343 0.9130067383830042 7.1878714496433735 0.42986196620444034 0.6219223439112321 -0.7441428180067508
Ni 6.739096741161544 0.6990877670922432 9.403729622666324 0.9147519678183021 0.25079645809541967 -1.0695555180561644
Ni 2.920033344475224 1.6746677556611875 9.309828719932899 0.012867857101603646 -0.9831409979156617 -0.13530944606899278
Ni 6.513938070775722 2.0116399154222826 2.448763738542676 0.643398254396821 0.4787211537989884 1.4044543032191426
Ni 3.747183296373644 7.051862702757982 10.555927332600962 0.6320879715903244 -0.07740228933956347 0.13501891141176747
Ni 8.451537106614133 7.226739948330969 0.37812360836222286 -0.16908834229165073 0.3806459094911057 0.062220439392802515
Ni 7.856356382551253 3.8448104036983684 8.3451137130411 -1.7467527232803015 1.1948440895540453 -0.6763099175231772
Ni 3.2635698969589386 8.513351804752126 12.788972362181424 -2.0778069378862085 -0.7543938063107976 -0.3846005232634796
Ni 0.24968305925328402 5.3362677819136906 10.310305079623586 -0.3734411642125504 -0.784676516454739 0.9511613596852715
Ni 8.737771980956653 2.4065975442331764 5.651687763956732 -0.05340386954243705 0.22429018427477504 1.3695880874695767
Ni 3.7776256676247884 2.5276923555412627 11.59890540000697 -0.0894543354080911 -0.6953463653293379 -0.23513124075433697
Ni 1.1203686107208382 3.2350056714034316 12.75661355294376 0.2728279839741624 0.4948471128265736 -0.23668598683596653
Ni 2.9858960847921656 8.478861391322035 8.007684780953056 1.2692860107137043 0.12719195916818093 -0.9552285877761097
Ni 5.778944898933177 8.036685720968858 3.6584208543880896 -0.5209114140137932 0.21957400974602828 0.3018904485577575
Ni 3.042513972024752 8.401164509680148 3.658634197151575 0.935488429034705 -1.0586697243815963 0.11590841583456167
Ni 3.4784717037156687 4.139925442640655 9.482045563010802 -0.4285566171294555 0.4115078891772848 -0.3528527985382374
Ni 7.309360124514817 6.185818723978046 11.630063472409123 -0.568238481234531 0.32967867441461934 -0.8910728790338074
Ni 0.682180808946654 9.16489513410838 0.26633838234450613 0.7254272438751184 0.02672713158219913 0.6451538036353469
Ni 4.821145297430414 0.3274948177678144 1.5799253342495696 0.22262668052942303 -0.4877927770829534 -0.1530199759748784
Ni 5.927081361373605 5.675920402036521 0.46309511355046507 0.2941388296367966 0.6718243709479979 -0.5815241425998435
Ni 8.0851163517224 9.101220524698977 11.421043179187617 -0.3799103168766618 -0.39045775337520494 0.5675779648323968
Ni 9.200908121961636 4.86038577837229 5.626361060423172 -0.5555842828056302 -0.23379143889699092 0.4039030802468334
Ni 8.109368135947632 8.83513468913005 2.6624803077244894 0.3405133031362781 0.2890043366237087 -0.0018599360268742161
P 8.438225976926601 1.7170263231463079 3.613277890323125 0.25913737386094726 -0.5440703686287598 -0.6142447727613164
P 1.9676858358170815 3.178870996412927 1.6164078585267347 -0.455198645197016 -0.2641628520999967 -0.5642730688288798
P 4.854933685527671 1.0975026427370498 8.007110396589827 -0.503877598459958 -1.371752185000431 0.8477181661972562
P 8.47501392780961 1.9774959560525505 12.553518535875629 -0.12144117272733278 -0.9741889309286963 -0.6645630613998942
P 6.687803305803969 7.920286273899867 1.2936621965494925 -2.168089939843182 -0.6767392917511119 0.3562116877081414
P 1.7331273197409534 3.1480365850408485 5.751287835983088 0.755710211129376 0.1259550014372863 2.449296377689027
P 6.816729802318625 3.8787081983410023 5.7090942900372434 0.26902455106767215 0.6079625392970304 1.617342159194247
P 2.363099325233713 8.778498567473234 10.030282673616053 -0.1912437953427674 0.5474768232071474 1.6958597930851762
