# total energy = -340896.1001864142 ev
CRYSTAL
PRIMVEC
9.05882588965275 0.00000000000000 0.00000000000000

0.00000000000000 9.05882588965275 0.00000000000000

0.00000000000000 0.00000000000000 13.25850736966661

PRIMCOORD
 96 1
Ni 6.455373672650183 1.9613898023328455 11.362342167622918 -0.423191239052484 0.4378989775763039 0.3699434354719371
Ni 4.629503905431899 0.5349245738982841 6.166134421234888 0.8391350525139354 -0.4677278880122784 0.038585573582681935
Ni 2.7384558860311765 1.3095348099014572 4.881570264862394 -0.2433376878245293 0.6874569352789321 0.09096408718439818
Ni 3.426971946785334 4.347756303016586 4.712007162103414 0.2916250620760074 -0.1783222021850929 0.8043464840798406
Ni 5.015138123000539 4.361263012398659 2.7089648783897693 0.16828641521564566 1.1385955514739616 0.35350585874120405
Ni 7.168611269221697 6.057238275371778 2.649619604189301 0.10446186456051687 -0.6104338836556583 -0.5390819142752329
Ni 4.956002107677821 4.598459309152648 11.319941427224709 0.25590421163563026 -0.2861750947050297 0.7930847951230922
Ni 5.436527526304284 8.018238548191928 12.325731993717193 0.23242849711119323 0.17305529735919872 0.7203536860069529
Ni 1.9115753188371927 6.388374596466541 0.3427071593869977 -0.04402165699658871 0.97051276762869 0.8102448518421466
Ni 2.904286752528981 1.4445928448963095 0.45902429540825335 -0.7588323016981253 -0.7631062464831309 0.9576639366904798
Ni 0.5881016935593466 0.07200951277601308 4.828947545344982 -0.09485776581184953 -0.4426375207025538 -0.2072057179886625
Ni 8.617488938757658 2.419150391531307 1.3807281224659849 0.2336153183304428 -0.1180015509181645 -0.10434719335952351
Ni 7.003088402803698 0.8329599452397982 4.928796641805091 -0.8961063276926567 -0.7172596204626615 -0.8104744513544493
Ni 0.9657433090570255 7.355413317623927 2.786461321999264 -0.43641776504508717 0.01972936010812731 -0.6356029267221183
Ni 7.813173906822388 3.8079771043310098 3.8655839898457502 -0.4741163080371254 -0.13287281160304212 -0.8117337776828473
Ni 7.5759776100684 4.024836336991937 12.589933556292037 0.8690776057096387 -0.48691268847084523 1.0136828752582607
Ni 8.169566234461229 9.099409416569124 6.9452967172410744 -0.784138641673398 0.17115370946111166 0.6892880749503999
Ni 6.763699870187563 0.8631439530607685 0.43178168834942854 0.4073581286749694 -0.5094489219001485 -0.01719245261888652
Ni 1.7637805746597819 6.451623318737254 9.167223787081662 0.8115496866964991 1.0524664237843617 0.19636928949479085
Ni 0.10382048572442831 4.835012429269393 1.2936030528322073 0.011166301029464639 -0.08040379517004863 0.5028447863200695
Ni 6.542166283374288 2.054134061657904 7.005477215187368 -0.019726531894649898 -0.7867917630255288 0.7524881046476524
Ni 3.545624448117588 4.386691136634393 0.5019404829988438 -0.16380626795710498 0.6465481128797124 -0.38808385382638966
Ni 6.117551938058458 5.76905890658405 4.968479734440307 -0.8020972830343477 -0.44947125579493563 -1.7321398584631331
Ni 5.5605156760778796 3.116707160510354 9.073194080364708 -0.6967666427156323 -0.02392540046734589 0.5780930054311076
P 0.24834771140813405 5.56167520579009 12.34125700950458 -0.2652810248648399 -0.16158354927417334 1.0274369916195596
P 3.993393152374114 6.334528935455783 12.53691315431864 -0.664398510797572 -1.5324042235992705 0.36205194853900224
P 2.3803333226498973 8.388952879541739 1.4741336760800383 0.6268313511770752 0.41635596129820557 -1.001238735957637
P 6.549304638165083 7.898308752411067 5.875600663601822 -0.7106174325557955 -0.021224970817047318 0.09717381553953588
P 4.799474655355327 1.1156306420119402 12.551868369958388 0.012962216587622836 -1.1260673370999639 0.3681086962560435
P 3.9055316001965656 6.224708789353254 8.196727312087162 0.12715159284854877 0.3001950631332056 -0.3948463693612039
P 4.7783041792816165 0.9598731898889618 3.9689741813410384 0.3712585547389348 -0.2507681759606455 -1.01777658571166
P 0.20215313473278704 5.463559062720183 3.536759481114706 0.5522837576774875 0.0362569254495053 0.31129297281858
Ni 1.414535660637612 1.0670300411837572 2.5289805023423 0.3462908290500036 -0.4503767983283405 -0.003003048492381925
Ni 1.916014143516747 6.289968570968582 4.88009820565744 -0.27431253893948887 0.5088619390484268 -0.3262156555666833
Ni 5.8261657449104005 5.727152778078705 9.223121272153481 1.8030313432673721 -0.8698625635047792 -0.7500712676760437
Ni 8.623911646304197 2.458030872193854 10.387709432733145 0.653259720571933 0.40082984063814836 -0.4076643470614786
Ni 2.3618623766874247 5.148900745895031 7.125241234454687 -0.27419323975280524 -0.25920010877808264 -1.1412085636167766
Ni 0.368192354225754 -0.004854624787292323 9.223784378207652 0.0666098267097498 0.05840389386018974 0.20795982254586765
Ni 1.431276370857646 1.020603558565968 11.50090687411462 0.023807129721926744 -0.17164299039270436 -0.2012998940271888
Ni 4.150065545910633 6.844006361583992 1.5903973650286216 -0.27115239604395236 0.7828109240009099 0.09676449591625916
Ni 5.625920398907233 7.988081716848587 7.996431236659088 0.543201078649929 -0.3064934945474076 -0.1981513210958781
Ni 5.331345499050596 2.8695733317696894 4.862849295305726 -0.031015731655224008 0.10673317709319684 0.1998888726122751
Ni 0.5402837752869053 7.295217419673643 6.77143791925139 0.41273456249553436 -0.1454789304028269 0.4295318365585312
Ni 5.077725550982257 4.690551333014588 7.058869029021707 0.3803453475315514 0.18645280171202727 -0.4203609686925405
Ni 8.1534052890973 7.030672527598073 9.144061275197679 -0.10679359801748704 0.19320014773818983 0.050052436571700894
Ni 4.461408332464934 0.11917428970274845 10.259989952580959 0.2534696340522086 0.8119911451092919 0.14580031829798762
Ni 8.263306964632717 7.175731506360737 4.64701370996886 -0.21259757842819516 -0.33179572075762215 0.3021966669442666
Ni 7.22789222575844 6.088337224606289 6.916246874419859 0.5162006388016851 0.5663988569226309 1.347918572915943
Ni 2.533481832920403 5.298090549257444 2.616168983757214 -0.9330857331304834 -0.2489699464096422 -0.1640268686083433
Ni 2.274589648191858 5.297420196142572 11.472825419779618 0.5129679907970004 -0.5120542207334794 -0.34665258326479653
Ni 1.3044618674105377 3.2720932007723897 3.562693087834356 -1.0001380466942904 0.41864784265617583 0.5989114848383557
Ni 3.6518663579988426 2.5084975911526253 2.817340141764973 -0.345097837183167 -0.40555758513112095 -0.2777794144421668
Ni 1.1443018259115114 3.3400706301507097 8.215368563976117 -0.4879735256351919 -0.013558969631357293 0.23250460176476734
Ni 3.663488831598574 2.874800274300512 7.092346825931425 -0.7422088342088314 -1.1649339322581742 0.16780998979985937
Ni 4.0924695309869445 6.960312627014195 5.885690383863225 0.4367728343916607 0.3620987426165377 0.6259294081880962
Ni 0.6672839846644846 7.469907817878802 11.384827985213919 -0.05495527318995697 -0.04021153922187913 -0.37141282092861194
P 0.18855855473971073 5.5146417818385665 7.938862398213029 0.1798970028713805 -0.4468996384130174 0.4151264597664786
P 8.517271148084369 1.8548217747200317 8.303789951592842 -0.24653408327463994 -1.0742524093112016 -1.4015044765621991
P 1.8426467127418253 3.246021899899415 10.429579325934982 -0.24039043227074733 -0.4843693532237013 0.2740384593424958
P 4.208304737471563 6.228776202171866 3.7848798159933366 -0.05388775115739106 0.009477600473132064 -0.0624639228621763
P 6.959750979809844 4.090703059941 10.547009791656476 -0.3932317165759163 0.1623224843227269 -1.4372903759125568
P 6.399634717031207 7.857399094752154 10.200379254782305 -0.5771239566496189 -0.8510973670821342 0.1460252898246001
P 2.2905331817347476 8.310331329758366 5.94302006930614 0.4081060625845875 0.5501050048586139 -0.6315282424321124
P 6.796230113910584 4.052058108751246 1.6105641231952015 1.4698791084818559 -0.459223450085693 -0.5535842216564659
Ni 5.421444581219675 3.0639123233012855 0.12746855067540164 0.2254286687545924 -0.37401349177625265 0.833311503853623
Ni 1.3457519957562711 1.07694945551868 7.069064737545867 0.5026627522162505 0.26776265363611307 -0.17173529299619456
Ni 6.745863042036455 0.7533718187353866 9.356900200934552 0.8980356835048856 0.358326420058299 -0.820956838943012
Ni 2.4760669945142477 1.384070829214466 9.27026883731105 0.935074481425738 1.0104461134885176 -0.3120815301581464
Ni 6.435525785154462 2.0577032390533008 2.5930988718971704 -0.22030857391920772 -0.13901183462124447 0.38456375648827323
Ni 4.243081570011991 6.757576103894953 10.368988463176475 -1.6791463369852373 1.1348242573569876 0.5260484781300425
Ni 8.258424257485208 7.070612890888186 0.4189290261956492 -0.34723288124829876 -0.25927261388723094 0.17540734253114307
Ni 7.57953772863792 4.000169154129842 8.188587051154412 1.1037812720082538 -0.009077022600603722 0.34403777134976876
Ni 2.925946405200031 8.243613077176898 12.209958387248534 0.5878002054165425 0.4009879634825675 1.226018972494953
Ni 0.17746511657117522 4.872579380179827 10.212988234520003 -0.7353020797866692 -0.2305055690568675 -0.16679388983051918
Ni 8.775547332653302 2.3496057852763284 5.623927457214372 0.48171057544461554 0.24082392026374005 0.3457285287886304
Ni 3.4964712589109297 2.6549516291002924 11.894883364433058 -0.535635093377213 1.1654712928188833 -2.0933703395421044
Ni 0.9961356698731587 3.1629977607399926 12.566001950091126 0.26634083358792193 0.9252145579125227 0.49575188402903003
Ni 3.263641316229483 8.517416089298395 7.8759905230987854 -0.8096036187137218 -0.641136712056154 1.0983816982592374
Ni 5.806643975146237 8.027822785969414 3.4850652912496503 -0.9253577683586064 -0.38939434510769716 1.1095390004276375
Ni 3.0552339681114624 8.353079929070239 3.5774100563535485 1.1053236767947092 -0.6271987618188231 0.5633960655405652
Ni 3.4182120621626213 4.2982498196007395 9.424651159665956 0.28331268555557015 0.23880457584086615 -0.7093421653877976
Ni 7.238119640173169 6.174387011608509 11.485686234876686 0.06087241000534033 0.27359494404717394 -0.5526444834510159
Ni 0.506827719559292 -0.030395078463896122 0.43940559620721026 0.17798050257495798 0.2595379517334756 -0.339603389727499
Ni 4.758266056442485 0.34385944203850655 1.7145639736719873 -0.5555791405993078 -0.18447588049131455 -0.22336150181291856
Ni 5.845442926375893 5.6795486480969535 0.30550346739421763 0.6329042968440326 -0.016905517506087014 0.023601441469023866
Ni 7.702792113515508 8.729691556065744 11.77648451022535 0.49971292555930713 -0.2270597766001122 -0.7097820811386937
Ni 0.006910978261290004 4.863583966084321 5.81284745910656 0.29297334857378576 -0.5965373281792242 -0.20951482573781333
Ni 7.973651007227097 -0.5241500064006064 2.601942097717948 -0.04712883516700271 1.0224343961986457 -0.8324861797388501
P 8.564032807259595 1.4218098978165554 3.489612821839724 -0.5591272629618822 1.3476324091340919 -0.41927904848227143
P 1.9683741570837365 3.3131387408194537 1.5060071549270022 -0.6542125714035056 -0.6553142891081165 -0.8225956600980155
P 4.757160879685534 1.2473278526065583 8.330227229031234 -0.5364316211365794 -0.2907650280685573 -0.4256286448493831
P 8.539474330308018 1.5536611084510763 12.379163666385388 -0.5890798434599146 0.16524942816153476 1.5438947407373733
P 6.280855392136679 7.710211291908478 1.2506071475739027 0.5232794000253375 0.40587923013659777 0.3883579334233828
P 1.8591337758373132 3.1597456422502783 5.754272185105608 -0.24597975343306672 0.1610698428625484 1.3719442464065792
P 6.948173800339496 3.85788217608543 5.979520796410893 0.37755390082934326 1.3611679817266815 -0.5397187765282834
P 2.342730136435957 8.415132886325233 10.170083823403052 -0.7138845333428414 0.11439737850667396 -0.805129127882136
