# total energy = -340888.8303789507 ev
CRYSTAL
PRIMVEC
9.08210702157429 0.00000000000000 0.00000000000000

0.00000000000000 9.08210702157429 0.00000000000000

0.00000000000000 0.00000000000000 13.29258165952169

PRIMCOORD
 96 1
Ni 6.46111084284193 1.822887865788538 11.167496849561292 0.663821041027547 0.183317084296523 1.856493319741254
Ni 4.6197772176796805 0.4368911257354383 5.826989048045299 -0.3446998304137999 -0.1758760546374455 -0.4995553169355203
Ni 2.6543547641949146 1.6098670454485973 4.495671133353811 1.00641539506257 -0.3581436146235316 1.2384649115677897
Ni 3.9178393297055454 4.46474565071303 4.981076150200307 -0.9514423812608002 -0.6844991382021888 0.2066850695985021
Ni 3.5934809593102934 3.1699005696349793 2.560270492860549 0.7135114662741389 -1.159050219783888 0.023359500661546868
Ni 5.188971029333688 4.986285646791525 2.443269340862624 0.9594727077644443 -0.7471258118944745 -0.16375098923913736
Ni 5.298728292766141 4.961518740926377 11.254908496862242 -1.3411707126691481 0.11554331918565908 0.22137558173114133
Ni 5.7056884265803545 8.330090401797179 12.278809803608365 -0.6367691791160776 -0.4182817175660086 0.5362007360726959
Ni 2.039496118404508 6.7148013384529115 0.26800207986558255 0.37010464364014967 -0.30198223694061543 0.9643544613367778
Ni 2.894858040401351 1.8443852131236322 0.20162822528411362 -0.7542657653733655 -0.1352806497135864 0.13780778701081428
Ni 8.146858892508826 9.110352380780123 6.825661169678553 -1.2072409205565016 -2.453997382709122 -1.8299356238573838
Ni 8.946992521668868 2.4664096413590695 0.8352405138764787 -0.21461923684391426 0.8027313170739208 1.246800942237311
Ni 7.029641660682899 0.6759421730281098 4.403579476301372 -0.09671641628714311 1.2361285501251291 0.6739812693900006
Ni 0.7891796998736629 7.566475924996418 2.4005207712928924 1.0321793914005515 0.4606864077844646 -0.49870325334787013
Ni 8.023278662179875 3.904316072340968 3.4910974585738113 0.16616936887264286 1.0166576416158684 0.6918936308940471
Ni 7.8724793570882365 4.050183793316443 12.6876626485272 -0.8984084934632721 0.31137807633321857 -0.5596844210169329
Ni 8.218180678999108 7.2214648432196675 8.951171199112416 0.5672892299473843 0.47290377578626297 0.6159784676229714
Ni 7.149570883986627 0.8624196273682418 0.23492777070199433 -0.4524290528716789 -0.3137658598391048 -1.0842974522520294
Ni 1.9309104467786573 6.358364966035034 9.228521491741839 -0.08880204653607288 0.8527906956241571 -0.14655725106867015
Ni 0.3179990790543002 5.222066227343441 1.4172818741321869 0.30976522332014395 -1.5443824790070695 -1.1152152248768084
Ni 6.501162934835072 2.112770557905793 6.692668243625862 0.29896838981495605 -0.16823550737305218 0.0197535284778434
Ni 3.406244240822627 4.523098188367436 0.29450639280517105 0.2985960940772019 -0.19315103966780928 -0.08487880022226672
Ni 6.249797458623239 5.7096936357796695 4.843298770165305 -0.6594961883999481 1.4078229625810592 -1.2471927783590908
Ni 5.321170179232139 2.784237976801245 9.411148132702131 0.6687030517101967 0.9038353209057983 -1.021467404299686
P 0.24608968023931205 5.732952911878181 12.36598259149448 0.6231551878770687 0.12178184389620315 0.33163939768541595
P 4.038395218394199 6.467895176791789 12.706445354071649 0.10621381425461707 0.09630632533291802 -1.649041804290373
P 2.624747095283884 8.775558669409786 1.2322357598596556 -0.9105577272312962 -0.18389378273559942 0.02822737027680945
P 6.380071201831771 8.17343313767253 5.729474464886486 0.48464214726911375 -1.6700405180292268 0.4591542874106544
P 4.804180318774634 1.366484741314309 12.62994676657545 1.5267123154208158 -0.6492691113553011 -0.48154988149703515
P 4.001975969212227 6.1735531701238235 8.13400952748572 1.5685886439396275 0.5310032510321564 1.7011395534268765
P 4.783582100035304 1.4227393122452658 3.739868176807766 0.35692516883539815 0.29366908908922973 -0.3067812009911556
P 0.6435653696842661 5.792304481305659 3.523278088405852 -1.4996128881008626 -0.8899601055856029 -0.035846577384964065
Ni 0.5952603670348506 9.178468183489548 4.383706917913573 -0.21619609441273088 -1.052110840217156 0.6534746647962165
Ni 2.070765812901648 6.213024007267178 4.955567236190979 1.2199516832549506 1.0768111711773132 0.1602784573095046
Ni 6.13394610137505 5.692401303998503 9.063945538499544 -0.8213185931578049 0.6533149992899007 0.29822611233229285
Ni 8.51678219386317 2.260391125537658 9.935726093581465 0.9647378128181257 0.9914371764861828 -0.41791687802742217
Ni 2.536578000256805 5.123770582980227 7.1375053048000305 -1.3584387557209765 -0.1068211088213128 -0.7022294656024164
Ni 0.6627313401452926 9.240589795560544 9.20531216723198 0.3686522274643393 -0.38641546498503127 -0.21898008491577126
Ni 1.601011991096372 1.1649346221506356 11.593137969321242 -1.4413712308501498 1.7514210752902482 -2.502468590836632
Ni 4.323773185425605 7.105795128112036 1.5373137252453295 -0.2899523023592748 0.6302010389802566 -0.40427357621237475
Ni 5.867758626493646 7.968377325196078 7.9357108026380425 -1.3186558193960838 0.23972683054481936 -0.06376284417925794
Ni 5.866795923148686 3.3128166058263804 4.411116716923845 -0.4928120846744159 -1.5601063175002292 -0.6238393584282869
Ni 0.6986901265009492 7.459588607384788 6.884454189523815 0.8258488769279906 -0.9072672294054825 -0.02151216304016295
Ni 5.096015663902893 4.206841057441092 7.28461364159552 0.5782904661538943 0.8314533675989617 -0.3248586273181566
Ni 0.9537302232162796 7.705050714028471 11.797764198135273 0.4986430895338961 -0.7318837981337396 -2.097754070432097
Ni 4.596908472183369 0.5244144829528322 10.192618940130492 1.168218259436401 -0.28288588243079665 -0.016899861079132182
Ni 8.145205949029744 7.243080257946124 4.496667440494774 0.3285527883402922 0.6614525407953705 1.2772721142429744
Ni 7.292577741248307 6.307686808819222 6.985584359490444 0.05477143931392503 -0.39957154275101503 -0.9486923293194888
Ni 2.727084277274524 5.484738926805038 2.5245669137123765 -1.3245863259479058 0.08439157617320305 0.15262634008088552
Ni 2.8680022499197815 5.340605888271895 11.238240105833896 -1.4305353165769106 -0.6143162494292002 0.6119572622787202
Ni 1.3253791249059284 3.4093412393191485 3.5385251296843294 -0.29137283685588533 1.0644130546232764 -0.0764401825366103
Ni 1.5948089119963005 1.2150860171588278 2.5289136101359406 -0.32457452041883456 0.09643333782908553 -2.1202753914630645
Ni 1.0411364212530134 3.255908123189413 7.748006355638439 -0.23299619668920518 0.13091851609014873 0.44318953655128185
Ni 3.4700006321586487 2.5923330553012263 6.610666807481445 0.1889925374147455 -0.41870003605034983 0.3402266251337947
Ni 4.314273301474397 6.822851165764114 6.064567885788744 0.2842909903084394 0.9457093354317648 -0.0036134283828711962
Ni 0.670846202774742 0.3764942057890457 0.31850131957294436 0.21873480167418458 -1.0337693615954906 0.2793758123950092
P 0.2972900586092296 5.468863403720228 8.096232503303073 -0.32664940066999226 0.37659462223986756 -0.12164249010486147
P 8.59479749323303 1.6678835451429712 7.800485494677888 0.5021634439823287 2.145781763264285 0.4901373660557301
P 1.6528526580117582 3.0576548088768756 10.22553067957828 0.9266183802385847 0.5433951969386062 -1.1797288311791618
P 4.249962901609672 6.236782799252224 3.8774457504881537 -0.07963889197956607 1.5268511549915254 -0.2616987068302203
P 6.91728691464046 4.006217313194266 10.422845812234835 0.30396301481607 -0.8083226951187693 -0.5440667690843339
P 6.498510959582918 7.945127131204594 10.296846108593645 -0.9475592441563101 -0.14048224851918387 -1.6438283784102334
P 2.3793394812823694 8.415952641639166 5.541278675896671 0.6001183606622632 -0.15827325395401773 0.5052737074765362
P 7.137646077458963 4.295809377886629 1.565334750058581 -0.014005570250472653 -0.6969803013883351 -0.818053806363604
Ni 5.4278667725961816 3.1847679788396897 0.5927854928697415 -0.031050441547901368 -0.27139330841016485 -0.638525499685552
Ni 1.4339284681036675 0.816989111593164 6.753189588438537 0.4338078382260658 0.7137078985556611 0.6818683854475611
Ni 7.071982443647078 0.6332853327393597 9.043727860044685 -0.9612938201335832 -0.09882600643097819 -0.03462530338335327
Ni 2.842236312281563 1.7990927453753787 8.867455061161127 -0.5409017410927911 -1.4175725857686552 0.38377674181060356
Ni 6.813442102883186 2.0217950918070855 2.2306018144860698 -0.15106876578577855 0.587939044987252 1.3233377982527854
Ni 4.047777034954044 7.133804346186152 10.252275668354109 1.0979219850139996 0.39631678325914327 -0.19893216512596062
Ni 8.356528415355463 7.525261323303701 0.20697486169145204 -0.7170678161668296 -0.9707919894320056 -0.0639911581399801
Ni 7.5711895385439085 3.8760525552700704 8.160661878769863 0.6924875557243041 0.0857653165922781 -0.07259252665574595
Ni 2.991718711854152 8.738676232769391 12.317956409530822 3.0260056153987303 -1.661236546584352 0.8682075443998597
Ni -0.13697633819513894 4.6577767534845105 10.378967428550828 1.9334649493013023 0.019039276019638177 -1.072827761049533
Ni 9.029621531408914 2.2261152536142754 5.495618382813787 -0.210467933679702 1.5667924712711532 0.6294937285005868
Ni 3.978035535086621 2.9238572081415097 11.44816937694153 -0.9218407563442834 0.28829059838613574 -0.17829674826379616
Ni 1.288369538767141 3.612226428215927 12.197844635875835 -0.2130953440002201 0.5799537127889302 1.4794924632019038
Ni 3.2735001645025 8.50483922312145 7.852353407914358 -0.028626919708073278 -0.3172270789148279 0.45312119384269706
Ni 5.857532173980204 7.976042623527645 3.442618987680162 -1.2788533426871653 -0.56697272714823 -0.14743811101172674
Ni 3.0684715983471325 8.270375548088582 3.2867237123351565 0.3753406952281084 -0.03277359488659517 1.5255386068276888
Ni 3.4194677886552833 4.057440396831754 9.180574324109323 -0.6148173574353347 1.5722221269271568 0.053445521413649895
Ni 7.479360354384577 6.24900731531181 11.184112564368878 -0.5262652221265389 0.5477804704904953 1.2734869361689294
Ni 7.929905519825795 -0.28390939032499013 2.2347223664446383 -0.17775244572455193 1.129242649504152 0.5772525118076832
Ni 4.583212654785261 0.8891337369801754 1.5063955082901699 0.8750399939406607 -1.0501403467543462 1.1357614244592762
Ni 5.997069666357218 5.637690691262294 0.10453414368069418 0.4326202456758678 0.9999326155517037 0.7967810130277567
Ni 8.221195938532379 -0.2196253285706464 11.2123188641655 -0.7301902124814005 0.9373841033955211 -0.001808771073964627
Ni 0.0077206991844375825 5.193085223817337 5.824969187442289 0.6201914772630546 -1.0439925819853957 -0.3531582455937982
Ni 7.604539035550443 6.327948989598519 2.4776178696422297 -1.2428658688489627 -0.6458901675807392 -0.6274823544975128
P 8.705935236933728 1.8046964054116075 3.4052670061064223 -0.28491731103852863 -0.4457660390292065 -1.0606715853029733
P 1.8098732064175238 3.3199642240573555 1.2440661124742283 0.059494555821207204 1.2904459326207711 1.0731144390520162
P 4.806541666601895 1.32589680500652 7.94944204025356 0.28298409857155776 -1.051325625311699 -0.49676978377058323
P 8.629363992581307 1.8308710378660822 12.001672940494098 -0.7149965354600977 -0.6594550507493675 2.231723200423111
P 6.3296019330776 7.681237429401255 1.1387545404319441 1.2816365618592571 1.1045657155827622 0.09562266900233209
P 1.8681621693227353 3.649871761846669 5.653414543159737 -0.1622731191420302 -0.634698412629978 -0.35391517836448083
P 7.113396851694408 4.192527656765085 5.92252282366132 0.12534333599521638 -1.193255404910687 1.1843038521443539
P 2.6225128969550155 8.874453732836844 10.124693861668653 -1.5148803557828943 -0.9700808222975938 -0.7936465811638331
