# total energy = -340869.0665943837 ev
CRYSTAL
PRIMVEC
9.29780183834135 0.00000000000000 0.00000000000000
0.00000000000000 9.29780183834135 0.00000000000000
0.00000000000000 0.00000000000000 13.60827282662547
PRIMCOORD
 96 1
Ni 7.679956372543972 2.659245689994705 2.4346563583452716 1.5941292114128933 0.792044526784036 -0.27307918075302
Ni 1.3459590827156005 7.649989557423931 11.603174988764826 -0.22146659878305083 0.2817723376516438 -0.8865693347364989
Ni 1.7540303048079116 2.039695966535546 4.779252349139893 -1.4210523167871396 2.9216928748215683 0.400007344736853
Ni 9.140380692908606 6.798701422530727 9.52690704872845 -0.17951905070667148 -0.11839492970184125 -1.4335885015809373
Ni 0.08216467428352776 5.825054216281722 3.409920452322907 0.2881011080831489 -0.47551858770129074 -0.44743005699519073
Ni -0.050796680436030014 0.9466742833004352 1.748050888486565 0.6473523539485625 -0.2607800516706928 -0.5236979756199949
Ni 8.051319873229541 7.963269690422593 1.8284889609805206 0.3713030348236251 1.0412674697447486 1.5999280774828573
Ni 3.7699889834125027 1.2106853646946607 5.6786779931615445 1.0363078117466282 0.1347018943919809 0.38533663009855573
Ni 6.882911613204701 5.337700638456058 9.393082858004195 1.0880278658287392 0.6290353008069296 0.5112831468954099
Ni 5.365315109727087 6.56975235162911 5.473206801521367 1.1543970372825925 -2.932673542202788 2.1856413184633845
Ni 2.986463227853729 0.4982468823849691 9.669058350722178 0.8899763035355188 0.7059066573436875 0.2674831747224813
Ni 4.087601892038203 1.259359356985514 1.384110752737961 0.29476309348435686 1.3325850278826663 0.8733340669931475
Ni 1.88322326046816 1.005687431164818 7.23166750887495 -0.9705366788880898 -1.149971397411071 1.0401842639828989
Ni 8.75375949951066 8.429563747228432 4.3271039679541685 -1.6896621489148964 1.7416333997758648 -0.1292383001742484
Ni 7.296031541660705 8.400554605691191 7.941107450112282 -0.8301881277332929 -1.3547019143863637 0.4832439813700065
Ni 7.905372278771181 5.865053359516727 7.314908868603995 -0.20738800920279765 0.3821592608118386 -1.1719219335402333
Ni 7.143640570572438 6.295615964102175 0.6921190663111376 0.03616282307380223 -0.5738514565459342 0.24917717732444183
Ni 5.309602681492742 4.559846541979886 3.3968830746743435 -0.7210797655397001 -1.3049893776525847 1.1487547513951506
Ni 4.549814213864923 3.04189672203483 7.468900921157875 -2.7022926716492424 0.3881352758896154 -0.6110013261233542
Ni 2.3174491989528625 7.231653562172287 9.25833353600335 -0.6216557205134069 -0.46563989513499804 0.8579277597404064
Ni 3.6157849409781577 0.1873358292785143 13.022396100564624 -0.12281439892577559 0.03931859509396454 0.8454229424051763
Ni 3.9526442992776043 8.185663811073006 4.887519672125873 -0.7444199829275373 2.2072905213020437 -0.7891726045528796
Ni 2.5850027428232702 4.91997829812155 3.2417222884373755 -1.039200817023707 -0.12351836697133567 -0.8158210603783432
Ni 2.1523574306402766 2.448827138030179 0.3254202727759632 0.5967530437344561 -0.26973366131955484 0.1873604011279612
P 6.330603592180585 0.9516486072499303 12.535790995781829 0.4134642415727073 1.2284558640712198 -1.2485752605289142
P 0.8027703456721659 0.9117740545587073 11.091531833582787 -0.12280077207902076 1.1752034325049825 -0.8238056212457167
P 5.465638390876714 2.7478816343134636 5.574206962640197 0.9260265122908568 -1.001061072729192 -1.2858135760550824
P 4.915859371935332 8.360211443790519 6.974240200917429 1.6841034238801962 0.6611792325293258 -0.5564666854105835
P 8.99981652567783 4.463065723306441 8.514261142715403 0.249779329684815 -0.9191536964304234 0.320594452725164
P 7.444359373373404 0.5819456939613318 3.020315594335442 0.6713062936609987 -1.0194416321189088 0.8880374346415931
P 0.6471130568204262 5.372316354463479 10.965464798879212 1.16846405689862 -0.16008896700651784 1.1888994419348362
P 3.8074126355558997 6.179133103468018 4.233833069450693 0.9196118670137646 -0.19287541740891945 -0.5433370900071611
Ni 2.968137260555683 0.7374588668855627 3.3081030144280756 0.6588197311582138 -0.6640154164265403 0.5027218875889601
Ni 8.645114685772624 5.107077963234985 13.136378782301547 0.9859614980835922 -2.0358899859374486 0.33792137403938577
Ni 5.080142231493514 3.573740281352706 1.126016792393191 0.024840456082447542 -0.13457950988150372 1.9185826328728313
Ni 2.4808022783335684 4.814094931510616 9.652238627311643 -0.6984756549869391 0.2633339284407981 -0.04212881084925002
Ni 4.428896301784208 7.774003637495639 9.051188740043717 2.217290827047865 0.6855008399938259 0.1984948204782259
Ni 0.45095919233873244 8.089766283568162 7.384011990954344 -0.018312939376574914 0.2748375582050234 -0.3120136530346884
Ni 2.8598364654833133 2.914154223451443 10.854039942410523 1.6573611227893457 -0.8923329766931535 1.0926170278613183
Ni 1.1011014729773745 0.36275838514303244 13.120566010823218 -0.10579189622585006 -0.33885365604566803 -0.12011088395168346
Ni 6.555805648966976 8.438350169905577 5.439172198124869 0.5931822956640622 1.3475730166510664 -0.3367990875094845
Ni 0.9560464674893903 9.093640643386902 9.241282297328624 -2.1493733372702857 1.28137405222649 1.1419045612425367
Ni 0.9825266069438984 2.802654984568557 9.581340099438588 -1.2700316306304773 -0.4466350718977211 -0.8205277218253935
Ni 1.4957652649104856 4.727113995907764 0.7377266435766757 0.5276885848366267 0.3844776245323701 -0.2735234673792902
Ni 5.186183660734618 6.387245800592405 10.989388042845661 0.3375634764793347 0.3791952930875082 0.2827490997426163
Ni 6.985643025013992 4.31997255399293 5.389148165016322 0.3416695282279083 -0.355519289626807 0.22467867796244534
Ni 5.011505858792257 5.7760733965323015 13.617798503034562 0.8978791033223633 0.17081278118192517 -1.3042347588747474
Ni 8.184817711111503 8.861269981432175 11.1726774687918 1.2300424918320494 1.650857517342873 0.09723912155983254
Ni 3.151303955518396 4.804611173700364 6.042712966488251 -0.5874739324253753 -1.1550195013579398 -2.5816583110939217
Ni 3.8074777201683228 5.661673243495692 7.862002682392827 0.831534100238226 1.6184863001010188 2.440908410735648
Ni 1.124504040044438 8.264741615167315 3.0270109413934443 1.2731436938968976 0.4966689965266608 -2.245598158632991
Ni 7.051294803345551 1.0925381975428232 9.42273540742425 -0.42377462235977986 -0.2092859975564589 0.04293485169031315
Ni 7.896874087949054 1.3307664746156476 5.269450124528454 0.17059012364815782 0.6588994353562136 -0.7281400148205912
Ni 5.661682541297466 6.725369659933219 2.782184014401075 0.01454421636276205 0.09654415237533695 -0.9124276905604995
Ni 8.36054616465441 1.550510721760255 12.707663650928744 1.6717575007203336 -1.421405072140868 0.24495054083760393
Ni 2.8896173245678596 8.001418571104422 7.008056305972221 -1.1348700229932585 -0.24054829800485025 0.7016072586373852
P 4.758680032933065 1.9368529811049586 9.251815776959248 0.454950533741952 -0.6040750313171661 1.6315629307793191
P 6.819258862254715 7.682029782339742 10.088629094049509 -0.6766302769770735 -0.5206584174627227 -1.08343073337636
P 2.1335107864428444 0.30185778351837395 1.3774154056799586 0.04401420079742097 -0.6922882952293045 -0.07966228901833378
P 9.06869464122523 7.047352535393054 5.789789513710423 -0.5929154151559208 -1.9163617139621127 -0.5401422372189472
P 3.5242945715145484 4.4000824140842365 13.443993764678853 -2.353316582457592 -1.5106002403503016 -0.583740176414556
P 8.951895655330732 3.4601118458634006 4.385020904989307 -0.48138790199787423 -1.756541427235949 -1.1084233987659555
P 2.317811813222078 2.910807014812531 6.721058269250264 0.4124864510404702 1.3954207322619645 -0.015046095699845056
P 6.480019266700931 4.602644323549092 11.597881750214455 0.12361992554620646 -0.1402721893909068 -0.37636348006566794
Ni 6.047215891887766 1.0371418945688209 6.868952823400259 -0.5293027234012819 0.12767995454819303 0.5545640690712319
Ni 0.7028524486799171 3.3170465699552145 12.085234398259942 0.512173262809847 0.3359192560076924 -0.34560434450594024
Ni 1.4250554824134585 5.774474174627044 7.503370661677431 -0.8572153070544141 0.3327388013971818 0.8332832217188487
Ni 2.94565517586432 5.875690044747048 11.831385814205527 -0.16431380372114285 -0.8524212280998803 -0.3926311068774399
Ni 1.6718563327226088 9.210951008379011 5.060263531299084 -0.3352024324463259 -1.8410119362762036 1.3970847502279489
Ni 2.8584603908206487 7.105370818467538 0.24680921833074754 -0.5077139414869127 0.4302016089320462 -0.48156247990252554
Ni 7.010607622779214 3.226420896056658 13.278217678155643 -0.98920391628029 1.1729164362430187 0.3480463782885296
Ni 5.699450212106529 2.0080369514924983 3.4290943791428115 -1.6908733956141784 0.7253747933706282 0.6343225173477979
Ni 0.08242408295304349 2.8434816321615153 6.68321342668647 -0.5359431115359351 -0.43496483464864444 1.020067952848998
Ni 8.126241559930534 6.609677112449917 11.61562660490158 -1.3512383813177955 -0.8761381121008459 -0.6566157815283595
Ni 0.009786866148109238 7.446581547997571 13.486124893860808 0.08748538460717838 -0.1076790859462339 1.0786865338231553
Ni 6.28085105488386 0.729299116048036 0.9520921123945861 0.9015426682168797 -0.3651182461691518 1.0398556769988865
Ni 6.748725737991408 3.11634422084531 8.105155075285563 1.817772506132289 0.8436175137653213 0.07203254038721789
Ni 7.412421424277114 6.46661183654173 4.291368796613067 -0.17107503370437635 -0.21863118621678476 0.6366303395453681
Ni 4.529414836771107 2.4550194740121674 12.902003514284184 0.11405053669021648 -0.6609727729454746 -1.793027180866809
Ni 7.987918162927474 2.884735978636112 10.803471987898153 -0.830876154939253 1.0404262047903758 -0.7903123745842776
Ni 1.143025261179754 3.151796739012458 2.7074613006580623 -1.1915913869447026 -0.4549533619554294 -0.43504248196411527
Ni 0.43071694809490896 4.900601679222955 5.597232038955205 0.015864734946398486 0.9317837264896082 0.37268937364819044
Ni 5.4971300454878165 9.018514405046867 3.037352886307506 -0.8019389030796125 -0.5677736257829705 -0.08079408862993182
Ni 3.279836767252637 7.349865813936548 2.5096375509776228 0.04393141127562757 0.7027542277576349 0.15272352778038215
Ni 4.992417471748682 4.1093866415964575 9.772290914047128 -1.1409928480615446 -0.6783899399806574 0.49112801210377355
Ni 1.856678036401229 6.765554759203719 4.961835142151151 -0.2882006097754908 0.2712971491519328 0.36118831498712634
Ni 5.08451219832765 0.5141024237514623 10.959368230255503 -0.4400882719181389 -0.461646714815205 -0.7407121950586468
Ni 6.597190164666419 8.044597562546393 12.81278738713468 -0.30536375181833864 0.621999991226703 -0.15708900383792948
P 1.0664113745557562 6.5775253139128065 1.715554141503612 0.41610810695345757 0.4421369269170514 -1.3570501029035662
P 8.254170014549416 0.9690354965687258 7.497450751287444 0.8965015062485464 0.5898200640600487 0.13217629975664977
P 5.208507682795809 7.728909298888067 0.7997076497675609 -0.8680447935697501 1.24106892484954 1.785549641542841
P 3.496568526622223 8.183906526537578 11.471420488715632 -0.31535891535783755 -1.8789179672933576 -2.1693605790254895
P 6.86572927552495 4.5416414461049115 1.8842422995426733 -0.4010447848624319 1.28218163572945 -0.1421570651184455
P -0.03814051266023076 3.0294841566655295 0.703225290531085 -0.09509996372964266 0.09061261738225039 -0.2940323859659194
P 3.3356793647118277 2.9537535612101333 3.4602438746486026 0.6398426758350786 -1.1005869334406722 -0.7736441698999773
P 5.591251692853682 4.948847972632169 7.088290756607309 1.9528716359626885 0.3075898129353799 0.41160584820772983
