# total energy = -340857.90667836776 ev
CRYSTAL
PRIMVEC
9.39035324057240 0.00000000000000 0.00000000000000

0.00000000000000 9.39035324057240 0.00000000000000

0.00000000000000 0.00000000000000 13.74373115902535

PRIMCOORD
 96 1
Ni 0.721336889913342 1.2639133805582383 12.867609552226249 1.3401834090552145 0.17883333749355654 -0.8007394834548726
Ni 4.1484421014055055 8.919877800883448 10.583194833682343 -2.5981200561943707 0.8886863810795018 -0.898154211360621
Ni 5.831306093594061 9.73338288632013 5.725830828436262 -2.2673584331282175 -1.4734588554133141 0.6432766412172922
Ni 3.991238197128847 6.304504776128521 1.016710452366141 -1.297709813272036 -0.3281928338977122 0.03401698037539303
Ni 2.09440561508019 8.454604576518124 6.690448295976242 -2.332931591043337 -2.713699627934604 0.07393824205036298
Ni 8.495443222937046 1.1157148250780262 0.6876687172597649 -1.7766857633943078 0.14826909155345433 0.6993056070874021
Ni 0.9517780374989143 5.254494252957418 4.517413496733207 -1.1992512174828056 -0.08261031590306418 -0.17659879173608295
Ni 0.26933035666336674 2.0120616071593953 10.33960155729145 -0.891448260095355 0.3397687116607697 0.02922675807560128
Ni 7.684999392669958 6.548785426379582 3.2197577597304723 0.45551437666522193 -0.13641630597992635 1.6121451883743396
Ni 0.7071593345297388 8.826321711145178 1.0719369980821607 0.6850681233317815 -0.22389654838078213 1.068506765076676
Ni 3.574081142975194 0.5084885691996601 1.8523523566273747 -0.027872558040551994 -1.491341906341322 -0.5203010341233039
Ni 8.573345593755944 8.860624671680549 10.311068968847232 -0.18996672840255668 -0.4879293026608178 1.5327837184258761
Ni 6.220508066030277 0.9969456367803627 2.1793714096370307 -0.10427443114005913 0.01910792447404451 -0.5027090320731535
Ni 7.10464738884639 2.854930327305661 10.677697471031335 -0.09047763446628289 -0.9618576630568533 -0.32776680210388714
Ni 0.3885643674484379 6.6345287421880865 7.00786007854414 1.9701227097336522 -2.7778352820722483 1.4496380988446325
Ni 3.887033446769962 5.23946029735459 11.709301962736417 1.1201406872028838 0.326620861424902 1.3113328033721094
Ni 5.892934982177044 0.6012436618030622 11.589649142195013 1.5121395598129634 1.0800466473954753 0.18981863286046666
Ni 0.9345054216739046 4.4346037272896766 9.310952209763888 -0.9532676073949969 -0.14470502835127982 -1.048934242261387
Ni 4.7229814765481555 3.3835039231379804 1.8556511877349782 -0.8368879083509715 0.1565814680738916 -0.658532281824782
Ni 6.578224183915411 5.463448394165482 10.37327348608634 1.3016515715286034 0.9713879711447915 -0.15006912087667057
Ni 5.022233254905994 8.949645220784111 13.676180946049113 1.0110737197701878 0.27563999950166074 -0.6859682665485476
Ni 2.884772870032572 3.9426337285465647 8.173122163673858 1.5027326646767667 0.9668103790764382 -0.47703605278708167
Ni 0.6608526853953091 3.774433720577894 2.6467264753247455 1.2336312376245724 1.5111430002276491 -2.1273911765722398
Ni 4.728841056995479 3.169356916565541 11.982966906474278 1.7463678291370566 -1.7524896257640787 1.949626132442197
P 1.4130979231329521 0.8370382497941136 2.874721435880626 -1.738029998695323 1.7829093757065166 -2.838194499886596
P 2.9167188518944203 8.10796907550453 0.5784739331673748 -0.5712685263101064 -0.1618745981520309 1.6597165103953997
P 2.728770930975877 4.850042346792912 2.704257413735914 -0.8133106352516638 -0.2635830683371267 -0.27493114636009425
P 1.2642044815099482 4.426884856892722 6.456131749591615 -0.10905796857163154 0.6285300790357369 0.31037508899000094
P 6.03525517650337 0.09710752134913003 7.910589483750583 -1.8589777767260047 -0.8471759205405409 -1.2972806961544172
P 4.007089113467118 1.860613989443969 5.264673395913985 1.5177098548118895 0.8291581438068817 0.31963620257695274
P 8.713562348947335 6.610667854501151 11.793454552699124 -0.9124042935217318 0.15071266799794045 0.29537450181611064
P 3.908039667059484 7.725715964496229 5.409436021128692 -1.7593297886143635 1.1745907386216479 0.15752686270629643
Ni 2.0612576679983787 7.132771496922884 3.86721135002917 0.6394909489226148 -0.22092769556044534 -0.36361517926106407
Ni 5.43446976394042 6.88592728022612 6.738963556202354 1.5531622820822284 0.05659717966875414 -0.871603457455286
Ni 8.855253389603837 5.967344141575422 0.1535379103557697 -1.3186180241796128 -1.058327510550829 1.1693852831613085
Ni 3.484854006099451 7.252855334679882 12.44916789774376 0.6977832569056047 1.554612898485826 -0.5324032167034767
Ni 7.721105301035274 5.765667524160105 7.891993767148286 -1.8977363855514418 -1.9263126545272373 0.9070872521841925
Ni 7.47863698896744 9.099045741484288 4.060310818757651 -0.05216922580438757 -0.5099693131799926 -0.6941158353563465
Ni 6.041114756950694 5.705221820090525 1.7085522426239672 1.5192877408219705 -1.4482016235084219 0.21450302298102414
Ni 1.0656078999707892 8.205131060902689 9.392095191500047 2.432486762330856 -1.078176426955956 -0.42231115044037587
Ni 2.4903592515254207 4.56202143095911 0.22887953183494764 -0.27711941226066467 -0.5291674833749983 -0.9485393486813921
Ni 8.106091004848336 4.213047731978555 3.971430185917976 -1.2511378790497678 -0.3932859668526194 -0.04527841222182525
Ni 4.3770784230904765 5.907443077996137 3.7838832330845302 -0.04649428690679735 -0.19197141753741132 -0.22630670048417154
Ni 2.289095809654467 -0.06437462788233725 4.42145441559034 1.0135036693679191 0.4868574097528776 2.3452636302461287
Ni 8.308096284628485 8.299513501729683 7.291352026990532 -1.7870503944580836 1.0437349574486348 1.4227464166601111
Ni 2.7628391326792237 3.746478638860457 10.665190459496415 -0.38853019733518895 -2.194998848418884 -1.9551864001387942
Ni 4.4274576684428615 6.418794765911164 9.797672061987612 0.32078702835194434 -1.3100307967312341 0.6294443633198902
Ni 6.228489866319099 7.514254598962145 9.060320863588911 1.8519656070742299 1.6548208728659952 -0.03853569418135299
Ni 7.471124706342667 0.7957460493117199 9.077858287376444 0.4350795058496378 2.5549373501593093 0.2620005543413552
Ni 1.5146921552797277 2.4636249157345094 7.03107303185469 -0.5843130181988905 -1.3036477760230258 -0.114695369363067
Ni 1.4137176864494956 6.273563562067737 1.5612053921863387 -0.24653485460558833 0.7784387630751433 0.9967850710616575
Ni 5.030046028835758 8.129472984517943 2.0268701942834797 -0.3685928349813136 -0.5251673610766697 0.09506705360917822
Ni 6.636810598035361 2.0358473720200836 4.529974972317156 -0.31347326829935046 1.9627197324013619 -0.6530967126315076
Ni 2.4875421455411306 1.3122736999552156 9.42020051886998 -0.6607182337325073 -0.33368753846369625 -1.0223384940507296
Ni 2.9467304209803893 0.38712388725513763 12.93727658321774 -0.5307132305955634 0.24601909131143435 -0.9463515970014541
Ni 0.9277274646757031 2.6839883361789485 4.446770808035825 -0.4567724174420391 -1.7398529108366745 2.6720207601385786
P 2.655648249976992 6.710881704715624 8.902116886687828 -3.3791371215196513 -0.5800169619266978 -1.145644230790627
P 4.192201147694809 2.032579529078307 10.27058058260569 1.57499994678261 -1.0038666604987871 -0.21439375109666947
P 1.8489887320821325 8.454538844045157 11.448542181512586 0.08490862501893763 1.1305138029070916 -0.9418675930881716
P 8.159324917598134 1.302056995585524 12.045239973292334 -1.3927429283194852 0.5423546714892337 -0.9755901821515972
P 5.4623121614184855 7.791795880534389 3.956476987353365 2.6552363415913884 1.0921673419184093 0.6222645577419993
P 0.31090051160287696 0.917942716556936 5.79728484365712 0.17964734875441962 -0.7335336750323367 0.7775041670760158
P 1.2537060665418278 4.258299844439532 11.937351387341327 0.9205947997523242 -0.8419570953437628 2.7020067649777078
P 0.053039532436882676 7.868768606378471 3.1484549291974377 -0.07581129070335976 -0.3597322992668901 -1.746277840526412
Ni 7.074250815275902 4.737076396822886 12.466842420689195 -1.4647803538027098 -0.008048324225773236 1.7999838146903002
Ni 0.4781539719608262 0.6487898375705796 8.288061026868215 -0.7588502994202544 0.8412148178610996 -1.5307507471562476
Ni 6.615841939158964 2.8023161778724064 0.250735579096397 -0.1121782593681681 0.05505297511008584 0.04036426274965952
Ni 3.0482401399476364 4.025785306849523 4.989606472431276 -0.9125009670005961 -1.7351238807921214 -0.9981210162642615
Ni 8.779520190392843 6.493335390255476 9.642821380243163 0.7184790946920594 0.5728494976439812 1.1145577937984676
Ni 3.1347346840186177 2.0395753422726273 3.4160452533978414 -0.004185755946573437 1.7952172465395921 -0.4023053967424103
Ni 7.810229144024927 3.6009281630054772 6.409017530075022 0.1346712982643616 0.7333246443453242 0.31165472703337294
Ni 1.7659686187251085 6.102170833983538 10.890669744408324 -0.3120131388140562 1.0801170956220947 -0.763616096240014
Ni 7.189263862261178 7.845893705786037 1.391525464540588 1.7685621058459091 2.520456285663304 1.8597727618234745
Ni 0.2524051839097528 3.2144681737273038 0.46989703432087243 -1.2860516602078174 1.2016122615158145 -2.0239502970770693
Ni 9.410824251118935 7.935552798912704 5.260963267332675 0.18901362046066802 1.271914706585803 -1.1221317494909835
Ni 4.9393446064949025 2.488058614971584 8.010272779004682 0.004103223535096159 -1.5822252608864555 -0.962693271584271
Ni 2.191699065424283 2.196262777118833 0.9554806537975994 0.39444527726804324 -0.3014122233697583 0.536958697284643
Ni 2.6833873535689667 6.058862524651721 6.039270491566312 0.7012660732478825 0.49949695289375917 1.5974366785195715
Ni 8.63568814918828 8.718041547462356 12.743023040071026 -0.41019868344755805 -1.2120830791401513 0.35787673411539006
Ni 1.1739819671864227 7.131973316894002 13.012811645974505 0.4160266029832448 0.14846732360718948 0.4159638680661094
Ni 7.690567872165571 1.3029490791472156 6.6246566637838065 1.1683612127721685 -0.24801529580585674 0.533809353022384
Ni 8.399539544878536 1.9322999463908668 2.9799018439454033 0.7225581498574394 -0.4406081489773509 -0.40713984201657627
Ni 5.099008783331175 3.954230814848558 9.729242679558554 -0.8731625744122897 0.6453864884714433 -0.6492369725657852
Ni 4.0237100387744285 8.079459962943515 8.147998273470632 -0.01421922892317551 2.343453316510267 -0.6383794610259909
Ni 6.774106953356371 7.064691435635877 13.275014724497618 -1.3785866914237612 -0.7728946933284624 -3.2895436894305345
Ni 5.111657589200637 4.455365798393894 5.70830749017865 1.5229001407635774 -0.19994415133024274 0.937169930502186
Ni 3.227727352560028 0.7797514605682497 6.8176875829333365 1.876553066605607 2.1008123976424464 1.5315925263312526
Ni 8.800498239622522 4.357123922368423 11.12736486727902 -0.39153170316567404 0.5314961315081751 -1.0325074641639314
P 5.710818470645981 4.029053149791299 3.6356705920743964 1.3720907992867724 -0.08466437021861548 0.42591840817566007
P 4.332051679108242 1.7957172579192102 0.24246737303250604 1.146657759656806 0.378736865393851 -0.3460635435305459
P 8.3680818613873 3.5249132531960536 8.635873139147915 -0.39733108345627055 0.0013511147112557375 0.6877497839290027
P 4.834388627873541 5.182676831064587 7.790592976279098 -0.13774170965956922 -1.9747537807477604 1.386754057725902
P 5.516456938436538 7.60708763149778 11.365529580438187 1.6073179421890254 -0.7492251176256646 1.0947155622615599
P 5.034299858872036 4.8548314269662045 13.51647826876439 0.7525408122624588 -0.379610783358372 0.5022135804939738
P 8.10583746530975 4.3239384138734875 1.6266120198942542 -0.2602748298995001 0.019930934595972127 0.03089283292411454
P 7.699498098135771 6.485644690918364 6.025444135395417 0.29908691767069134 0.5450473878300485 -2.50851094037597
