# total energy = -340861.8898978812 ev
CRYSTAL
PRIMVEC
9.28592739504697 0.00000000000000 0.00000000000000

0.00000000000000 9.28592739504697 0.00000000000000

0.00000000000000 0.00000000000000 13.59089337857914

PRIMCOORD
 96 1
Ni 0.014434974403490303 2.2219646061050953 4.296734259968642 1.0579832398375326 1.6367182497280137 -1.4418808234967169
Ni 3.231140642272686 8.926237163056358 11.89362217589073 0.885139801378824 -0.20191413057241997 0.6450836125190438
Ni 6.886462455823233 7.391087617617298 13.340997419591897 -0.7749094097656462 0.5046682126820534 1.1280573709467991
Ni 6.538481606163281 0.7897987831665371 6.517879847262295 0.8965074197858173 0.3207636313131766 -0.7919311411346233
Ni 0.2583475052230718 1.9294764595877987 13.485945177362138 -0.4580394570799209 -0.20746668495953302 -0.638001765971598
Ni 1.610439846155366 4.232107918470714 5.274571219189086 -0.10367459277253112 -0.9084959596062612 -0.6310466748100035
Ni 6.396128336555365 2.8723509729243046 10.85639242394933 1.6261163058424513 -1.2318890581224848 0.5856623331379333
Ni 3.6515795847408943 4.640893021841862 7.034103132588016 -0.21633107732869838 -0.3444889999545745 -0.8794039273363112
Ni 4.624763365657325 9.036303262512499 3.546910466386914 -0.8008266438520402 1.4986590088280256 -0.11586599263240045
Ni 4.1716751018622125 6.007410122657322 12.76539619902933 0.5664883313126438 1.4392606122650504 0.3404099447891944
Ni 0.6901932811150486 5.1576734628216245 9.681405007953112 -0.24974873355719568 1.6900138758273602 0.009242858754506663
Ni 1.0291407804374548 7.171921155172025 3.0228870019045955 -0.0344898062467535 0.4502400156401601 0.9700646243476777
Ni 6.955809762896418 0.37662886479807245 3.8951095353447 0.6656532091402794 -0.03919132548748089 0.7043652809984966
Ni 2.4211570383529377 2.730536287115296 13.325613423391022 0.002718684482743705 0.034010809727805943 0.09997940330913103
Ni 1.514553358094613 6.0071129729751656 6.737563535873072 2.100080404572428 -1.4768732804115017 1.244158362408141
Ni 2.779640272091595 4.016154386963753 9.418122032227977 -0.2727966165155947 -1.3415910880360185 -0.10518640143136725
Ni 7.30021553044293 3.2308342066629625 3.6181539598693577 -1.8893931557930688 0.6935743610305797 1.375065308534064
Ni 7.920079053348165 3.8394431853565343 12.893721217861208 -0.003230591122155726 -0.355085287413182 -0.5392973727201487
Ni 2.8075816281418375 8.003865977788625 4.625905534748113 0.2089054742885886 -1.0727187462754944 -1.309450498747732
Ni 3.699169963523711 2.7181674315955475 5.279314470990504 -1.1831774518493947 -2.2163857987350926 2.978575189830909
Ni 0.3877032620149284 4.844756275656095 3.0533030576515445 -0.5138352238933022 -0.13947051942521788 0.6729931944451184
Ni 8.114080652085843 2.8608828523785914 1.5850511915933958 0.7321671337021132 1.067668842556413 -0.9142428893923675
Ni 5.042481531348291 6.1664223463211165 8.390284067428226 2.246318324628467 0.7295510362355049 -0.9361857122120457
Ni 7.54479757664012 8.712066529642334 8.43338098586119 -0.3341932744555212 0.6347999712048487 2.900796490988533
P 3.60922646910608 0.7962645745317029 6.628523531413127 -0.48243099855040783 -0.11397031827158437 0.48395669116631485
P 6.910271574105993 4.806544683716331 11.238065404602002 -0.11092381813577672 2.3953916572507716 -0.8141354451458043
P 3.9888259021329566 1.6125198939304588 12.25432474631799 -0.7672956019741302 0.6164389521991578 0.08442654317619654
P 2.8607064197548113 4.9152828955303365 11.42862285280494 -1.0877494153563718 0.7013537478656825 0.40893858578821185
P 7.705453409483339 0.5356958754345141 0.11373868380903893 0.6370404304995931 -0.5840579647652908 -0.6836367902018936
P 8.699270521454485 1.0310351096612 5.792479900368287 -1.3517225200430656 -1.966991620303838 2.1019102586923157
P 4.39801958631707 7.966796554939648 10.08644138236531 0.0780221823117495 -0.03964898185018978 -0.452957157461007
P 5.410789276453236 1.9662487327546185 4.1680006603238 0.7311075820893473 -0.813916644266779 1.0486866450269552
Ni 2.765154225086484 0.782685762649925 8.830003381304584 0.6760510074348357 -0.4682086843034388 -1.021235747904854
Ni 0.18425880353398355 8.994628019590102 4.160403842980928 -1.5937959964431907 0.14609111006552905 -1.3183112915724713
Ni 8.503318877927658 0.8035577420431222 10.928492079953488 -2.1176695784091013 1.0917469665515391 -0.46135129506197325
Ni 3.208566552356388 7.849106708950689 6.976233231988111 1.3308263933203468 0.7311536048359343 -0.06316352003236218
Ni 0.21836601548896578 8.891981376260297 12.626714585181556 -2.0618666125068685 -1.036945188220311 -0.9429101754200727
Ni 4.724104218773143 5.110853816026901 10.26605815070836 1.2745084354549083 -0.5702022898291212 2.1286957543162757
Ni 8.641985634291325 6.449680280836438 12.244430590494948 0.9849816506688263 -0.4743842169865314 -2.773694006210365
Ni 5.80403902300416 0.5921858871979062 10.127186175345454 -0.4398920967469327 -0.31473747972375477 0.36048383272093404
Ni 4.575482948057245 4.293070032950555 4.139840156382967 0.14015031910106185 1.2073427362416884 -1.7700464037009191
Ni 3.0778949796282333 4.333027379272986 1.8288857206214113 0.0021134467985770055 -0.16744849269538256 -0.21668923199906553
Ni 8.203606279762942 2.5467770664844376 7.5723154943932895 0.28262234435676487 0.7548938858756676 -3.8452099904270103
Ni 3.0153542574619374 6.187891410856896 8.765025103151851 -3.2004693630696814 0.7004458913394325 0.6837445194243515
Ni 3.5890852922124354 2.2748943932391543 2.9315014029357505 0.5235318823557757 -0.15139863832137151 -1.136166887427811
Ni 3.9998018685175984 0.8040666108738145 0.9958358726242941 0.2559335222116689 0.17090945466078952 -0.35440034553101546
Ni 1.8529882742152997 6.800911205144972 12.78799814672833 0.833027396954301 -1.1490547991340727 -1.5054138110533557
Ni 6.467193540228515 7.927823516939359 11.039475629053284 0.46266230056391283 -1.2775423371852257 0.1320945386761209
Ni 1.4500440192840325 0.7609687638480962 10.703427196317413 0.621632066364323 0.7780001328758278 0.8676097629148607
Ni 5.696563697339317 7.895824210542171 5.394524974318973 -0.4175952330219453 -0.14328886473004354 0.6669513591264127
Ni 0.1647044972625973 2.9444469145574335 9.460987731064511 1.0667910679371497 -0.5266179774802673 1.1031842618542034
Ni 8.237351340542796 8.037750327481989 6.494857247044493 -0.6553299728374004 -0.3422994485024234 -2.0097004720262746
Ni 4.318922055298137 2.432718018174324 10.286716553767508 -1.9622957574900657 0.09080596433997909 0.22112284229038692
Ni 6.151341999951693 3.320935561849238 5.923590697470378 0.3391899563391642 -1.1125217372050453 0.702072628309578
Ni 7.531165834971207 4.2467703980996045 9.030659275737046 -1.4387679888993479 -1.2709400013773595 0.3241271484687708
Ni 0.34664924764679006 0.9937149667679047 2.1659946062854765 0.7546779132101197 -0.13012995875058234 -0.4706234643925185
P 2.4630737153920848 0.25937081444099697 2.426423087876398 -0.24770110699954762 -0.6677532862024178 0.05789430121362287
P 5.524086878702824 3.1389128096734797 2.117759784129484 -0.1505072368553537 1.6778271039531816 -1.3311770917915462
P 2.567354681973749 5.627420680672615 3.662406047691701 -0.6023485355443627 -0.7492274316185097 0.5594028852207721
P 3.99930042842896 6.231423839292768 5.391371473317091 0.6565306780137209 0.040886196691400555 0.4941598569515618
P 7.203651169669758 7.3721536113074135 3.9221547993846904 0.4725834163323667 -0.010624826703697831 -0.5171452621031416
P 6.605906726230019 6.914923823817249 7.345524356822441 1.7086767423441864 0.4797243982525222 -0.9136664480636071
P 4.069242034866457 7.876435193781485 0.37578941694598145 0.17677311253041814 0.04015240384916956 -1.284191209960311
P 8.523497198531572 4.179066700205846 5.252146632706623 -0.2622862039025741 -0.18624737056944052 -1.8556615678685782
Ni 2.9653216797289006 6.729335275455617 1.895168671597361 -0.26139917331193047 1.1228367459778081 -2.234198144326165
Ni 6.462309142328073 1.235984817000817 1.6951785781714812 -0.5938888348127837 -1.138912311383432 1.9081879199020682
Ni 6.001745706841221 2.0909215962742462 13.307482649815714 1.5472078642710063 5.254850465832782 0.09122119750052676
Ni 5.265705944140509 8.77691016184534 8.00948024959586 -1.419623297650097 -1.3574026011469782 0.018686263555593625
Ni 8.598137484318164 5.1290913777692335 7.0602244468350515 -0.5628504774497403 0.2607792803397444 1.4781506044620283
Ni 7.592750106598063 6.383787338818318 9.364954525348194 0.2554421843975472 1.7425746806432119 0.8645563208005175
Ni 4.9179293848870405 6.376284309343876 3.0325360092398586 0.647421259513285 0.6067957726824389 1.1967940141915647
Ni 2.2683849580144217 1.0778547564559238 4.368942561325336 -0.7315456980680305 -0.6067893449245356 1.3285622798765182
Ni 8.01999563397316 8.496270858904019 1.9041797357087453 0.2717180387394353 -0.36436799826668864 0.6651688133046932
Ni 1.090929342470793 8.457418537962106 6.050380752475367 1.150431110656309 1.5239771758778398 1.5315105081404075
Ni 7.225798106917956 5.497928420745518 2.572117434223057 0.7612488815594181 0.8592804171135588 0.3453963422601922
Ni 2.164401141114914 7.619391432788873 10.393567865099824 -1.8090107007792586 -0.2779753325030567 -1.001610774585075
Ni 4.9567074184084134 1.793103327333274 8.210313505244859 0.08395603129768123 1.2105363034783216 -1.5981745851268605
Ni 0.8497923754011011 4.657310541780988 0.46971100273347727 -0.23608203470338052 -0.13714444239520251 -0.17352323813455278
Ni 1.3076164622555768 1.983910566987773 6.522962964012678 0.593679804125771 -1.6145602255737355 -0.7108953688075305
Ni 5.595263513506783 5.117437538672173 0.9813238250219946 -0.154692735691611 -0.7714566753303552 -0.428481798027462
Ni 0.15353816936282436 6.377612196986012 5.1362433991816285 -1.9945587312888293 -0.10012492774805982 -2.6087844778867524
Ni 4.443975641848027 3.717890393499546 12.437923320401934 0.5318625137086582 0.40262189954156463 -0.08825388734208671
Ni 5.717912044816721 8.188674508234596 1.7299980207708812 -0.10006322127218896 -0.4289530812369257 -0.5989425951866072
Ni 0.43444212123981596 7.20297329695734 0.9069788317320466 -1.6650687758462486 -1.3777785937001692 -0.3079726501960954
Ni 1.8836504070427844 8.850937576412482 0.30443356373997266 2.7225632489728206 1.3585649968861957 2.862396551054096
Ni 0.2138502689129495 0.8372396585155185 8.617102134189022 0.9706976299459863 -1.9387038291027383 -0.9186816418900112
Ni 6.294029562952035 5.448062989708695 5.1821669539661 1.2597788425542176 1.6990783000224738 0.24771576228756695
Ni 5.496210524145553 0.21778564501600461 12.764852972266638 0.18503072455352007 -5.378927019300433 -1.0125325637039013
P 8.949619128671017 7.979713280185872 10.52546796604514 -0.01388035752651803 -0.5111170536311908 -0.05478378060909919
P 8.10551902686872 5.6289621446488 0.48850200575882496 -0.8306997772623886 0.14834185377291872 2.2920708482732333
P 1.0772604570916116 3.1103400105486556 2.075397382567102 0.7892857330919761 -1.1446975506066415 -0.981328113076639
P 1.4685508729258185 3.5920846468166983 7.752585063444327 -0.19467596095276796 2.339019706218946 0.0952647714422811
P 1.2229752324789194 7.5650130409543035 7.939950009749599 -0.18720356383512274 1.5091431961888009 3.1094793077433547
P 0.32287820166705716 3.064773963975527 11.578802302166645 0.48295858891910376 -0.3896157170898838 0.9219294594033478
P 7.384661755740672 1.6762027851875425 9.158821790836493 -0.7883861040958422 -0.7332786215987371 1.43579656497585
P 5.526714796204392 3.9679418510339217 7.95922109523018 0.07812888309294287 -0.28595886492916556 0.2853392290672957
