# total energy = -340859.1700244158 ev
CRYSTAL
PRIMVEC
9.40531396204576 0.00000000000000 0.00000000000000
0.00000000000000 9.40531396204576 0.00000000000000
0.00000000000000 0.00000000000000 13.76562768715447
PRIMCOORD
 96 1
Ni 0.49356267217143546 8.703263907423649 7.092106313149659 3.0232175111306323 -0.7297163581687756 -0.3414363291711797
Ni 1.7662333549887768 7.332326502064105 11.451763821450426 0.12073154825481788 -0.18054569219897293 -2.027905425070075
Ni 3.962552916754911 8.140882551404463 11.069575117661048 1.2632038090753663 -0.008803200113926775 0.474129677773564
Ni 4.009146843197682 2.4013742214967144 4.7199308895216525 -0.7331521233232019 0.4574455322496638 -0.34713106556311185
Ni 0.7203219754328958 3.528196697340287 8.141226785903415 0.047623001194601854 1.3863866470841542 -0.35329091451692063
Ni 1.598348496893609 9.01111865113071 4.534810793193466 0.4012206483186639 -0.6434676741821757 -0.8203248617859679
Ni 2.290156381330027 4.815652534047017 7.327884372177364 1.6390075599828224 0.09535630271482287 -0.2610217353678537
Ni 8.327662685685244 7.7902994653822 8.389503566943594 -0.4761387377837929 -0.9182700082738895 0.685456874129768
Ni 6.203754637783239 8.305165174169073 6.868373639991 -1.392458307199531 -0.3408976830588903 -1.1453035596217567
Ni 3.898211162456365 6.088436080634508 9.405929286548306 -0.4851188297952161 0.78738208831136 1.375209290311096
Ni 3.1862100684776316 8.011691155841705 6.164138513929869 -0.7139452113774478 -0.7731952552880168 -0.060021374858954694
Ni 7.708238099170417 2.965655450980058 7.401379378234913 1.4313151321657285 -0.005976272188092933 0.033024534555136674
Ni 6.429914822531496 4.285945239485681 6.085412272125959 -1.0047364646982502 1.4239622913450831 0.3029844529528846
Ni 6.50416037266053 2.0364480313514752 5.429851528003992 0.32438837254995745 -1.0277067003411786 -0.6765310323950477
Ni 4.996516725709207 6.422023763935314 5.494619343034846 0.09569517411148035 -2.33266908141057 0.580363032412207
Ni 6.850003180336576 4.729339965826325 11.141967820896818 1.3239710609614102 1.7332593167795567 -1.9152808221931075
Ni 8.490271162525993 5.286021701453037 8.028416626046223 1.1520442207797 -0.3377416539284119 0.3175857478058272
Ni 8.940447120389697 5.834323302146259 12.332254535226037 1.419581388668568 0.767553226510891 -1.711039329039092
Ni 0.18052654088316308 2.321758236971471 0.5609959532406189 -1.1725464544981097 -1.099950585408254 -0.16664733695032588
Ni 3.068267428672959 2.315437865843182 7.881813172343881 -0.01999238396152686 -0.11408241836941643 -0.053889550929603965
Ni 4.545024023860443 6.247733886884247 2.9198957759049646 0.9229872112439007 0.054544668015099614 0.7923270910214613
Ni 5.95481478209344 3.530218839888772 9.213156086072667 -0.47820744738736354 0.2373745282625589 -1.2004845756692744
Ni 5.999320728788473 0.35654793627458464 11.462252627822847 -1.5109601947928817 0.6641324016203788 -1.0593086435171757
Ni 1.8933837973746912 2.9589212460278937 12.62016248862227 2.210590532209554 -2.87966356566466 -0.5571164031794406
P -0.18042778508428356 6.880626883303403 10.216284572491107 0.29648598971273454 0.2279259812551494 0.09915202231182924
P 3.5108250820516718 3.187310490236575 0.3271497457452813 0.16235256622971395 0.4512957105981841 0.15289579169218828
P 8.425299252177453 4.018448698920714 2.485026026336167 -2.032979754269189 -0.23870815947231797 1.811246274977997
P 0.12506528423243 6.5876419413133425 6.501699001939886 1.2188689917137332 -0.20417567291308708 1.1364882753229717
P 1.7915148395019316 3.540461227029704 5.216098833720672 0.839611992150354 -1.2624759297704062 2.5328302338476254
P 1.139416191529255 6.043111871605901 1.9243799507830068 -2.34387086366366 -0.32334244778394633 0.4995373192133913
P 3.5742733315032127 0.4611124571910462 3.622907270591409 0.284344212143878 -1.1515454267664103 1.5985857045223502
P 7.2678812893095905 8.510304481727264 4.036040398561117 0.1797368231444324 -0.8579485856760127 -0.2918829437230844
Ni 0.628499774166145 9.24103155623639 9.738809690222853 1.1802584784303867 -1.2646909351438542 0.09586486692012522
Ni 6.308830807791037 5.658744897052667 8.544311276204278 -0.2867384234076675 2.1766915654692642 -0.009706942875118765
Ni 2.8730789435161515 6.323427855396846 0.8948056019560507 2.80463260477075 -0.6209615226598596 -0.5724386353588077
Ni 8.91414045663103 7.010420218973617 4.469065766019413 0.3382964979906174 0.6075107964715925 -1.10107852836511
Ni 3.8160557431027913 4.0583836629247525 2.331002720278011 0.5947542681368726 -0.5416242210811124 0.5579867215995358
Ni 1.242855836869908 0.2869740056982606 0.20440287145797503 -0.5000451120877453 0.33580458480669906 0.6908145388972554
Ni 5.660475474861603 0.9977251334226049 3.182750793922595 -0.10442998288131691 -0.7558217970065757 -0.41547484424483283
Ni 6.321575008503583 3.1018161843494556 2.6295932295187554 0.3244176831259961 0.8596560552854228 -0.06827384467573402
Ni 4.28379142253869 0.6119868640620729 6.332464481260032 0.10086771945135532 0.6008765789845265 -0.7124861103334181
Ni 8.878155724582172 4.575854643739208 0.574449314642262 -0.2219229695941791 1.0616236648035975 -0.9368207746928834
Ni 1.6100110864755701 3.825451651967614 1.3371892570224522 1.1646822212586845 0.7546609439292551 -0.7725421950850501
Ni 5.721412505427351 1.8875901238404267 7.721828778159074 -2.8903179600547126 -0.18703901323280045 0.4544915918276624
Ni 7.945336664308853 6.848282007841819 2.1585468794918485 1.584703547223619 -1.3173093326705183 -0.8103991180318237
Ni 1.5543128159075261 1.4060192272472176 5.937404605016691 0.9516264722471481 1.1324608993311336 -0.3354330603998933
Ni 6.186035025870001 8.193326583266572 9.18510191493954 1.3539501238220035 -0.8230006088459181 2.713259712183708
Ni 6.936052399760256 8.762141174184196 1.8189209844881224 -0.3911864040111133 1.420990867421585 -0.42132616081928725
Ni 7.857688541474743 0.5868408160730958 13.557932506279418 0.1900816567138662 0.609277658564028 -0.5565517889252221
Ni 0.3616503192166927 4.60012975963521 10.285828406062059 -0.0496459451619016 1.8308617352160792 -0.46632278013463563
Ni 0.8056676773559867 1.891173548542626 2.8895156705753733 1.0324591274244994 -0.14356782942304305 -0.44607662829108985
Ni 6.911006048101576 6.132584625390738 13.183562440167043 -1.1046279362792653 -0.6550625781086267 0.7672493221172271
Ni 1.996738794887733 5.07086573429421 12.959540083331671 -0.6734012285168145 1.599763269770219 0.5726864897035556
Ni 5.571802172781982 4.232250300837765 0.253265359680721 -0.977501026021065 -0.6465805087795445 0.40763117983069797
Ni 9.37960945534979 9.017796424197801 2.6895831449466776 -0.7366130852886088 -0.8172122842989151 -0.6301102790386632
Ni 4.592661940177083 5.443419634238619 11.93614878804599 -0.810157948555295 0.06536438433842291 0.09341511982805202
P 5.095037391734242 4.31881681254129 4.359161848243533 0.04465157727110375 0.1703399553105647 -0.9046480466150807
P 7.237727852051713 3.634730691045831 12.856173799441615 -0.1769813718864823 -0.25114587101503844 1.4911218199107157
P 8.110983057629419 3.2521601315007866 9.51796821064282 0.7537739133386114 0.09409671927610891 0.37479099337222543
P 8.391421310504692 1.3124457564803365 3.559736477908149 -2.4105136004938745 0.48287554228699425 1.5328384829232118
P 5.181923684119854 6.296246497419534 0.8429014351278158 0.1340434348723756 0.9491672120733783 -0.43136786132600546
P 2.3803345336782886 9.033841890187176 8.19908357607554 -2.9265340049639534 1.0696015408027515 -0.393065109091065
P 5.919610691121439 1.2550169081033564 0.6967165179064392 0.16840597151264544 -0.5805712917682712 0.8353827845603549
P 0.7709648896297266 1.0575899581719463 11.994184279187516 -0.995180445578699 0.2799049454256018 -0.587475217976956
Ni 9.582134085566217 1.5372421706726394 7.708160035062732 -1.2040722930205328 -2.1448489670373707 0.6588390144319234
Ni 4.301943678904162 8.72811274748457 8.374691137643085 0.2300664246369199 0.43318383148882167 0.10897672171173489
Ni 1.7276903774832306 5.728626381402645 5.222927091814627 0.09203520876138988 1.3640190780222314 -0.49204692437361713
Ni 3.1141935778090213 3.2077200220050073 10.26370710711305 0.4139658637994742 0.5998411957414767 -0.0426941964344168
Ni 5.886804955265084 8.243767283208555 13.289350592458192 -1.0576240567259012 0.5011740834858659 0.5604755494596605
Ni 5.137380116168105 8.395945266624791 4.5519218812793225 -0.4699603768872229 1.1558803066963381 -1.0042171018596706
Ni 9.188248933063836 3.2934588660607798 12.168608652231343 0.42651516121939453 1.2085987201359767 0.41224348179172876
Ni 4.506292940071317 8.412244676097 1.6094636971903522 0.2557149784429596 0.631353407417145 -0.22505663012715435
Ni 5.494443463659699 2.947399736158617 11.207272679367295 -1.712019433564174 -1.6389080582904807 2.2855705852608703
Ni 8.527563233245731 0.13846503534325272 5.663096735923291 -1.415420572422659 1.1655939344396764 -1.8774285272320248
Ni 3.0190776355167834 1.7376976317696877 2.139977027176829 -0.022007614619342742 0.3230873943503468 -1.6991158381286287
Ni 0.8470886810003072 2.324890206593078 10.062247158461682 -0.6071343869687802 -1.1779200601051973 0.7933776437731627
Ni 7.455338606211259 6.542703350166076 6.271138070687273 -1.2743541692652312 -0.9713002965269918 -0.24608182622856972
Ni 1.6319160631984635 7.018602842309347 8.478855932706939 -0.5811096807702444 -0.7348130559653925 0.6030884990341807
Ni 7.656800435925461 1.9001744342119298 11.437282459209017 0.2896671670186882 -0.07185976225477947 -0.09561032770715791
Ni 6.981273150332893 5.351031233058292 3.7523309774143883 0.09925923731365485 -0.273249130671981 0.5678016508074286
Ni 7.669478799438754 8.216407224261841 11.672784942531278 0.8120461667169433 -1.0790395462871996 -2.376887427798997
Ni 0.9219502792080656 4.074993447764868 3.4630601939936154 0.9271889080300741 2.6081327032353663 -0.8511176787971084
Ni 2.6520634656238067 0.7835792970066028 10.804861609561648 0.6108745707375027 -0.023659291290152804 -0.1013505726250448
Ni 4.222120777466981 1.4970250472432312 12.882907464464008 -0.22410532195747856 -0.3603089977059666 0.3764845790245645
Ni 7.885970321210999 0.5317792852749702 9.643468960921739 -0.9761555677367639 0.3297162125207741 -1.3508722562276283
Ni 8.538727341176205 3.5615479414190245 4.859404174544895 -0.33986769913247916 -0.7361194334816419 0.29476000816056336
Ni 2.191428798393054 8.170923124892193 2.0287779976385 -1.1177302779891782 1.4549852220891588 0.1021285884416499
Ni 1.0190751966089373 7.377914059889724 13.481657289350554 -0.775490993300729 0.021662829685414307 2.092056505826687
P 7.207894195475922 0.5806652867831638 7.431746316124653 2.9411255296248835 0.10694015089768034 0.07335331608117045
P 8.224204229716234 7.8625510889052865 13.63943895895464 0.728159555204617 -0.7730258195896881 2.467411342122183
P 3.1954837082581267 9.02344901801938 13.518534585715 0.7171588332187392 -1.1591916304577585 -0.14702544895434036
P 2.40762875542575 5.262546037262251 10.968356066998055 1.2777138297660835 -0.011840187168037674 -1.3944444843916242
P 4.685379527353676 1.2302809318125838 9.823234611887818 -0.2131567933657748 0.3863056788800444 0.27941412183211234
P 2.8467064425582325 7.204470661114766 3.7749620443919008 -0.18141292529527467 -0.37872298143678 2.4495246916497493
P 5.971659699788031 6.8255023369002785 10.92462229659712 -0.5443007394720111 0.28760437095238855 -0.2076929420377262
P 4.474992054483602 4.740513479070978 7.947158473665326 -0.5642478720178992 -1.3959501224028732 -1.4329989476260547
