# total energy = -340864.52996743267 ev
CRYSTAL
PRIMVEC
9.31563307729351 0.00000000000000 0.00000000000000

0.00000000000000 9.31563307729351 0.00000000000000

0.00000000000000 0.00000000000000 13.63437064724135

PRIMCOORD
 96 1
Ni 0.569420857534277 1.2985805991719162 10.72700441796781 -2.5042434233488677 -0.009360872389609686 -0.8357375967966124
Ni 2.7023253784902606 8.11363681301571 13.131412129104469 0.07810342917164614 -0.1139006413759135 -0.7884131006790357
Ni 3.339868664951527 6.928911879513882 8.901744016707612 0.9228033773678689 -1.3067737232465173 0.7127748452184305
Ni 6.68998452612602 4.754773572519975 6.718308708049593 -1.5617363969044846 1.342625442837804 0.13859325902658712
Ni 4.3765309286644145 6.726362072717552 2.3186470628200633 1.4929185067998223 0.45931498135823473 -1.2151825440010813
Ni 1.3938702084125765 3.482844999160702 4.523638746078031 -0.8843885250350962 -0.36052548459214684 1.7890460847318737
Ni 0.4155182174615405 2.5626374627053647 1.2242902896819938 0.6181639053100645 -1.0363561484860602 -0.7641578276760967
Ni 7.564377779831766 5.8482611971056775 8.822582562758608 -0.5432833539510902 1.0783389206757492 -1.0230206077194186
Ni 7.975607079892349 7.513272217577953 13.392291771491804 0.9007862496668293 0.05741324781214629 0.813356657998251
Ni 6.052795233716093 4.380872013609781 2.513346585746309 -1.4539773496499346 0.4468057931476305 -0.7694283320464168
Ni 3.027105604960724 4.647690371989973 12.137193752147107 -0.638017963921514 -0.31537434197680525 -0.07829343369526516
Ni 1.8626701199803715 8.373542971761864 3.3751069096357234 1.3980903086743277 -0.7060701795047454 1.0900916903363034
Ni 3.82163593755784 5.746972320258118 7.1041883077811425 0.72502666600259 -0.41225762285911577 -1.5375952808819067
Ni 6.900266308254227 -0.009806566785379103 6.482243117097817 -0.018234006509523434 0.8497935606690461 -0.7770544811331068
Ni 8.352834319758541 3.2317141666345788 7.053823338345261 0.5261562073525002 -1.260613936861003 -0.3354757407123706
Ni 7.162995103778162 8.38709721767497 8.58379028604823 -0.17149155241650466 -1.3141612739598398 0.772659951609837
Ni 7.331840950633863 3.725023508441124 4.582675638208421 0.47941483743190333 -1.3463771965707523 -0.1914055177316123
Ni 6.996506112053743 6.672284823559078 1.8611600558824233 0.46541466649806945 -0.29996057852489627 -0.6221709695869284
Ni 0.048160890684650355 1.5660137893254864 3.425976786376409 -0.7986561185632827 -0.30826806994932715 0.8219017193547845
Ni 5.285829858958757 4.964841095090792 8.90798828546057 -0.23138514344834346 0.44437532932926693 -0.056383263885735155
Ni 4.371640221376181 0.8834154441984217 13.366877793295554 3.056314293684601 0.9319266798253757 -2.0660518542328097
Ni 0.6612422566351093 4.118823259289734 10.931942753047387 -0.6195229904411201 0.7717294693757677 1.0101969735921892
Ni 2.903906359461875 4.020124128396704 8.594370981930089 0.12091229680705629 0.7172434225127454 0.9917043141046405
Ni 6.601569853987678 1.1408669336675292 3.5113685356289763 -0.7706100110593438 -0.9906689308615907 0.08856396238333779
P 7.6958958855370785 4.675050385905294 10.495138314340865 -0.16112332180830316 -1.196391379436507 -0.4642939226300649
P 0.9948071249585343 0.21821404356807525 1.9142386691908047 -0.9102887898406259 1.5076887231304614 -1.3815149208141497
P 7.271838958931928 7.04378294917334 6.248005253326902 -0.43790000601756845 -0.4028990644623513 0.34905296517617307
P 7.559608175771622 4.590604173395119 0.8503635785628891 -2.1999675052780687 -0.7686783412542697 0.8480950899207007
P 1.2948636616328584 4.277524381884697 7.193848480042221 0.04338916561891237 0.07139696368574802 -3.3455942525671998
P 1.9477591111627146 1.2074923403826727 8.539833540504874 0.46314798195107976 0.9093930174992338 1.2899725925287784
P 9.361465843985151 7.951768375224556 8.731587460298664 -0.2043042280711514 0.3253417376021623 0.31339742075609256
P 1.294994080493878 3.047963307090926 12.770823541214495 0.2541430059701494 0.24896686108584865 -0.037410579437974274
Ni 6.256108922412682 7.750215341151732 11.93412320146999 -0.5724442917857625 -1.6680702816767337 0.534751405220679
Ni 3.761335845602146 4.195677230961983 3.3845687980026935 0.6868437271749656 0.5226762192236999 0.30296465545854273
Ni 7.910248599255682 5.150324662359418 12.492859959596887 -0.45589027194740195 -0.02247272718121936 1.4215374839536743
Ni 1.6181720181003867 7.930249263156327 10.417681621218046 -0.18755786185074796 -0.2937580492586102 -0.2993730814525425
Ni 8.915899120944701 5.536662591231122 5.928278757720946 -0.1076870563660339 -0.7692972057851913 0.3430772072087124
Ni 2.670037394754986 1.5481743522645945 2.7417221217143957 -1.1744503563890418 1.0208413406799128 -0.1412597501151567
Ni 5.381734299972795 7.94439039394402 5.311132981123141 0.6383545213253264 -0.10830283557316188 -0.10657222603530032
Ni 5.9651444434780085 2.112794864150058 5.636530834056862 0.13426249286171715 -0.6299578126211989 0.5569281984280343
Ni 5.212320199508366 7.860810535296332 7.617577496368237 -1.154038111281277 -0.62577308511589 -0.36718849843461926
Ni 2.084997015487028 2.137080719198489 6.608142964583065 -1.1884962929591467 2.616805548419016 2.2854134908577155
Ni 4.447665101717663 3.337968275833813 7.011529433279906 0.26768706320317126 -0.2743392784123662 0.3087810050300037
Ni 8.39353432002958 2.726806861830221 12.900268918592888 -0.12929229334063538 -0.36000303642977355 -0.08528991961775634
Ni 9.406087725719708 5.394049566706215 1.3169342591705426 -0.30358660531325776 -0.7036955086249816 1.134175053808763
Ni 6.390235405338386 0.7791846904715767 0.8929295001097997 0.4009167439249999 -0.078685012706729 -0.5552215001495728
Ni 2.893379694251009 5.3616032172111305 0.9340412513563419 -0.47730061930237805 1.8629254485198434 -0.7960685603417644
Ni 4.326086776348629 0.13771765942020706 9.261186781747199 -1.6895521056995935 -0.6812032410597365 -1.7041649705167616
Ni 4.829112323301133 2.4274583132585748 9.776552747642034 -0.13757304529218886 0.18531174612904858 -1.2999975808649482
Ni 5.197070508402007 0.20763148455962965 11.19902660696608 0.16996328869743632 1.3617030282945453 1.0758071553928312
Ni 0.6469967907585995 3.136303454165829 8.845474799120716 -0.17777018633636482 -1.6776183303764851 0.16033296469652386
Ni 3.8896400579466186 6.453134558881541 4.5546299937094545 0.20191824433747807 -0.08982740247679367 0.6496018121043716
Ni 2.1978279615348213 8.474244963734836 7.971129986706205 -0.8102001146471401 1.5116950160763771 -1.1342503871313885
Ni 4.168196113818572 0.10034520323175462 4.014245032454601 0.05203629977094909 0.17666409775637962 -0.18856136341459784
Ni 6.7276103675301675 2.3103608073288555 11.127964164286395 1.5254013099188761 -0.819191519512473 0.5014754167763685
Ni 3.9705370143104757 0.7377096295407656 6.482680020282232 0.8675439426739319 -1.461599899192199 0.8370899970594486
P 5.617289394240009 7.205837699623093 9.697691257073375 -0.10508664262870934 -0.44063308867801537 0.2947731207866859
P 5.772050004105596 1.130824681369022 7.941529563071227 -0.9602005870694045 0.6597291303463606 -0.07378423297100196
P 4.793899230825847 7.894924383085882 13.72885627361868 0.2832237253861897 0.31730678311282773 -0.3266332027200762
P 2.3692915012438434 0.40557750556196986 11.397079757747116 1.1515863073066748 -0.5766351899386585 1.1677768010236083
P 4.551236308633067 2.9376289506683655 11.920829793278925 -2.68621967734678 -3.963949447952464 1.7872961919203023
P 7.83369272783719 2.459941925285379 9.212307655763649 0.35260751529665085 -0.37113025669118666 -0.29281702550157956
P 7.866716646573933 0.4983192891962832 12.641788051685019 -1.5953864808587621 0.6397452310252659 0.33066109293254664
P 5.1994925729637975 4.14111556889115 5.1368039527248595 -0.5867468244513636 0.5215400487367277 -0.5941618859685122
Ni 7.868849926514896 8.384917359569357 4.577671280198442 -0.04799169738793025 0.9015161858543184 -0.8073773004863645
Ni 0.6177671293142337 5.833859228595945 8.476774158075324 0.3892958718566199 0.6455980902616172 0.34204079552439803
Ni 9.420713269419759 6.8617461660888015 3.9551671515393183 0.5976336465671966 -1.3015854941773584 -1.2284062417802069
Ni 1.6577075642551782 0.5491556296584208 5.169158077453938 -1.617836839442478 1.4033713545676088 -1.4915229120038764
Ni 2.057730157901007 5.664789806549925 5.529650714324733 -1.6332670579546194 -0.5228489973561382 0.3263053870670122
Ni 8.54434510153286 0.6489279214649823 7.920356060984699 2.4755730519973684 1.9026230242197815 0.6663054980122977
Ni 8.866721894707391 6.583916729585386 11.012549061663828 1.3818779605805234 0.1811308752784816 -0.5105879206005981
Ni 5.306696876721889 5.83235009606129 13.664774966256712 0.25791712830060093 -0.6459130503988747 -0.325957002588658
Ni 5.540565841428778 4.389265398879683 11.225859356057565 2.073562303677242 4.7369436429732685 -0.7185351447409754
Ni 0.6548731584008889 7.720358737611178 6.258721025886245 -0.5633670120748426 0.2976707540494551 0.11441486200817069
Ni 5.9899053958058674 3.1876978010404717 -0.046299627225242404 -0.19300294412571922 -0.09377687404284495 0.6073832697547927
Ni 1.7293820440183651 3.9825076026254864 2.4013260997634234 -0.7380066232020258 0.8072749705805453 -0.0867114825556313
Ni 8.078218776615966 8.883760187336305 2.0333483518333972 0.8178203501965593 -0.1770893582192563 0.4367586933242736
Ni 7.479857042258151 2.6868800590923705 2.07775504244727 1.199853884063811 -0.18375828559899965 -0.636216391936401
Ni 3.9801041693295547 6.893447264949488 11.109216453014831 0.06308561560657523 -0.2690152950962915 1.29624248469789
Ni 2.3647547880069486 1.3379857264656883 13.509874621897175 -4.273836541562453 -1.2326688737113027 0.5729783099123615
Ni 3.475085076930037 2.317245060064103 4.8161095628574815 1.4229811583787364 0.5397108061084833 -0.38712791767102356
Ni 3.426401579238015 3.1718519094265933 0.7668163246304559 0.594133346723422 0.13310652488040303 -0.8611213269770396
Ni 2.486044328755154 2.4753965603161987 10.466069813346188 1.2798740706421958 0.07926402513865059 0.3042574061280373
Ni 1.2263564970658614 7.419752578593987 1.2701967971975916 -0.3067909711831684 0.8247373890313666 0.1410599753995248
Ni 6.724843624549966 6.039008096979738 4.166049791991508 -0.1200311797536836 0.5904515269964605 1.054366469020552
Ni 3.846499361847929 9.155012786991163 1.6489545955541787 -0.05127962411058265 -1.1740451505308234 0.4499682500360121
Ni 0.39006325048039825 8.865408390464264 12.400473101577205 1.2514811213217996 -0.8708377829338552 0.4097968200234491
Ni 7.902358258163997 8.722692893977129 10.680565987811912 1.1310912726771165 1.2726641831573178 0.338751583250165
P 4.7299194638628155 2.3622768296475765 2.2136766478385788 1.2573550636040733 -0.7079105751475937 0.6026874069410202
P 2.3739865802405484 6.212893701250552 2.9405652381678915 -0.8781129764390296 -0.6611406659819065 -0.02696624417619872
P 6.00125183671457 8.161528481908684 3.1525666861349704 0.288351019310426 0.5365246950710179 0.2964893321468442
P 2.7691370978640033 8.288304930452641 5.661085910896969 2.1005370324938726 -2.878211920819798 0.6470296805018211
P 9.01454235804015 1.3504593589589176 5.876672945978793 -0.5635156218375649 -0.0856313621175751 -1.1498963211987616
P 8.957148743558607 4.627754917519838 3.678007509043567 1.2560682264718497 0.9120775063099323 -0.5762729215032334
P 0.8547708045020578 6.183176832203949 13.114314216424802 0.2806716483882973 1.157093096057517 -1.4857847239685187
P 2.0351863262104803 5.674142702011614 10.165554947531708 1.1993558613814699 0.08815952785606754 1.2183254605054372
