# total energy = -340895.68347005715 ev
CRYSTAL
PRIMVEC
9.03360576803800 0.00000000000000 0.00000000000000
0.00000000000000 9.03360576803800 0.00000000000000
0.00000000000000 0.00000000000000 13.22159517239511
PRIMCOORD
 96 1
Ni 6.196096030350302 2.2251487519935385 11.327033274932212 1.406564921804242 -1.1061783114855206 1.1588082789764107
Ni 4.776383573274101 0.35114980863480616 5.9898452590694 -0.2988290360236144 -0.2691824168017751 0.5113340547380032
Ni 2.7466226815628323 1.4632363699172917 4.904259683820668 0.0017972011097388404 0.16542889116219253 0.6908705889461715
Ni 3.274329799147974 4.4574701870082105 5.1386392969041 0.867060832389926 -0.540174118898147 -0.510385831892121
Ni 5.184133439174549 4.7347838184726845 2.5369066190893523 -0.12333504731593598 -0.46741909852260793 -0.11658461596597985
Ni 7.415696051300336 5.9399662045338895 2.3607955702665278 -0.5118428760536218 -0.2580510827753039 -0.25695502149764776
Ni 5.1102837115954864 4.662460770277214 11.429090436684438 -0.6138166840849623 -0.354091556041345 -0.6063807966322073
Ni 5.532270540268362 7.956962611221401 12.206771881080197 -0.2708880866389721 -0.09602916041213139 0.06048443053830229
Ni 1.897526969717101 6.608236228679302 0.33041045639309213 -0.012268532954707903 -0.38554180413082634 0.4607802530498516
Ni 2.884538741617823 1.5880175671099026 0.49674353027627377 -0.2571098019079572 0.08868660400413113 0.436111546658578
Ni 0.4983632557998121 -0.0036712574052759793 4.766544169814883 -0.40410362629341373 -0.2775888956979155 0.4520922383575504
Ni 8.740826655440415 2.2183283795993862 1.3575937700150782 -0.26646964585630234 0.18180758963053203 0.07176591698939254
Ni 6.861511435056572 0.5745282965505586 4.609511193123462 -0.015727438037585816 0.46176087179556596 -0.07374823752674396
Ni 0.6655021273221439 7.280733980348508 2.4126105265292788 0.8730453321081352 0.27516588807871967 0.41701827747255277
Ni 7.400718332850662 3.808459810471185 3.772967676564716 0.9953995035680405 -0.8399446928994244 -0.38118661248592417
Ni 7.834259143367405 4.002465529062984 12.752307723111826 -0.6606673258899138 -0.7563995238869167 -0.8190277402410991
Ni 7.557424293011396 8.855273407574867 6.868182752954693 1.3630268893122914 -0.37663190323570617 -0.2744462363038757
Ni 6.853137282461369 0.6500492412063341 0.29256506817049566 -0.09935179702746115 0.18421337085854728 -0.6605071461629657
Ni 1.8787641704288183 6.5227873512272705 9.210930082153304 0.1068380781021773 0.3010720664215202 -0.6735287552336142
Ni 0.4670247738494112 4.7911173843666335 1.2504506881861517 -0.9047948566055901 0.05924310193203344 1.072220209372521
Ni 6.510293874378116 1.8731181667912753 7.09905823034052 -1.2069915235498567 1.3813313440484338 -0.7235485387951667
Ni 3.404513092620986 4.336952851762672 0.6374121300246398 0.34989423013054577 0.7614890225946822 -0.7824070036942719
Ni 5.925566636856699 5.468646854477617 4.803590987282984 -0.18302423564645254 0.7825988079901038 -0.15576899947492526
Ni 5.374588950679061 2.9311882820726587 9.320973854811056 -0.9525780375271401 0.02549274495446577 -1.5549047186946319
P 0.4205757794437813 5.478123106982869 12.413636937556864 -0.621610211987452 0.6705570741997999 0.04966317155308221
P 3.9486975072219335 6.252456697061711 12.6409423339226 -0.3600048362019865 -0.22270432784489388 -0.5825417852310806
P 2.4281067739530253 8.604383073134096 1.47875610471617 -0.9543698393202403 -0.7082221928507416 0.4447447968535437
P 6.267624121233606 7.655384714524223 5.572082544477988 0.15474132954135927 -0.6277548914326093 0.5350000308963755
P 4.769228957464607 1.077537535823632 12.4984932104671 -0.3614217711541711 -0.5849871614477795 1.4077232037784013
P 4.028220339255999 6.108135810480291 8.101479527049117 -0.2186666674404105 0.48779123442105665 0.46038687426617486
P 4.815435851234259 1.0156844367736206 3.8500496283062 -0.4199151394043735 -0.3587552800656015 -1.218810627671972
P 0.152469199031122 5.340794231306183 3.4287963284259133 0.8634762003624613 0.4073691844185629 1.3211762718250923
Ni 1.4909605061790827 1.0309241297920768 2.8895135483429355 0.37694969158644115 0.9682265426976744 -1.7735762712310486
Ni 1.8385013892887716 6.384609316603498 4.676663405347526 -0.7148101304809044 0.753476693813167 0.3671144506635742
Ni 6.080791085662942 5.767008787502852 9.04474786948732 -0.32183526711080057 -0.890586169205376 1.1069118472174357
Ni 8.590254513631509 2.486644539667071 10.243245387241673 -0.14676756730726334 0.18939491505948672 0.40880745952698627
Ni 2.2135134676972896 5.315816311213693 7.0884012855545855 -0.047566436925053565 0.00040957673359284303 0.11718496855414011
Ni 0.5157493335611166 0.2102833729189806 9.45324210450734 -0.789799182393285 -0.8895140191871197 0.04711135166550596
Ni 1.6050278468690922 1.2700978774842195 11.449386238880386 -0.07939515139987617 -0.5019626408254323 -0.5278161115534264
Ni 4.0098008169888795 6.76146425059931 1.6297736032920067 -0.03224086231157673 0.25664263246355157 0.1725102234890061
Ni 5.646509519468952 7.7101102985822 7.840564600229814 -0.5515245109139598 0.7935820464744848 -0.26894073310461425
Ni 5.078169242905141 2.7915197024885745 5.028278444682065 1.056772250248567 0.48721582153356086 0.6107416447040642
Ni 0.6024132309959471 7.426021462752675 6.733163770286198 0.3413203724186057 -0.18329343014743918 0.297638615259939
Ni 5.092234567166988 4.522042401410063 6.933801058910509 0.1407208468925512 0.1974959469000663 0.7964956205768541
Ni 7.974822049927677 7.343634977673647 8.748610913575568 0.9917282253640404 0.5126666575064978 0.912462400453177
Ni 4.418454043471334 0.5674125252460903 10.415575872028798 -0.10019151931993713 -1.3484428208505292 -0.005304442932048929
Ni 8.247221399826033 7.02917515907705 4.564768646857242 -0.5318447730968453 -0.15304980077154934 -0.07332657660829307
Ni 7.386725277435375 6.062769042051905 6.752678165578711 -0.9205351501589825 0.01929227257070871 0.2896720521146947
Ni 2.368304303424169 5.075531430005681 2.738615293363923 0.1090155453694703 0.41000430804856486 -0.11993373494387086
Ni 2.443093526008519 5.186446042264486 11.431298249946863 -0.009433377498757946 0.031393169599300774 0.44523022113039457
Ni 1.2339905550214043 3.3713145912322333 4.0976101756416945 -0.7798050472950505 -0.2202774635709561 -1.0408987735514204
Ni 3.793238184664369 2.8376091593825654 3.0337215148516044 -0.539248264649768 -0.27608068658350515 -0.9066573637356257
Ni 1.0837255558103793 3.4921119682581936 8.397114214477272 -0.7140884218235315 -0.13518449045535427 -1.2552557578728833
Ni 3.579295298027678 2.75551174968978 7.103857785112724 0.3512767123003692 -0.7235140860128055 0.4433882828256493
Ni 3.905444602555444 6.931955493241469 6.020850400965039 1.0220104212873495 -0.5839466359984072 -0.7915053664511142
Ni 0.7084406625060952 7.34141271064191 11.283296168993767 0.6783146066580318 0.18568532741838345 0.09309733147731708
P 0.10169852760117105 5.613807866400303 8.073740937018012 0.6611303815692614 -0.1483598514950477 -0.25373497189845334
P 8.474326250142564 1.5894268096178332 8.176433161259391 -0.2397952218889096 0.727541976225276 -0.7705896993443696
P 1.7959982739053475 3.3082329217906925 10.420058347236717 0.2950160900354274 -0.5806687365780838 0.09444510375446315
P 4.013585897827488 6.084458729625891 3.796131648608537 -0.5614955060837427 0.5721635273205502 0.5043529954344798
P 6.893643970958557 4.028229372861819 10.427502038432452 1.1965564442594618 1.7832387340214773 -0.1700033979067524
P 6.3394864555322545 7.824150538454749 10.097861245255231 -0.700269256552252 -0.6081844254998493 0.5012311619760464
P 2.3846009283235734 8.466963861399208 5.7580447404475965 -0.7012023098894827 0.10078441570892964 0.7267927567640773
P 6.855079507712683 3.797050366320438 1.5078434120962094 0.6735945754745432 0.2687838958117758 -0.3674227259326124
Ni 5.227341175811938 2.956762420149274 0.2896101757067512 0.5703964081177982 -0.04281889493773916 0.41274664668039246
Ni 1.2467098720160612 0.9630727164775397 7.153371881973103 0.5642337309505122 0.3769952001123959 -0.627572600218474
Ni 6.726856506702626 0.7803183539346369 9.178312441618784 -0.16799202390367843 -0.8841789801274514 1.1551035764313138
Ni 2.6184358149760554 1.6490305408186476 9.13454913822346 0.27732021541756113 -0.33228551590984706 0.2614652506631755
Ni 6.3055110640429755 1.7962692820799495 2.3001475542329137 0.09130732945642984 0.6054238320355767 1.3660139969650733
Ni 4.035347854248034 6.737696833686709 10.39469920897862 0.7365058702867832 1.0433462066506483 -0.32466399480884733
Ni 8.31903856609558 7.20622479954458 0.4149162253975081 -0.4655895015130369 -0.5557807150871524 -0.546216211327169
Ni 7.46089118121814 3.88529966157669 8.216414997258434 1.0417292398725155 -0.12339521112991009 0.019736044976346654
Ni 3.028832527381783 8.385309098391605 12.55180232513249 1.083974778805288 0.5673905314119391 -1.3486814192238967
Ni 9.38429039800392 4.980570165625117 10.275493553298155 -1.6856573986308776 -0.5035361559601393 -0.4592926127607316
Ni 8.58406649364476 2.1944706266285845 5.784434613129764 -0.0189333465693932 0.4618765714378239 -0.01355434164566698
Ni 3.4902510454592597 2.7250865652877883 11.599662078418397 1.332876848091472 0.7972695226284011 -0.3404423406890266
Ni 1.3262146368384873 3.305044058936208 12.838895738257769 -0.6615031915276478 -0.2714125916838745 -0.8960240523914955
Ni 3.224581731896855 8.421886168357064 7.87858975720823 -0.6008493252910169 -0.16499977404457392 0.8972329850979321
Ni 5.779863608584809 7.555509168577541 3.4106297471217553 -0.5548412339920187 0.38514071203766576 -0.38166689455645236
Ni 3.207146872664122 8.350746522524023 3.684210692661376 0.6368851358686515 -0.40782221279558145 -0.3946697345740235
Ni 3.4772245858667206 4.313483543842134 9.225843662001656 -0.2832232111655574 0.21125263436452651 0.13514026748098018
Ni 7.420592265654814 6.256160475447939 11.46325553389594 -0.4107141896313959 -1.0068416839667111 -0.607583815801373
Ni 0.6999969511460769 -0.03625999040117434 0.09398292487025026 0.07862716288560008 0.2626371594840896 0.8040011849252799
Ni 4.5194136221164225 0.1241407145399681 1.5288393187432134 1.3965995830614142 0.3772389406920858 0.2109523295152883
Ni 5.847769223534266 5.637213939080102 0.22201079999459397 1.0010816415544823 0.10934130414000523 0.8799081206662395
Ni 7.831702632920326 8.696634255768638 11.456604993291204 0.0970444890505232 0.9020147227572918 -0.31035452016471066
Ni 0.11685330472491855 4.692831753044285 5.942525425062715 -0.21752381208521895 -0.1119453174217556 -0.4377717079698203
Ni 7.798341526626812 8.79776547292431 2.4785730128668395 0.622699845507205 -0.11844146666906054 -0.11567598810878142
P 8.569549489091909 1.688200255654466 3.6109761536386595 -0.6698664758906786 -0.39753548615759277 -0.45702078600741936
P 1.9830119815924128 3.1700910215901996 1.7836457213069854 -0.7409291961654594 -1.1898636056203187 0.06798716667325067
P 4.6385397820656715 1.0673927964876948 8.277697172420618 0.6172750749472079 0.473655566350623 -1.2921585444365036
P 8.640580731655112 1.5855423591152036 12.297537938917921 -0.7482984920463371 0.41643566549620536 0.7895297307819822
P 6.295836072209681 7.641870440217399 1.120838318600968 0.16581404241575315 0.08849454259798308 0.9201073185929445
P 1.7362409714055922 3.1291868544369277 6.187614377845839 -0.46685448426838955 -0.3187959660638445 0.09525191592647467
P 6.937755068177953 3.865841274640262 5.966350657052565 0.10482490432689043 -0.18619440584431804 0.21608527986647943
P 2.375576356109325 8.42933889315862 10.164246504345172 0.5969649026349461 0.518051833077811 0.5524177121521906
