# total energy = -340859.0300742277 ev
CRYSTAL
PRIMVEC
9.49550366258380 0.00000000000000 0.00000000000000

0.00000000000000 9.49550366258380 0.00000000000000

0.00000000000000 0.00000000000000 13.89762943040348

PRIMCOORD
 96 1
Ni 7.977200924902078 3.6297986217852967 7.564382013827718 -0.39576708140326033 0.2033323510761853 -0.9068707652980124
Ni 4.052433984314018 6.390122480249299 6.6721959053830515 0.047302641740705635 -0.08046344476339047 0.06164888316004867
Ni 5.481440783231875 0.6680172128271099 11.25770460406391 -0.030529793157740966 -0.2921757923731549 0.3284687132669182
Ni 2.8425644137418398 8.966556419130043 10.276170556017949 1.1069378153593645 1.4694551335705597 0.618972774364605
Ni 8.757484424428807 2.2568532751662906 12.59180764431881 1.8514472726769147 -0.1048614139917807 0.09996037714573754
Ni 1.403463894669227 3.6872274265792417 3.1036461294248694 0.06820776732448898 0.3365849146161493 0.47212730263155467
Ni 3.5630642236219616 2.203574005374818 11.115462912110731 1.3804862224393193 -2.188488558104192 2.1641648937571634
Ni 7.216354720913246 6.683476563467576 4.537687444265635 -0.41799041157783495 0.32802442664064796 -1.1798000507367294
Ni 5.566140673900193 8.55015960236019 5.107184061170195 -0.6480174983363871 -0.3454660191558631 -1.5020366670510068
Ni 7.3964749256315585 9.256026841442118 3.3386275548074495 -0.7441055370109121 0.49504277377714745 1.0536673860709982
Ni -0.036355434013653785 7.041599475637492 -0.03181753292056079 -1.1602262423698597 -1.407872327761756 -0.07191195564895357
Ni 4.6317356580688145 1.854025532809555 3.715350259112017 1.4147436009602925 1.0127544499067203 2.019459865405883
Ni 7.560889567663165 4.211341234351496 4.82178246208137 1.0066570787597307 0.8212715419699533 0.24129031837719733
Ni 6.03793425772823 4.086560823670737 2.8799225729185625 0.18681044216176215 -0.2738276288832704 0.6505158392782088
Ni 2.4885245680503307 5.585065212252432 4.579810447067622 -0.8976299634260346 -0.44834254150713104 0.3153303761127472
Ni 4.58447653745713 0.7125720140596083 8.81288973744008 -0.2655443058285556 0.3535184571466944 -0.5365972001801662
Ni 4.658161644137192 6.075232595233292 10.163280414742445 -0.5778461795276242 0.9544392591055949 -0.40119365173547034
Ni 2.0524435726531856 7.550767360998095 3.2181486071841734 0.058978021196104874 0.10760760927835014 2.222223231352476
Ni 8.662007137358184 6.5343211954610805 11.135364537766755 -1.486395360969324 -0.8174830214617986 0.12614783417438274
Ni 3.4320832491960886 1.7123146394985695 6.4818822777238845 0.7299726971539557 0.20298628059067622 -0.0950984210677459
Ni 6.0422452162891505 7.785477214982344 11.878512072897214 -0.31019536887902704 -0.1171253189607983 -0.2921706501668323
Ni 0.1166816957983595 5.086541786245997 1.410567480791309 0.8147653654203194 0.20653774538736044 -0.598244283568002
Ni 8.848460842869743 1.2155763681385072 6.780792180003825 -0.5011619993010078 -0.4080528407491488 -0.7709578813170658
Ni 7.558316286231426 0.2885892395930129 12.764166224526775 -0.3496348058215721 -0.6562087758979279 -1.4144211846238672
P 7.168070085930242 6.838699558171053 13.480491811095485 1.6802729943905128 0.12190602817889329 -0.757433878688702
P 1.0220010350483342 1.2000322290102519 3.9202157457901534 -1.6188022886795412 0.8278399392160903 1.5945626994058861
P 6.974247869750677 2.335552007661697 5.3901813987884815 -0.505536988440252 -1.7546706925757973 1.137130536892661
P 8.3421700950509 9.375413806170007 10.303410306730978 -0.0749088334937484 -1.1970799208630998 0.15515553426064246
P 3.4382933084446403 7.5285953604700095 4.967415947862657 -1.2621224030857296 1.650991471817576 -0.3148246401209223
P 6.017404979294945 5.632694657498202 6.543504296836117 1.258913923450761 -0.5206008247519098 -0.5339091118250417
P 1.8276850062721204 7.960583793885311 0.980287288444531 0.9084501939699902 -1.8536607353884658 -1.677596990220246
P 7.06067594204474 2.69954314095639 9.502420912407013 -0.03712261588391026 -1.7830991231198194 -1.72180093843097
Ni 4.794972857674091 6.060191717787259 4.294255970373443 1.6931974157616645 -0.5488544202809644 0.4421179007536579
Ni 5.656120064480126 9.189273452271907 0.3094888426603862 -0.679098793122224 -0.3062129871925114 -0.5935972717142938
Ni 7.205387414442181 8.758348515241678 8.456846340523121 -0.042442228324610774 1.320615514225616 0.4191342953742911
Ni 1.5557907608240666 1.6475458105469325 12.862839698054678 2.407077321118816 0.47159457005653616 -0.06319308771871697
Ni 9.128806086377752 7.281769244098679 8.81857374579816 1.0104885366906793 0.13953325434235325 0.3650333997648294
Ni 2.426385993551062 3.8614984011796514 6.727786380711371 -0.5148379541262036 0.550333318819336 -0.8017445276806192
Ni 0.13465003695437514 3.8925676884292857 11.1525836837015 0.1810923087310623 -0.27822318684780467 -2.3442858397138915
Ni 2.820734251337528 0.7628155714019037 1.278142240292493 1.6523148186146897 0.4098040191123007 -1.8216394452868627
Ni 0.9903905041027251 7.300883692519679 6.673946876217046 -0.2444594601337983 -1.2192986230519838 -1.0956583857908033
Ni 0.8469400345618704 8.11085963129751 11.208256769909733 -0.16320874358242213 0.3723116785937975 0.015563658766211902
Ni 0.019095457414124314 5.52361031400071 4.152944837757204 0.16153264143157986 0.3677543982404182 0.1839421194750316
Ni 5.636264966790948 2.8372184453061604 7.844447139984301 -0.8878088635705549 -0.2557121502294822 0.4126011222414636
Ni 4.261695889084018 2.0914605962805535 -0.23244517641424972 -0.012467536339391431 -1.7903858865892197 -0.27472854343098496
Ni 6.208378544443065 0.6140799046473733 6.7166965822459535 -0.09525114459552628 1.193107566478913 -0.19520072310798642
Ni 8.15237397232911 6.395544412712484 6.478087874549998 1.6674812419424831 -0.009859923513215277 1.2239258374113502
Ni 8.30753999401196 4.63803117684831 13.025344794344873 0.358982308474743 0.9760763777593965 -0.4955099432215531
Ni 2.049025191415451 2.639588532247896 9.629292232944854 -2.1585370060474247 -0.7403378424383636 -2.2795549751944097
Ni 2.892016995647737 0.43945189911768934 3.6089778313964596 0.861733763750058 -1.6109588813757223 1.2132968969425943
Ni 3.9425045410105284 7.928650415822805 1.604898655955159 -0.5769624913710902 -0.5938029599671967 -0.07330549356237052
Ni 1.36984031699473 5.7793906901142185 12.14704206147713 -1.319036342663954 1.9421871596656488 2.6576086984783065
Ni 0.5965464575488251 9.133468378565885 13.454114252094643 0.19643330996350686 1.1191001617535115 -0.11074975445175765
Ni 6.029055962013557 5.209261672680676 11.827257244438755 1.152248880591338 0.35824902985314433 0.18557014199675784
Ni 5.975064529464223 1.6512870389015646 1.6730526318824972 0.4495918405331999 -0.6805278122592667 1.53150767992693
Ni 7.150797765176243 5.0359022664103295 1.0215158148226446 -0.9469388369634917 1.0087676973448303 0.7015429810583531
P 8.390616153592353 4.054038724395066 2.731523046985743 -0.6626378193527233 0.6758113806202038 0.34135765341444435
P 8.272007820146392 1.6457796469074364 0.5717764872800609 -0.11408370392099706 -0.9494083815499067 2.535061694281305
P 4.891000883944126 4.115284721571148 13.226567805904134 -0.712448058006631 0.7597221605022465 -0.1865445900948852
P 3.8976857647824494 3.589585164724721 9.58854417904071 2.307146254549117 1.522951305716487 -2.0221988616036013
P 3.0681870709357777 3.465630862843081 4.515673069094623 0.7342386715191613 -0.6642121058183788 0.6218896909010838
P 4.750230045473517 5.7664957964452075 2.1843873911276876 -0.852440768483906 -0.9146036151658958 -1.150175543002077
P 7.721942801477667 4.630757621214684 10.059632246963293 0.47348793042450715 2.0834710781505215 0.6359826786590401
P 1.8898520672817036 0.9482371156897355 7.878441042292887 0.06867982186490107 0.17444137907344795 0.5885779641228315
Ni 2.336947846667105 7.726870967762069 8.43770910289387 0.425884469613931 -0.3706373762151681 0.5314570507401234
Ni 5.259825228488838 3.8177811033503977 5.492467911374601 -1.0806261740480294 -0.303303012634568 0.030929342589004802
Ni 6.906896263863863 6.53864164952544 8.390901968245842 -1.4954207043963856 -1.6519880314028905 1.2409264857344047
Ni 1.0738844658343984 -0.1394025364251704 2.250721079045932 -4.520434388195492 1.384602558600538 0.30779241586448924
Ni 0.41893686393956125 4.447399449823964 8.753644442838418 0.6243013856663701 1.6931033133859617 0.1628981543205388
Ni 1.683419822536272 9.491344407646407 5.922989289508708 -1.2794212993754934 0.6158540262299652 -0.8732235095572122
Ni 1.1197287564337977 2.5082562241948114 1.1662196908173352 -0.9938465572586238 -0.21183781744403518 -0.20396124290943582
Ni 0.5906791859743908 2.9455526440320403 5.302014699814892 -0.36314878114760685 -0.24109260054409445 -0.06164451228467448
Ni 8.599830580845163 1.9812272968670432 3.091750162717552 0.138844970026077 -0.4771625510626169 -0.331833515974093
Ni 6.306827924089827 7.259720685115289 2.508021685259889 -0.645903794427494 0.44506181387333027 -1.4450216831185436
Ni -0.08776883737952952 8.07781527933274 4.432982426953817 0.22845871383016786 0.30449343339824336 -0.04107902942849699
Ni 3.7504389929670214 8.804971437123006 6.680409515857054 0.5961429209542829 0.20159505667010444 0.9874807629415961
Ni 2.4280951841699294 5.860710181558555 1.8162809066428993 0.7612792205767213 -1.3121146758434563 -1.053917297298275
Ni 9.365282104001498 2.1666839745175963 8.920805184464339 -1.1091206819432964 -0.968133725873552 -0.009325648276300067
Ni 3.2502158718451573 7.5090915964080445 12.268591152337887 0.1333070709269833 0.16917730246103124 0.18293064749138171
Ni 3.812368666390651 3.4136144950088823 2.2837834724672343 -0.8338558063928672 0.7213062797282093 -0.9631699541103733
Ni 6.511835843319536 2.8447578750360534 13.787156691033363 0.9588057636044068 0.8303711902783764 0.1620949416929531
Ni 6.913248755663987 2.855782154527748 11.595500492023772 -1.5852234242828314 0.38907989919107183 -1.5063229531311866
Ni 2.67949813319845 4.359831917117323 11.222237949172067 1.365889812682383 -0.17026770731173257 -0.4173044412544039
Ni 2.8166606803625602 3.866322116926232 13.913194306369336 -0.027394075742236693 0.9028873551702321 0.05567621051638153
Ni 5.163588301143164 6.50338484525958 13.99532946155901 -0.7634224921719691 -0.823856271977994 -0.18891283321674562
Ni 0.5471527477642444 1.031600989024306 10.854103927727309 0.3200164687345069 -0.2737381544932576 0.09891496660035867
Ni 8.046385162952456 8.995679128174858 1.074970751427723 -0.009248000960829235 0.24091596575691415 -0.687234534855481
Ni 3.080521729901937 5.368881085476017 8.364468385774714 -1.06225641329159 -0.7079128891404389 2.162481078296837
P 8.587144588251792 7.460787970418164 2.4148242685647676 0.32702401040059165 -1.255010988851929 1.1232756332874396
P 4.870690002089918 9.451263887633967 2.7161669188255635 2.174566291596145 0.13233108016695916 -0.40185571079950144
P 4.932781099071995 8.164860559350283 9.278459968314753 0.30987655208702763 -0.6301974394358308 0.5142779678576757
P 1.5855306775923597 6.27382155413881 10.138904507866364 -0.038698445011462385 0.22690113953506083 -1.978406804119315
P 3.447760325372478 0.18921784656240506 12.456236543530933 0.44184690648045843 0.6924124795119946 -0.11380088257325563
P 0.1674484553800971 4.752091164147395 6.525715420695082 0.6142694553516647 0.36123485195434557 -0.3851134583441561
P 7.705031309854318 8.695459795970796 5.640630999271811 0.024591830406751194 0.1461093648979742 0.8722400625980204
P 0.8482133815729266 3.821892656339118 13.149853633627302 -0.2605607365710351 0.21356919831284507 1.1761668248595163
