# total energy = -381162.6513669607 ev
CRYSTAL
PRIMVEC
9.36210882200173 0.00000000000000 0.00000000000000
0.00000000000000 9.36210882200173 0.00000000000000
0.00000000000000 0.00000000000000 13.70239259746926
PRIMCOORD
 96 1
Ni 2.7700701661195173 0.9887323290237704 7.233451875892748 0.8613745806384262 -0.25014159812024017 0.4630448807143122
Ni 4.04488982125169 4.150896981194273 9.650485338400959 -1.1991848830212446 -1.4785804929105955 1.212284910738312
Ni 9.30822067737818 7.934256288183307 2.245438175707925 -1.6565519966244893 -1.3157772122967082 -0.5780510964495787
Ni 7.546561993351347 7.44754832881432 11.927110571531893 -0.2843154157884716 -2.005973143773358 0.8308607283202851
Ni 5.060191815551187 1.5313976137461813 4.969884912362442 -1.8408854380006683 -2.093747263265549 0.5667935212578884
Ni 5.9228539850954185 8.046161576781177 5.241398243426897 -1.6984933740532813 -0.03975054042506057 1.4777109458214488
Ni 2.952696825926985 5.33247939302801 0.9288494713764384 -0.2512425444939028 0.6472788203981497 -0.1480862861186869
Ni 0.6352003698475975 9.119312042447381 7.021256867304333 -1.099586774310932 -0.4966656540925511 -1.4200061349108126
Ni 3.2767943144805773 3.813243158842494 7.146044417854071 -0.43741946683672406 -0.14725324869443027 1.4148629001469761
Ni 6.621014537810972 5.600816160516688 12.900843865764173 2.0092142764184753 -1.7642958743703872 -0.2669470997133532
Ni 4.592732352238187 5.741285243602311 11.804940666652024 1.1501953404964191 -0.8617378775151159 -1.3393614273745513
Ni 0.8731271349583285 2.8004595718577154 3.9632391240227545 -0.267686548982539 -0.9759398521815321 0.9387092499648478
Ni 0.8949268057104528 2.086935798311483 1.4086332149462968 1.5030563665647727 -0.6481157144771483 1.0910283432179597
Ni 8.404533746298277 3.9782409674469346 11.44330673836746 1.4679250700792783 1.0704399775436468 1.2876601423455178
Ni 9.169483584453237 0.7220807411508888 3.140601842775487 -1.4471197032981529 0.8612719936222909 -1.5637284876338489
Ni 2.9546628688120813 3.7722932941786373 4.957827452211418 0.2737085868069028 -1.0845810449307192 -1.0572543320913081
Ni 7.012556659432335 1.434443613184017 0.7935604431875946 0.7846166097510809 -0.7809939253968291 2.0101835823102796
Ni 0.1807383224268781 5.552348522344583 1.4912454007671343 -1.1861211078587508 1.1413785135357375 -0.03059947005341182
Ni 8.078807250782749 2.180285386917638 9.915201778348367 -0.32025172467376456 -0.07717011872409936 -0.5228376845022286
Ni 5.393651413081427 1.805042697024619 10.600623309379396 -0.940735022145625 0.4920482099251977 -1.424794043217759
Ni 4.021128788668958 4.418653297926399 2.974789530690079 1.4732801637436046 -0.08238534437645166 -0.45863878122681656
Ni 3.5411802719811107 7.326252844912871 8.302498929194487 -0.17947559906324573 2.236106931313104 0.5144797994558366
Ni 5.267085061826125 9.377369214279701 3.1481242973382235 -0.44213898379958044 -1.3772332627196604 -0.32301848878562434
Ni 5.057654684018515 8.21582171565599 12.577851106069826 -0.7469208949725201 -0.5313392942153365 -1.6890006040714975
P 4.81086949139408 7.610346041809248 10.391031903297387 -0.3686787098269005 -0.19424530117325256 0.04690849162608051
Ni 2.2647222477780242 -0.09363700535173795 -0.17286291635572198 1.1373210556369124 -0.6351884648925189 0.8163735904477037
P 7.591977583997066 9.05376791750187 13.171644740335507 -0.3094878012890412 1.60719941433329 0.7634006377950981
Ni 0.13952912734436762 5.954750690378857 10.06399658494692 0.2978165355987 -0.5673609637255842 0.5984229752377113
P 5.522436584164194 3.496738340668964 4.591726861734095 -0.283166389785693 1.9256415966021414 -0.6230034927905529
P 0.4920359355875976 5.630362976446989 12.594924784210539 -0.5063283739932957 -0.6210497114982918 -2.0820335743730465
P 1.6647140455736456 0.48412308108053487 11.397225501773503 1.6319676224169057 -1.4275646639843609 -1.4531571677414845
Ni 6.2498724516497255 3.911152094520277 10.927617434450362 -1.2591964876881865 0.5382383353280149 0.24987548894304712
Ni 7.075161082159179 5.404352303641736 9.3227656498843 0.46300759971847355 0.0914950199872037 -0.38418349033071897
Ni 2.6200423697687367 6.3395427314280575 10.560447691127907 0.652679936809063 -0.023292394869037305 -0.9376874935685529
Ni 2.1554383496936147 7.422532773628717 6.187576042308213 -0.785224675648725 -1.620595376024222 1.3569696273746177
Ni 6.233058103927665 5.987078052675222 6.590604535433025 1.3345925452309981 0.7501041777965082 -0.7745083176724855
Ni 4.5491423728429154 1.2202011113624098 1.1000627841304749 0.1861812932181955 -2.4461141233063035 -1.3279128192179777
Ni 3.276279398486862 1.7795683984991604 2.6901907799089635 -1.4585377153271073 1.10906797432849 1.7002458379680139
Ni 3.731100014681387 1.1058710365395872 12.244088176208743 0.431182999008709 0.31963620257695274 0.5264516271057321
Ni 3.433441121877848 0.6909863686067486 9.94830713190069 -0.9899654770366628 -0.5552785786397534 -1.0055713018947199
Ni 1.7278614706211348 4.299211511602326 2.552043499849549 0.11025070332815205 -1.7345181288873224 0.20002256997666198
Ni 3.293552489548777 8.035685376836309 4.298399816754051 0.6956430706341504 1.0103887778880212 -1.2582153547218395
Ni 0.4341275467234405 8.041283918004344 4.671036095507971 0.12970135585359596 -0.7661589172665256 -1.0111431395555424
Ni 4.103243846503136 6.049850993363645 5.1376295637406315 0.5014085680941752 -0.9149466003276113 0.3383422636268883
Ni 4.8502465217498605 5.494855811118989 8.123011384526889 -0.2654933979859621 -0.3924336461546532 0.18366572588519336
Ni 6.2705346261611865 4.714233802537122 2.0137718528698785 1.2763022941305375 0.15106465202072047 1.3610481683193656
Ni 6.435513710547673 5.462753139438064 4.255250792691579 0.005952360928692974 0.008806028327404188 0.2124289140608148
Ni 7.376967389239373 7.821021580110752 3.6536472871175802 0.7275923698472373 -0.18375340050299319 -0.9488874760494302
Ni 7.679335422858165 2.558449054811371 7.450333556234873 1.8715314450212992 0.37726285195148573 -1.2686285796353634
Ni 2.123831869788452 5.524543058683939 8.43546709056802 -0.5230454296376604 -0.713201648343204 -0.6653670453584283
Ni 1.8382688217827419 6.576010879960227 2.8012899909239444 0.6594982452824771 1.1986449513573745 0.16679903203684174
Ni 1.0328746728486646 7.745712775502598 11.511434805390525 -0.2919783316503682 0.5026123585942893 0.43843505258543203
Ni 7.871183760007631 2.617758015178435 4.496002106080565 1.1424902585426775 0.5301172488827773 1.590759780720028
Ni 1.1433007482282251 2.1001363719685564 12.46224403958259 0.27128480785675857 1.1952359256758254 1.6059768547800988
Ni 2.8617813856547585 3.0651076684095946 0.40179082231809915 0.49377830524242705 -1.0223492926840072 0.2047181756801184
Ni 1.0233346838014605 7.1460135228944495 0.16158438367155445 -0.7140686243291896 1.8913479655265943 1.4774990869209585
P 4.27621817195568 3.166789534004966 12.089484180990176 0.6020893683457049 1.1048606211153618 0.22548908967888262
Ni 0.8925900233098816 4.353933038570832 6.121845611394067 2.5508683222962585 -0.2957560535252455 -0.843311038268496
P 1.2489989585745782 7.5905826297595445 8.704362775962604 -0.21183190390676424 -0.543163026323142 -0.029290521434001168
Ni 0.6922436998423124 2.3395348606104167 7.3821090594893475 0.27263669389896267 -0.5190059694609642 0.041808194285037674
P 2.52619658938682 2.4621410397685954 8.730466208211293 -0.22612620904224925 0.8060346704155408 1.0971046313190267
P -0.04638737755749434 0.661858975158602 5.142220741982779 -0.44659907645346314 1.8540248035961038 2.050786957653939
P 3.5296555158308567 7.798917640816888 1.2159366707235468 -0.43747243156184656 0.14436461429272557 -0.3178474861076461
Ni 7.417524045326211 6.827720541906378 1.4545496784222658 -0.11648177183952843 -0.9857043877674636 -0.10290377604477761
Ni 8.847005740752605 5.431455609129131 3.6480843219636556 0.11828514359685435 0.41695991343079164 0.896542643899127
Ni 9.411540912044464 4.500262801875837 8.193606367265302 -1.6583936778189179 -0.48436832478243674 0.8511284774303858
Ni 5.1345550471527 6.122201371535179 0.6716854447404916 -1.4387309650138254 0.3845565573994216 -2.2727847463501116
Ni 7.038311821227093 0.7576314775679134 6.053963767837087 0.7956245308258104 -0.3232707140057465 -0.5508328841635739
Ni 0.3497946052726951 3.870885663811715 0.12250600459212899 -0.2845601848094261 -0.3539853694807839 -1.5249572804029219
Ni 6.284418633773555 1.997845969289703 3.147892117035603 -0.23173789880207185 0.9166535557163891 -2.6911245708475655
Ni 5.899373815781987 7.899354345918365 8.457815380906176 -0.7162453202655341 -1.634282129482695 0.8869480582321563
Ni 8.884622694620775 0.6196948449604734 11.557584385380013 -0.3086735329178619 -0.2822917004902235 0.22835561259340026
Ni 5.9864133429378805 8.504165310027762 0.8453254161412753 -0.08211306455167149 0.5797845342009176 1.6161298840537004
Ni 8.202368365056547 4.750203025225403 5.973064847958976 -3.1566557083188407 -0.9177647865026968 -0.4047638855852319
Ni 8.554505369995198 3.4506767645038563 2.162895269493515 -0.5786043978498875 -0.5382118529654538 1.3702511749748725
Ni 9.49860852552729 0.1768764524740109 0.452996877365874 -1.6309731197141204 -0.3420449092894561 0.0714545563965608
Ni 0.8427770500778318 0.41630302744280084 9.108830225237126 0.32656146894187627 0.513273180742245 2.1081408129830597
Ni 2.3728639685672825 4.422641556350451 12.185126550084714 -0.012900767222068104 0.1533292796851811 -0.21250964670007916
Ni 4.917784775907398 6.866732450012069 2.643465430217412 -0.018198011065265435 1.0984616595675534 2.8640451424011126
Ni 6.555170825378209 9.268132126740174 10.807447276047908 -0.46004131800129805 -0.5426786304875557 -0.7360777816104291
Ni 1.1658821550798995 3.245281455665181 10.391922239861065 -0.08553545996965914 0.18540944804917744 -1.4305818535441297
Ni 2.9244045325995556 6.791657698128331 12.786182372283578 0.6044810085063331 1.2278508834973694 0.7263813802582717
Ni -0.08775853712530081 6.590334906694498 6.6360959591614535 1.0306652687488702 0.09734119435533559 0.8801480045911875
Ni 8.536904605119101 8.107230613635851 10.151979812687664 0.4684238856380384 0.48187666870883467 -3.1188034133577576
Ni 1.7639617628350885 9.0350343374396 2.633531296382291 2.9062009498335564 0.9038857145277595 -0.7794204102621222
Ni 5.413620791528617 2.9441866688672125 6.733643517432737 0.05908703597014339 0.7433599170941391 0.6306165292511203
Ni 5.236779915068717 0.8310238584685482 8.220147946214098 -0.5678083356756479 0.7330989014877632 -0.49514150413854086
Ni 5.354882919809128 3.1596275206378306 0.610385163794095 -2.1866749019342215 1.0771752393849514 -1.4029288677135516
P 7.594112144843741 7.722513469458464 7.058801732933384 -1.169691758658134 0.5217786471100949 -0.8725627360447618
Ni 2.5719117675197904 0.9169624016087887 4.922900232252238 -0.9049527223396931 0.09699872341425231 -0.6727412263353123
P 6.21941751114869 2.9257807626191226 8.783576516224919 -1.431490224291012 0.570263739194676 1.9859619907587542
Ni 6.915181363966222 1.8350669805127282 12.30732454129151 0.5057725014898257 0.7796906332043734 -0.5225070406356872
P 7.3252791855793005 3.6240068500975133 14.161833813516042 1.9957974887919374 0.6070893926634576 -1.7932513810624728
P 1.897989714944778 5.686694786159478 4.736218843046983 0.02706805986138564 0.10107777857963239 0.1561052997684215
P 3.8333810552512637 8.63141509523836 6.365158397799063 2.0240729386978624 0.6916581178444734 0.10032727356685302
Ni 7.4654767675046 0.13010522844847397 8.26294027392456 2.284604878913491 1.1460157551974328 0.9032768772991668
