# total energy = -381168.7205312959 ev
CRYSTAL
PRIMVEC
9.23255243690647 0.00000000000000 0.00000000000000
0.00000000000000 9.23255243690647 0.00000000000000
0.00000000000000 0.00000000000000 13.51277373211543
PRIMCOORD
 96 1
Ni 5.967848164417143 2.094367635591671 6.318505129863259 -1.0884883504049254 0.040006365189608525 0.07208241978854682
Ni 1.8720846982927761 5.424752488072643 0.1659422080842089 -1.8791851049118151 -1.2576754230579694 -0.4921330563295202
Ni 2.5411400902698076 4.8005580693609105 7.082639195411128 1.9047251581644487 -0.23810626422226086 -1.0116167367578512
Ni 6.163550582672862 9.135259997742105 0.11879063850956258 -1.8432056014934128 0.7312929586272761 -0.3220414695843357
Ni 8.108350865538078 0.2990165287791478 9.81465215565201 1.5245428185733227 0.3690088394728096 0.6167744811617055
Ni 0.49175345112772173 2.739039856053235 13.227668354238029 -0.38398782938014514 -0.17743722847697826 -0.5152215627178676
Ni 2.541435531954205 7.063004325717094 6.255265837317881 0.438350977512058 0.7749934848390202 1.0849829083548281
Ni 1.790847467635982 6.64966294413911 10.43313162428117 -1.0604070187876768 0.1488157080855437 2.2148804178341597
Ni 8.417687541655352 6.795232601573554 10.350298085273362 1.1506895065240184 -0.5922476996649348 0.299080232802472
Ni 0.11765318802463055 7.550196895841921 0.9547992030846019 0.42366612180637364 -0.2000436530225845 0.8167659407901159
Ni 0.4896567384237601 9.055933905481261 12.411564249894036 -0.1610472171547291 -0.3416037079869794 -0.30604997925208577
Ni 5.970793348708486 6.2473636955155 10.938279662775281 1.626958342127772 -1.2250576370229482 1.547399154346206
Ni 7.371473141886447 2.8102136043352246 9.574489456915458 0.6412207871295279 -1.3655442564175062 -0.027180931290166094
Ni 1.48028286201793 0.5966555607047902 0.9615555851046771 0.394156799493347 0.949074652359572 -0.07802783873870432
Ni 8.127563807576582 7.480251077060712 4.747523517245691 -2.3660453428781705 1.594596380857299 -0.8065298648844045
Ni 3.910373809164664 7.235052944115702 3.8810041359697185 -1.6406168134514714 1.171567121303976 -0.11510571742760821
Ni 0.9105457317828465 3.1768844323309717 3.724133834107054 -0.7531627621171738 -0.1470259631749726 2.469433514758534
Ni 4.819918732241613 7.193460294484055 13.370565187683935 -0.01920151262911532 -0.7972011312843109 -1.0702450879240213
Ni 6.029207709245539 8.836319175894586 9.275060233033418 -0.3318520279168543 0.2739698108880894 -0.2772507956322064
Ni 4.625758150276346 2.700272367528644 13.130037803118205 0.3355441320564609 -0.949614841133758 -0.8300382324189899
Ni 6.9538940186478815 5.401467990321031 6.377853824727222 0.46241855998422293 1.05246719511531 0.4317596974477855
Ni 6.06056145800227 4.629783543226268 13.003166834540359 -0.4335088189284082 1.1364980455149847 0.7320290654623522
Ni 0.8812600748169015 5.8725589886461735 8.391419082891321 -0.9852156210565032 -0.11942028564256206 -0.022083719272916805
Ni 5.180653028891489 8.680898384795999 2.4799181104757095 0.4767673725067272 1.4716943073137234 -0.33808155376633386
P 0.3728640243049386 6.7391910070643215 12.478952651594678 0.04836425023600058 -0.5301457881278677 -0.7760944312126827
Ni 5.164292945617953 3.7479916733774505 10.416335764523147 0.2639003424672294 1.1770453708097277 0.7596959352500013
P 3.6234353057458097 0.5262305724416968 9.708779704792748 1.034613968983973 -1.1186548466859767 -0.3826961071519151
Ni 3.269874702495221 2.1927312513909074 10.857446817924009 -0.13981890390357207 1.1994065121137472 1.5576300880455947
P 4.038180035324683 5.192267580109382 2.879599007171343 -0.053877466744745924 -0.37190775828715944 2.190680166438872
P 3.9845296719485455 5.830984804119801 10.567273228060996 -1.5654791517763684 -0.7801264351902112 -1.0681223851540635
P 4.0961327682298645 8.570975613094692 5.63904280455331 0.1901068535248468 0.6647512661513003 0.09732731039826464
Ni 8.671804320448125 2.576334580923711 1.8328325007547195 -0.6185140895606315 0.9087587263493446 0.2966271432762892
Ni 1.7743673611781599 9.015892324692704 10.31440838340586 -0.2790081446429453 -0.023518909057546594 -0.11584696646900695
Ni 2.580913927031879 5.434409738131401 4.625503331823553 0.2817715663206954 -2.2748778814337145 -0.15448087679112105
Ni 0.4318914263371181 4.847459436759082 2.0364158259417526 -1.1124656871561294 -0.13241078436495904 -0.673124320706344
Ni 1.0846587489511859 4.577139528087612 11.479669163392384 -1.2312624802820795 -0.21061628633210824 1.1151869427420342
Ni 7.77988434035604 3.1779646409895514 6.969091723544364 1.1956635001315474 0.34210764420659145 0.3491213565202632
Ni 2.6018256587556703 7.26814241276827 12.617607127103684 -0.5004174078254994 0.920526408408234 -1.7321596559574748
Ni 7.444714981959223 7.1693079367845245 8.143324698183948 1.7054281534999018 0.2018115435562847 0.39547680385635114
Ni 4.849850667892178 6.642350762450262 6.497779143955924 -0.7799762827655922 0.005041161968333254 -1.0658865538450095
Ni 3.384930773462941 4.5347436463765085 12.19875114183536 0.8700867637004435 0.15731217559232907 -1.4685066536143612
Ni 8.049751853948276 4.40413072421471 4.5747630690387355 0.4340636629906138 0.7031226668406472 -0.9785461794561275
Ni 8.715889759291878 9.006308935055046 6.521277836928725 -0.4916453180598243 1.1373614219565444 0.379112760676031
Ni 5.586571438148974 6.508811121102395 1.9952284853708895 -0.2956627224804908 -0.1412386670692342 -2.245791248480403
Ni 6.841007597549959 2.3330568189272882 13.232181225967208 2.484539517162037 0.3196295177087334 -0.1823907158275117
Ni 4.358235705054018 7.92104083762979 10.926226565307111 -0.6702475133791812 1.533348846900727 -0.2014107085734402
Ni 2.288454357135838 6.267767636844232 2.121695068143216 -0.2868824051846995 -0.8823743228185449 2.442731837097632
Ni 8.146056610509365 0.47883987975374087 0.9222119852955099 -0.2537275156992856 0.014881802207838888 -2.1108515270460035
Ni 0.7066503463166681 3.697138773450457 7.797802878514775 -0.4508635081567719 -1.7317796469102367 0.12103905219290766
Ni 3.1263546717462876 7.963473649551442 1.154864925716772 0.9574392222741833 2.7091888845484435 0.4523845727869886
Ni 0.6794337043967724 6.418553686518827 3.949838355413382 0.1805372075585407 -0.89493724708522 -0.7962122850084803
Ni 5.2652970714714975 6.57247880409015 8.80646387043091 -0.02593060382283276 -0.2001236143309005 -0.5207185812766967
Ni 5.9798874130563595 6.45785666309639 4.198053686560305 1.4345521510457875 0.033088040803220434 2.1150791919741057
Ni -0.0987209155863055 0.3655647681897821 2.8128596539211137 1.7086122076548382 -1.6345670077129655 0.9327000676562904
Ni 4.624576383538755 3.09243427335635 3.5279688649642 -0.8536720697878459 -2.0428777301091916 -1.9041361184301981
Ni 1.1822837605394276 8.336579566735482 5.054899199182772 0.2664938142260184 2.570596653963121 -1.6813281751279041
P 6.688799734769199 2.8433677008562555 4.367571662280993 -1.4179060578486742 -0.9848947473819748 -0.16595236776583033
Ni 2.492466072765248 4.284578400112559 9.650053283976549 0.5822749047229392 0.3691998724376932 -0.24116279166039756
P 8.269218862692753 1.3818361532449563 11.917780560441344 -0.5147623636932618 -0.19551953989998586 -0.6314732208244609
Ni 0.7173878050340055 1.9295481059081743 10.580164641308647 -0.23357700889333965 1.0556005985379693 0.43680214496769937
P 2.6139018376054355 2.8335350322973865 13.431521269962076 -0.7627398642826476 -0.8539199241325938 -0.6204763554933249
P 0.5651319329795308 4.601882769155939 5.700093058868352 1.6223627523372899 -0.5474014898845218 0.7215870441934218
P 5.142171749498658 4.770256831604848 7.370704993507013 -0.09214319509416388 -1.6821979793273671 1.22584053793556
Ni 3.081955326112861 2.935480878519948 5.072195463293744 -1.6925700665903107 1.0397230080757642 2.0404462378495634
Ni 4.212287512961439 4.798286861412102 0.8830041040101129 -0.7061077176109001 -0.41107080163986626 -0.16332058656993806
Ni 0.16484261106509035 1.3777276673212977 8.240805681951047 -0.08437614955423534 0.3897188183266514 -0.7245129595909652
Ni 3.7411965146362984 1.3415175958772758 6.565802745278021 0.3441958941941879 0.6852946375202907 -0.8747119211772808
Ni 6.44989820272292 8.247965526521376 6.489320279229506 -0.4558087679771892 1.721908410543112 -1.1104118899508941
Ni 7.918714234365155 6.13209527583712 2.7668076813655857 0.07188110241101814 0.13160165820010236 -0.9867981350522746
Ni 2.976288761177413 6.729450664031827 8.654917981674254 1.2782977272940113 0.23388605549332625 -1.5089259379716722
Ni 6.965176197970827 8.294931521788012 11.302178878469272 -0.7245913782373844 1.064925732593637 1.4331025630834546
Ni 3.5217756686550086 0.42138755120150784 12.49953201142352 -0.10746645571479556 -0.3359789056010343 0.7786328813638203
Ni 4.260730716650063 8.646710242379575 7.868663643262355 -0.2752800450590807 -0.43980339368786836 -0.10496554366981278
Ni 7.594679334449086 4.473910357048447 11.461116348867458 1.408050505210833 -0.3210672785965245 -1.1943568655049819
Ni 5.825888435063937 2.209368311243566 1.7187301524744465 1.861017432863853 -0.20776904669130025 0.8139611243514692
Ni 2.076724227501532 3.2739185605504173 1.8865317966598352 1.666711196545678 -0.3521894539226257 -0.7482082463253759
Ni 5.482769848846288 0.6566339156586255 4.543711224753249 -0.2290796352436184 0.012811035721739228 -0.5189738306714482
Ni 0.9862305052834869 1.6411046964094174 5.6970666281138005 0.3553668232093428 0.23792525855970637 0.3576427637277131
Ni 2.531547468079512 2.1796671894089363 8.615812581723134 -0.39244187368476935 0.03074962247803091 -0.7817081778550343
Ni 4.846600809363801 4.49124909090155 5.180932775236403 0.6279053009675444 1.0329178122284726 1.503086962692392
Ni 0.6299398362180085 8.045541809945606 8.351786504184602 -0.9573641460618737 0.39598819627513093 1.3673311731146
Ni 7.140576232976826 5.021788495659138 8.98002201118574 -0.4043784772213552 -0.22969310045790117 -0.48699059289663227
Ni 3.9099583442959798 1.2263415017252695 1.5586847757597677 -1.3288440727829953 -0.4499530805273606 -1.4430121088876824
Ni 2.823056085053897 1.3974483997548597 3.540914750272412 -1.1961779778741206 -1.4865881937064205 -0.1258218182935317
Ni 8.135180663502465 1.2936098802416236 4.411947926532826 -0.884377983512135 0.5801907685004007 2.0846602133626164
Ni 7.073372482328933 7.021799443296219 13.132484429567127 1.877151362311238 -1.4160157828044966 1.0541942051087456
Ni 2.069393580707408 0.22270855797548048 7.47819868060941 -0.8242267679435353 -0.8168929532862834 -0.7281587838736686
Ni 5.908298199905685 1.311151730252751 11.262802964725875 -0.09143151373911995 0.059335147425207485 -0.03237687366880875
P 1.860036217100923 8.636083574293886 2.8077522058020845 0.3182364940159487 -0.3381473740072628 0.7109154234121886
Ni 0.13954541683851734 6.664924353648791 6.369570378500914 -0.18871203005984918 -0.9761275427123058 0.7461943012191408
P 7.233261828904039 8.038451209520055 2.2503903891222192 0.6446614373799607 1.4927912371933387 -0.5908819296656598
Ni 5.041416902566326 1.9194199956649074 8.90408057272178 0.6909145548102295 0.09977808593160237 -1.0511762442180284
P 7.643547235559032 4.502605130645596 0.9752151467317627 0.21484497970147515 -0.5697698302773929 0.3488699026310895
P 7.12072624480634 1.0411826585815025 7.884122629398477 0.36583481262020223 0.06129715624758474 0.019584349889830786
P 9.132222487924391 4.568063928845013 9.697212239593304 -0.6221087488904253 -1.2447173202354047 0.6705848421139419
Ni 6.326717485434258 4.433176334812082 2.8130221468475325 0.3769268087683057 -0.766753356317415 -0.6991302578518024
