# total energy = -340857.4222916529 ev
CRYSTAL
PRIMVEC
9.39066985431055 0.00000000000000 0.00000000000000

0.00000000000000 9.39066985431055 0.00000000000000

0.00000000000000 0.00000000000000 13.74419455524195

PRIMCOORD
 96 1
Ni 4.529429902367381 6.897099461124273 9.423954018724269 2.400141256120615 -0.3073157333383869 0.6354563738419249
Ni 7.97155171950006 7.450059657443001 5.959331217854083 -0.48021984983170196 1.6715227590017083 -2.489881755310557
Ni 9.35732346072957 6.900696087630456 7.750035211264165 0.5542614502291486 0.4268267789225424 1.4066202005222097
Ni 3.765930890725886 3.7396933595032356 9.890198892632046 -1.8239747782882585 1.7679668954640715 1.3815478309346143
Ni 7.449383529222517 5.327937330758354 6.383559418193677 0.7530257223186774 -1.6878888590645575 1.453758034550277
Ni 1.1432201328007932 3.87367004452598 9.896095294154845 1.3886739004564344 0.18511711361973926 -1.16709263047239
Ni 1.490233551294203 8.307775258474923 2.123478339393505 0.19143997051397352 0.8209172439543282 -0.3103527203924977
Ni 2.6314065180940878 1.8600005625408274 10.187993932942149 -1.5133166108402 -1.0444250415371237 -0.7580604565291074
Ni 6.789285181966347 6.718376234843144 8.071649685341718 -0.824941791732689 0.0034691894955230576 -0.9582668603818012
Ni 6.759347726870496 1.6024896172339163 12.620428123618604 1.2336240385357207 -4.418148191130055 -0.0586301509383829
Ni 3.2507305773872135 5.769392714715684 10.893977909694826 -0.45690251526200026 -0.29124916679382745 0.8731502331171156
Ni 8.478460071468081 2.68298007624541 10.049328486523747 -0.373120547648338 0.2493065038134545 1.3508072073176478
Ni 4.902840493468833 5.417890556091843 6.920861611806376 -0.3851581955391625 -0.6302064382968953 2.5778111694336894
Ni 0.8318414887277807 2.471276817876254 7.919225968703451 1.2093422831702205 -0.5530579168393507 1.2191803523065647
Ni 1.1516717355568367 1.1944462361721446 0.6086186958021373 -2.3834730514363143 0.26520800553505935 1.6246543765849437
Ni 4.435016108912649 3.7507931311228395 0.8282335934179231 -3.64154391016049 -1.2886471888491355 -0.7747803403869495
Ni 3.7675085232403474 3.6826074782210276 5.166291037379297 0.9181231982833802 -0.46113095152105094 1.4267097721832331
Ni 8.994712139816395 0.6310830559277006 5.790057822521183 -1.0977952296281481 -0.8980002022812598 1.131428087191245
Ni 7.106135769290412 2.725003323282403 1.376165086096805 0.2704024052518053 -1.3008144203392886 0.7094100425112556
Ni 8.886587968557413 8.633443684674457 0.3824228168403127 1.1783836300051769 0.2578137699535173 0.7849343981018159
Ni 1.6288586178327713 6.464931449528862 12.705710429828915 0.16568548725768883 0.7330816750965826 -0.9991921378412534
Ni 5.212310014385952 3.3772041172965377 2.8426430601777164 2.613896602302337 -1.7718634023050002 0.988732118850194
Ni 0.844684168649075 4.554916180011716 -0.0012442637390841556 0.32628353269014126 -1.4428241612465926 1.9525361070001406
Ni 6.222689733201203 4.672224426265598 0.3159556564988964 -0.2922482974823032 1.5216207598305214 -2.6790460424164766
P 4.014173245010336 3.501358161782814 7.804531145835132 -0.3996301639030924 1.6249266564097242 -0.4195042771192001
P 8.41539233356854 0.7156197429615375 2.242928597412557 1.2745891680941728 0.2558306780852174 -0.054496331275667435
P 0.7581594768336222 2.702644138657804 11.704624656844397 0.9091158525784471 0.558086994622826 -0.12092926608792076
P 4.975420979803788 7.662420262693183 11.393937166063433 0.4346537311661289 0.4266131202498395 0.8981061317315049
P 1.2842116481110537 6.4709790408342975 10.41287699627587 -1.2195855581647834 -1.2672502112305983 -0.38932338266044564
P 2.1547267319835157 3.077904691695857 1.5057178266102473 0.5308225024799181 -0.14753169916679754 -0.24369944203932223
P 8.24436945646514 3.661750800753058 8.02030056419692 0.7451584037554585 0.9696648178060978 0.058225202190480364
P 8.060847597952522 4.923443622854121 0.9672774838264021 2.339117922359707 -1.0622816101025705 1.708951850382444
Ni 9.264158626348783 8.338595436525294 3.9026919093232597 -1.2523691803537076 -0.6934303792535476 0.3259086658492258
Ni 6.211364585508105 9.019804009332114 8.82628766102699 -0.9773351898671618 1.9848106507631298 -1.2242500535199883
Ni 5.545641227084301 7.556502898820502 5.97993434723937 -0.6183387403250319 -0.9715985444937009 -0.12428147038960533
Ni 2.451105659298497 8.667287658377546 13.645895831487335 -1.490672391078123 -0.6860423143195926 -0.7874167982040374
Ni 6.260243021447223 3.4239602618769154 7.211798646013438 0.16840854261580673 -1.6358119358636605 -1.333074308814259
Ni 6.20893240204831 0.5115398302783323 3.3747493962293933 -0.9091801301574793 0.7450139077577944 1.8310170298470207
Ni 5.726533698072815 4.46159170424554 9.162938475474517 1.389947624962535 1.6421260510071463 1.1767705198817864
Ni 8.314611666037587 5.272626286054915 9.55273766338691 0.21616241296131805 0.029619879748961894 -0.3821271220223225
Ni 6.128416799792404 4.289141445343341 4.780684783500875 0.5199387656878788 0.770004773375177 -0.2688661711129369
Ni 4.163513065709622 7.364839329652897 3.5110371250724293 0.31251604659240373 -0.6527524419182112 -0.6698150538274529
Ni 6.535370863165618 5.531968411958968 2.705297002856229 -0.8776923439618433 0.39951446426083453 0.0073901218164840465
Ni 7.983966184881716 3.3069431263846307 12.954315263964904 1.8534689310926338 1.5388857175585562 -0.11765676598423609
Ni 1.8490792136460736 4.649264238778347 5.981803090515429 -0.339605446610028 0.09753454131306429 1.234652479800235
Ni 3.4301299318888265 2.007988126799146 3.4754117413217607 -0.9130516972977436 -1.0330620511158208 0.30193569997339614
Ni 7.919546190541207 1.496957270820122 8.100140977299313 -1.0871907146394244 -0.39463553890197844 -0.34468234691230315
Ni 8.025604414459822 1.9986725824280402 3.9965507141970127 -2.1199519466853745 1.92379143076728 -0.4170756130730494
Ni 3.681048627046024 9.156081408438448 9.877554355842031 -0.838108411021634 -1.0536761278217466 -2.1764272560642843
Ni 6.643006719598695 0.05128620365761666 1.268290706652614 0.16306013381969983 0.21830028523992726 -1.7847783105944552
Ni 9.379541785308234 0.9345707202274873 12.358697011335508 -1.2175309896286 -0.967852190077391 -0.552874597183951
Ni 7.263654863323601 7.578946599472662 9.978724736166734 0.920954497084588 -1.6377911710772182 4.05365780835289
Ni 8.257056251268933 6.174694020216606 12.978628646960095 -0.6979730043189076 -0.0801112036302943 0.30497294413782317
Ni 1.5951836761848033 8.893518282817368 6.465887419707268 -0.4325150875565712 1.1455380442300658 1.368942740576094
Ni 4.387414804056667 6.142737571129033 13.058798672569974 -0.49963193580972665 0.5473276992237929 -0.23632963193781237
Ni 8.723565942063066 0.0921797531262187 10.024273240619971 -1.0430939814305262 1.135667064973257 -0.7208396245044361
P 3.6792831811369835 4.062920211573248 12.356360612706947 -0.13515749387216075 0.27923363039019006 -0.21969742269777
P 4.337719379851132 6.334992752489561 1.5238324285173668 -0.40590339850631385 -0.9021715600501301 0.4621722483013718
P 6.612468261640192 7.89434163298874 3.870543890573217 0.44021528441430635 -1.1865494536454209 0.6299241311697861
P 1.2894234698106137 3.799239596254425 4.159680733393242 -0.5327156057375728 -1.2205152690679044 -0.8880559465843545
P 8.310489162026585 8.90215769896799 7.452569783461546 -0.2817980486832566 -0.5722190631488339 1.7316382362363663
P 6.703820696763291 1.3447439051837817 10.36027797699015 -0.09336292643387792 -0.6364411063526975 -0.2836325307888341
P 2.090832615147828 8.551491309950025 4.277811602315379 -1.169751922472108 0.8193825524773566 -1.474074377510126
P 6.160476546246994 2.2783267269557848 5.224168552119655 0.002769335215021037 -1.9564043317062954 -0.39174459050742855
Ni 1.1683965183440734 6.261538933869815 3.345543474305426 0.39153273160693863 -0.8863741880065573 0.6520225057307222
Ni 4.574617805103026 0.4454943110077453 11.700515299771013 1.94792380503911 0.7147720781541174 1.7028938171138222
Ni 8.974137182440293 2.8749535375140693 6.084747368351929 -0.8366711643544752 2.0812033651622674 -1.1415988570766595
Ni 6.279090095593199 0.25087268087552544 6.232538667612912 1.2156911082063837 1.0624901265689508 -0.3323549356952018
Ni 6.13508417529995 7.0987453122137385 0.782040889021282 1.9652342712930992 -1.697651080657644 1.6646211467858687
Ni 2.5730059430498287 1.4569154550959347 12.488868596984087 -0.4830346935726778 0.8392546088109353 0.11355919887609474
Ni 2.758762780957932 7.133744338293486 5.750570995377976 0.38073512677080235 -3.1749200538456672 -0.4147161117019374
Ni 3.947499489934883 9.12699850428793 5.013483242349115 0.7079118606991744 2.3380583707469413 0.5182510935728106
Ni 0.036810486270460234 4.662383004389672 11.678482910452981 -0.615397655418837 1.8662331727368375 -1.2838623658659825
Ni 9.174674934501743 7.922973784992269 11.630365118761908 1.1611374413302198 -0.6536091334915518 -0.09876429995510733
Ni 4.657199354699299 8.636223322914223 0.2702409371914581 -0.33014198720428306 1.0870403051044892 -0.9335806704890308
Ni 0.12175660650447877 3.643176056029221 2.163954943126142 -0.24185030464572543 -0.12648516290914347 1.2620704668018716
Ni 0.6394144581112134 1.13326602288812 3.916105541964074 2.5153567596532103 0.19689662275317057 -2.874661484464378
Ni 5.60254868564166 3.140296301374914 11.696667003316094 -0.7990176156677594 2.016250614439966 -1.3975416352597094
Ni 8.517130849411844 6.774438533124897 1.9783258183263526 0.5705468176527335 0.27151132204526784 0.28380402336969185
Ni 3.275061802654889 1.1379895297617753 1.151482983095285 2.0555730661886726 0.5351242151790655 0.43180417753247563
Ni 2.0189188663636286 5.432295843456032 8.281715210910148 0.7650217183382889 0.7814430971191058 0.4996270507137202
Ni 8.304338273354132 5.131184018597666 4.297328231213028 1.886563142543441 0.021970590733820225 -1.0687705602610238
Ni 1.7895141955554261 1.8798900010267159 5.752206850044756 1.5214587803313602 0.7085723771013087 0.4486757564768338
Ni 3.34237412327191 4.365731747652552 3.091303299265104 -2.606600068640924 2.176122837449988 -1.4060442734140817
Ni 4.86903408244466 1.982661490540203 9.212114595644042 1.5400229164867927 -2.174401740993823 -0.26652492457427
Ni 1.353927980178682 8.365199203867371 9.297796005317837 0.21485474989348802 -0.018283371690220127 -0.14204522213092957
Ni 4.448407203946113 1.8174983913476583 6.631683450039543 -0.7763638828239855 -1.3280426599276225 -0.32312853200092734
Ni 7.090847758971702 8.133803711076634 12.903186823558734 -1.2755728721636808 1.8249823936171667 -2.88682948728548
P 5.289116302098929 1.6877756797121224 0.3134567992840263 -0.9804457104716856 -0.5362863538079667 0.9984974257670739
P 2.841973505426043 0.7800378591680998 7.936008034576035 -0.6719899499915847 0.42132333260580995 0.2956897190636843
P 3.668915881756237 7.135894801661413 7.6770255713225986 -1.1579999241425025 0.8078889500154602 -1.358739574790847
P 6.736528399429179 5.150716611633855 11.095165496101519 0.7157616957608964 -0.0630467919488398 0.48922462443347353
P 1.433438780773592 6.385523946300971 1.0656372367012343 -0.3986685713207715 0.81981732602193 0.8232772595460724
P 0.410124353473704 6.209063871424515 5.776684569760203 -0.41281066714910836 -0.15147602852652622 -0.858319081641554
P 1.8691189028476252 9.017493904578796 11.44661882324277 0.0880469135376032 0.23079558949346057 0.1041157940750078
P 4.581153711234367 5.805790950585044 4.999670506244821 -0.6561486120839538 -0.15219876562516368 -3.2906986289705844
