# total energy = -340859.85253313486 ev
CRYSTAL
PRIMVEC
9.38297864693347 0.00000000000000 0.00000000000000
0.00000000000000 9.38297864693347 0.00000000000000
0.00000000000000 0.00000000000000 13.73293769579976
PRIMCOORD
 96 1
Ni 1.6923797133012786 4.024913146185296 11.897737052378492 -0.8570980647502594 0.17540708542082695 0.05907829421939504
Ni 8.962808882665051 6.013006815168064 9.343876980390196 0.5683258987420147 -0.9071643852790312 -0.19224266892092698
Ni 3.6563309781728495 9.05638532891494 11.74075512778371 -1.3236818118557654 1.2018804275755366 0.6491284720123789
Ni 4.908179843040129 4.10505316698348 11.066454872234603 -1.400440296963743 1.2110255844099143 2.051071321663577
Ni 2.9760650247870157 6.5875547479084045 7.625680939583457 0.6295947728548253 1.0561197042662327 0.4720036325694968
Ni 0.15859673522343995 9.116736647703597 1.6626600666701852 0.007193689534961804 1.763951603657091 0.3608389020675076
Ni 8.353787886300717 7.21916057392515 4.881262892136986 0.9068969905502575 -0.14924251121031717 -1.1403058492968492
Ni 2.724263409268916 0.7428823232247997 0.9884639621842862 1.6340191056292956 -1.105974937225463 2.004873740061592
Ni 7.048155787711953 5.251024500567923 5.870034616021562 -0.7766451615098302 0.00945291788278372 0.29890076980181424
Ni 1.2017719077194153 -0.07046898468570521 11.194170348067926 1.0233517658065923 0.5139653217132631 1.0116537606433738
Ni 3.0333011946580997 2.9688495141917923 2.2320417313562615 -0.6589488005369103 0.9779059747689673 -2.451120575381959
Ni 5.181384032898548 8.075469973068572 13.323435622590925 -0.3690011261633258 -0.2348309359050988 0.2560517929570881
Ni 0.7384000743153871 8.854735734374044 8.922125225461112 0.3255201721615555 0.22083847828074868 -1.3969196854049943
Ni 6.4263927063173005 7.959252399294268 5.639444162078966 -2.679834856866359 0.06893538951913289 -1.8703561937662756
Ni 4.971158395855657 8.200638908491563 10.191172151927852 0.9152782726354172 0.5418592199100539 -1.1597235917018285
Ni 2.372711347537784 9.087499286176008 3.6215539060400324 -0.0815376516641757 -0.32496275699618876 -0.5772558542417929
Ni 4.423370718274714 1.6072573308307092 10.426870699456977 0.7249973554265514 -1.5646417434767377 0.8802601046890194
Ni 8.272822163379802 7.495470529722475 7.247241952480917 0.06971803332142833 -0.5040372639662739 1.1232645775438461
Ni 7.102351872494801 1.1920605247986658 3.3553137629485517 -1.548800919789739 -1.5092308708066007 -2.007899928482426
Ni 0.36104857444039784 9.215886583281916 6.204912186362874 -1.2112346150969269 -0.12707703085687147 0.4991074307648243
Ni 5.588117392172604 1.0819981850301716 5.8058878823619455 -0.2166792046967365 -0.2662112499885932 -0.5445779043927975
Ni 6.318357089940962 0.8223570908354667 8.988606444213175 0.02307230843843123 0.05601276792019386 -0.4260189383092663
Ni 6.214449984178276 4.412242505575189 2.0322828070168444 0.40999762318034555 -0.8082476189064596 0.7609280078848895
Ni -0.01695410415410846 4.7471960780437055 4.60472305336231 0.3762524084091004 -0.3587048864436403 -0.48752461102323136
P 4.436065888411694 6.141910176100678 6.088869135991784 1.0867677681693928 -0.5145201657754687 -0.8213113940689534
P 2.954878258956047 3.264488406043942 6.83095578262559 -0.28956843665729487 -0.700371072237439 -0.2683581211282669
P 2.446405261991472 1.889234605743138 11.060741576524029 -1.2251298850217804 0.7514730331195768 0.4717838032492068
P 2.36150807100892 4.195073464318428 0.24998319425235951 1.3663646954362727 -0.8609318366740528 0.11459329656756394
P 9.236247646990154 7.744344655896349 10.619941436602277 -1.6710201083336769 -0.6162299215121452 0.0762810312509267
P 3.825750040991258 7.514752550883963 1.3155386474657953 -0.8389825860964711 0.8115226901133057 -0.5545391293705675
P 6.029361346985325 3.005893513970651 4.39084556102207 0.09458728575928226 0.04554837805376027 -0.6524534226205537
P 6.850325065488684 5.847143901264595 8.048737866845173 0.43187359731783037 -1.1013271540408065 -1.8708074223710813
Ni 4.980550757501716 3.9338231892822653 6.14646467394583 -0.6235305689386164 -0.09427772493866343 0.1157304954958007
Ni 2.94800053559285 6.657636215575146 11.823001627292724 0.27512757864161647 -0.524731816201148 -1.2022907756400776
Ni 4.115036656285584 1.0891104828600537 7.748892585656433 -0.6298364565519862 0.37713558234500216 1.348720499991948
Ni 5.52922981805606 5.153798075616418 -0.04082627847968417 -0.8238192480924715 0.37854454687738676 -1.6405587065200264
Ni 7.0646885961238945 5.0708525441966845 12.016032017629756 -0.6132351005498793 -0.20339302911079163 -0.1646310778512455
Ni 1.6223170115918715 5.045021203925357 2.747439366577371 1.0524011177640649 0.25566432771068226 1.3053624447212873
Ni 7.764940294071271 0.9594658666127149 12.583642175943428 1.09338398793433 -1.8978402581191576 3.67927484905236
Ni 3.782259934867902 5.461606690800175 1.4541533913191598 -0.4418605333272132 -1.7330803679995315 0.03291911932552395
Ni 4.374410335588268 1.547178118423406 3.4111246583600585 1.3259752358756325 0.002375956431344295 -0.36024883389199247
Ni 1.4308667148624292 1.6084208201854655 7.220284654769503 0.26011747838602944 1.785383548278622 0.6232019819546041
Ni 0.5731461157274335 3.7895598922711318 1.2776670689684726 -1.934986013931519 -1.2666755696740508 -0.4737589246977067
Ni 5.365890925414121 7.592875231268659 7.734857526165749 -0.1427227078139284 -0.2102951555472636 0.3924128202190467
Ni 8.962874563515724 2.686196664815311 12.861637314709416 0.6662486766324333 2.8465482711679297 -0.17232947493676773
Ni 6.2182688564959046 6.277306558271127 3.896267817166034 -0.5735632358815541 -0.16442590381897487 -0.48250221810797556
Ni 1.5400845865508583 6.09292164447823 13.677182363032358 0.18538219435566783 -0.7725589072555985 0.3977429741827085
Ni 6.9219641076142135 2.7463697070092885 11.473484733634551 0.23666901755510206 0.43355895544005335 -2.037317719522911
Ni 8.855598968411444 6.997431405036038 0.4987390948950243 -0.4664672761322998 2.001685057920966 -0.6646018850576296
Ni 1.3928938001954987 7.147183744567595 6.322383326087139 -2.8252690500741795 -0.3864871987632312 -1.9522841388903343
Ni 1.2243755033291597 7.285413786295596 2.161001323269712 2.0010762206923736 -0.6832953477020748 -0.8381660037324468
Ni 4.256926059693868 4.394208420576463 3.679535084417307 0.92488931336262 -1.0732108554205646 0.39723569552898685
Ni 3.9027092320211976 3.1974564064441022 12.8475891190486 -0.4385697783910834 -0.946851162345692 0.9528325767401074
Ni 3.5638898723417154 6.5695488118456815 3.5312324150898617 0.2259788848311076 2.3460509020341145 0.11149126060347252
Ni 7.7861082939449044 1.8016351169043772 5.276455187650152 1.7263083393830203 1.032746833868247 2.557494312253208
Ni 4.470407590334344 5.250677330357229 8.685080220493218 0.7242226820440559 0.08187729439178157 -0.3639270540745281
P 0.8631129969751454 6.840003788954554 4.109870388231319 1.7204125427238757 -0.7531097973920513 0.8310049672076334
P 5.109416586519661 6.449596812561757 11.326789368552829 1.3054539759938293 -1.211274981416559 1.2324521297148066
P 1.302704609244538 1.6095749265615547 2.4440510726438234 -0.9617967279119306 -0.2677127742347841 0.49573440052753337
P 4.798952588373034 3.092442109198664 9.116116432813683 0.7537381750046698 0.7112018443043558 -2.0522005501720137
P 8.081559526223707 5.0642563101935085 0.5038424969922182 -1.0321017440850806 -1.6734166335903116 -0.5377408268663062
P 9.093476243587135 3.7471019138011883 10.679803902202362 -1.5897243974769781 1.9578798878105572 1.1639186036197826
P 2.338566688167149 6.107465261412686 9.593555227835864 0.3647312951433783 -0.45897996661631923 1.5654475272074846
P 7.575272763288633 8.055887696589725 2.6776346967813174 1.374061549859898 -0.23275836964678623 1.3441184824435624
Ni 8.242102291222764 1.861845691013024 1.2888590859229363 0.5308623545789181 0.1001678651708533 -0.40159217272546965
Ni 9.152148009194331 5.355991882920024 6.748530068224028 0.06806841353314728 -0.34408893630267834 1.212010574031003
Ni 5.523778307450305 8.640588012248184 2.2516249461329725 -2.242027924783229 2.5520366315727467 1.3327668048761694
Ni 9.457667177583243 0.30906030453798555 4.114525283948211 -0.5174674213292507 0.6377521118546372 -1.8803400444518648
Ni 2.092648200273503 8.29673937600298 13.347426960745574 0.4524326524161047 0.15200516155711888 1.1766054550588316
Ni 1.777408265985174 1.841963159216823 13.11805910892334 -0.8120209699059628 0.22691553771276404 -0.9860345174133729
Ni 7.973796016228723 3.5360130427208976 8.589431074255703 2.8296676933625076 -0.9096015339656142 -1.2829182567851583
Ni 2.829071280983671 3.9715709124611784 9.851597462465644 0.4053526682091664 -1.497543921386976 0.0967585823789882
Ni 1.231375205415033 4.735457971730799 8.412358315738304 0.42115621090032634 -1.533452976578759 -1.2919094045401749
Ni 2.4184346025839796 5.3950156911977025 5.208038260399006 0.25700592934024125 -1.3084562531552628 0.29335438606228836
Ni 7.312539977623023 9.043249158780593 0.7555202571919085 -0.5393811906832064 0.005407287058500365 -0.4262377391882917
Ni 2.276695326834374 2.477059453297837 4.334897674122019 -1.7756848329336195 2.175743599733698 -0.45725964149110276
Ni 9.094696030813898 5.9471101559869775 11.962734822203242 2.2719586509043905 -0.3472099984301633 -0.5679314915170736
Ni 3.0430688754508535 0.9784476324568465 5.608778711198199 1.0100295947763895 -2.0975244709197938 1.1349165599604776
Ni 6.453350004028715 4.493480334877458 9.6696089614244 0.7165942189645207 1.3126201547249652 -0.0041160790509025885
Ni 8.20863320631618 3.2832355974213887 3.1306702408853475 -0.3679549442869986 0.22153319035492816 0.6331120419794645
Ni 7.404174147288762 7.5239760189140075 12.21401943559677 -0.558281112911503 1.2354608346341431 -0.4554950933915123
Ni 8.508081587507291 1.1720560142797884 7.790640272641254 0.07081589437129739 1.0309797146654953 0.36854784067599106
Ni 6.3042638559825415 6.737851300202671 1.4679688891090261 0.6303187955050435 -1.2460049286985768 -0.8664486527272239
Ni 7.0219491282939295 7.137209638244158 9.605036240533282 -0.46744506666453695 1.8900621568356353 2.090423855319271
Ni 8.462761800543793 0.6165029835537129 10.433393746226548 -0.5646440790150534 -0.8456941937886919 -1.556969057422828
Ni 8.391441779692956 5.75413043373475 2.5567021762266506 0.3875377515149326 0.15304285879301385 0.8261124150020224
Ni 0.5121248522619241 2.212112284666723 9.601410657576203 2.024005575795037 -0.30295565659747825 -0.635174323825132
Ni 6.148909878186551 2.8866264721294463 13.648411335544537 0.3288595209474336 -0.9791902407980297 1.0964420580343632
P 2.2587269226863205 8.838240457876772 7.184551457110479 1.338640747158443 1.3555367515828334 -0.04363881973587323
P 6.444342344508018 0.6036858346940571 11.196876399115602 -3.5969638095572694 -1.2606568742837967 -2.4392122539801475
P 5.008971799885241 1.1426216102001836 0.981071113292249 0.25867123285780613 0.567684408503274 -0.0081334277404118
P 0.0027904978556820277 3.120318938819482 6.216433545868562 -0.4251478485582227 -0.14831948517541554 0.4302599729738074
P 7.071341127999076 9.227868647040175 7.076129262013045 -0.8300307762198221 1.9289169249193039 0.9116262777051267
P 9.513402070867546 9.10579609457742 13.203312853095252 -0.8173907188583084 0.2807747496250649 0.1978625862108657
P 3.000704726767584 8.909044414900903 9.488512781654425 0.37125598363577356 0.5182230685483528 0.4769882302682818
P 4.454240718090429 9.022118690821628 4.354920950598231 0.5773023912090122 -0.9326329618637808 0.7526827371569618
