# total energy = -381169.2089885617 ev
CRYSTAL
PRIMVEC
9.25784278701955 0.00000000000000 0.00000000000000

0.00000000000000 9.25784278701955 0.00000000000000

0.00000000000000 0.00000000000000 13.54978871590152

PRIMCOORD
 96 1
Ni 5.879211424141249 8.359952170449132 3.7781820156171957 0.11439223630035138 -0.10548002141238608 -0.20389593688913915
Ni 8.015143824845715 4.047991652976074 11.470099377401331 -0.9236873226347189 -0.4643425164798132 -0.009890005420202321
Ni 9.021425020317949 7.143258729605051 13.252898780485557 1.3919682549369898 -1.8443849665134946 -0.3917682446565124
Ni 2.397660867305465 1.9730684346457923 3.545762952730678 2.146288013476742 -0.9103407261244838 0.1117044050555431
Ni 1.9265107444849765 6.176184497312585 11.488039224685805 0.5296729622565072 0.21691008976061998 0.701772580570656
Ni 4.879947673318429 8.66805317036004 12.525492501792657 1.2052827683888663 1.4065358683385196 1.9157042828837716
Ni 0.4145448961451497 4.643687531559825 4.289822238594244 0.018200325058110593 -0.611084886976096 0.23643221895394764
Ni 5.930814638489308 7.088387496838466 1.059352703647993 -0.6360618686364078 1.7502036579433793 -0.44540557036599415
Ni 8.229138855282633 6.839203406886485 8.308648910199544 1.0972038759010525 -0.936454135382084 -0.0842571074778678
Ni 1.349710122536386 7.871230662477475 9.830682662307494 0.005535585106248531 -6.787712345794761e-05 0.13017598149716936
Ni 3.51859118485993 4.292370922646993 12.495113817264182 -0.4307376839411743 -0.7500812949783728 0.6489166131118888
Ni 6.504125053798283 1.0149928253074552 5.104394807989102 -0.22137738150335423 0.32648767828114744 -0.7330371950118924
Ni 5.58677469381716 2.789545342252239 7.2504506595169635 -1.2309899433469833 1.08651425739769 -1.8723207736918142
Ni 4.809625101343571 5.853715325771219 6.627783908245698 -0.41450142458797 0.010065097545485891 -0.30086997771304314
Ni 4.077348271687536 8.378708559446112 5.8388750041709425 -0.3167701938830674 -0.9146586367735472 -0.7964917639221121
Ni 3.339442673763898 1.7342346126595676 6.788986091567472 -3.264801449488848 1.2418662239398548 2.7771559966170365
Ni 1.6558762333553034 2.80681121859941 10.940979421914314 1.7469195878754689 -0.8999215876736888 -1.3884610131146797
Ni 7.3006420528768485 8.47056487318157 13.042307858752585 -1.0087900659423337 1.1694601022633022 -0.007722822565554442
Ni 3.47401467300383 5.772301858426972 1.8110515611800226 2.0086069818517793 1.9589620651311421 1.0821048154760848
Ni 1.2142956596248227 7.289338227128915 7.567285508085199 -1.2592944467186313 0.4583184217729204 -1.8041019506237317
Ni 6.714435462902131 2.425110370452575 9.345939249277595 -0.38560351060669723 0.7044580978226189 0.6093576198723442
Ni 5.225839186499657 4.4310441461345365 8.783501244253937 -1.6647332468837006 1.1791284785910017 0.04093093388640692
Ni 7.308270515134257 1.434780437686065 7.209503221938659 1.3478337265116207 -3.075626877970284 2.3489685899015416
Ni 4.254024938823947 2.367730262356187 9.37608741352669 -0.46188814140204965 0.23459413730394438 -0.5258710720119136
P 2.8253454193753003 8.771055926520157 7.6841259614979265 -0.03475874363742401 0.8372393781531193 -0.3968340892151939
Ni 7.357642589428875 3.837783080140225 3.691070346186256 1.602104516308886 0.8985900133464589 -1.1836592765818197
P 5.84841983983525 3.2573256103862014 4.848249746227234 -1.0063580594620734 -1.5637881372271907 2.509375088148478
Ni 4.967091745198277 1.602004847583622 -0.01645674090870273 -1.0341396004507157 -0.14819581511335767 0.3003457297784569
P 8.96145271630885 6.7928771627893045 5.83975542499701 0.03604326677680244 -0.2336726539309395 0.2809966358278838
P 2.202468515078255 5.730780434610854 13.752357534241368 -1.3240803328457649 0.7922041922903518 -2.4087616507997742
P 1.2627141761372636 0.5551733759782821 11.322622871437368 1.0504992727556617 -0.3602370068174505 -0.2358382941236906
Ni 4.46689977031287 6.222834765898855 10.644225759611304 0.16011210693496944 -2.3328475159699633 -1.198042284776369
Ni 8.443282011200276 7.822062260718857 3.7117884720186063 -2.405182418088948 -0.7680144824180256 1.2156975359642872
Ni 3.0419233878823837 8.574336030272956 3.4696940378878915 0.4224286498548467 0.43256573828884853 -0.7685017064670894
Ni 5.4832164671043175 4.004988974352692 11.116680312446439 -0.06283673282056275 -0.7164291541415662 -0.3387204729019134
Ni 0.8030095240556537 4.2303063462226325 12.561304614111027 0.9042919488272425 1.0576541386328882 1.5099541221258705
Ni 5.2994575504206765 0.43612677868698585 10.137775483165207 2.1169496695239416 -1.1147298005999577 -2.142460926421168
Ni 4.553692044175993 1.1066547243494589 2.754468302631974 0.15639120643995646 0.3147035411620258 -0.07882513782901909
Ni 1.0442753812785548 2.5399353915431693 5.982407669210567 0.5034070865814427 0.23192918887727154 -1.5560113214952491
Ni 6.9907913207248615 5.417541332087252 9.83634661037677 1.0203284055992363 0.5068559643619917 0.4440287446231256
Ni 6.243303855766734 0.3133650091822205 1.4675772706873984 0.32195765162127776 -2.7491813657809816 0.0887591091132794
Ni 1.2397547266246722 6.984347862313263 4.144053804579905 0.7881284795590814 0.062021178897802856 -0.02262802181216103
Ni 4.220150492950328 6.677154130971806 4.121140644280041 0.046245661231101 -0.7248271483972742 0.5353443016096715
Ni 0.498719052136434 4.9046105658593735 7.145494498579765 -0.05557362350024622 0.6899025686059472 -0.7853653149916474
Ni 0.3152656442567911 0.27566151963182517 0.0640179812014398 0.3702213717236721 -0.5662816146184764 0.7602803469985616
Ni 5.01103872376129 0.43162098672013977 7.364134188621709 1.8601777105713768 -0.6364189948655103 1.8995623830165866
Ni 9.052049963458131 2.106270273189005 9.480231661672656 -0.40461656137409024 -0.9653553917974664 1.0146562949151234
Ni 3.907142836490361 1.2727589352990225 11.511087549486835 -2.322368985036142 1.5386939132627242 0.6897742705581992
Ni 2.617367986592893 0.7382481380978182 1.4335000780620362 -0.731478849385837 0.2458486271718411 -0.6717351536683012
Ni 6.875577470247361 6.215002631105447 5.072186773773656 0.35238357221130284 0.017235132931363865 -0.1310756104933033
Ni 4.165140392545563 6.58485344079417 12.870361023372618 -0.6443899288861289 -0.5632220018565461 1.150406942286593
Ni 5.329758469071771 4.796340097290923 0.7972233724647788 -1.0496922034733343 -0.5607856245009116 1.1307657710168977
Ni 3.257427446654201 3.642035257360291 5.098230010638121 0.0474957315881182 -0.3608386449571915 0.16655374879525509
Ni 6.693725669128072 5.697933609259776 12.873247618678274 1.402403848448017 0.835481257811432 -1.5305250042986869
Ni 1.751028339036923 9.2313280843498 5.302844995008038 0.266100949662974 0.29377913230453273 0.8583221669653475
Ni 0.5277729393966624 0.7974594474496864 7.397276339149986 0.5493208183944218 -0.7833719387107024 0.8940149923812667
P 3.880683922495608 3.1425376206657893 1.0821751370909127 -0.46200306971335914 -0.5479725318966434 -0.07982915361350124
Ni 6.813698050673908 5.069872313137306 7.237159174974533 1.962809978122323 -0.2740770258899151 0.2231396156100996
P 4.136996551207547 8.458538935715096 1.3061982625730066 0.38319541538583685 -0.16274800189591973 0.013016723974642097
Ni 1.5107873249837975 3.0494500138717937 8.346114473196524 1.4828958324564978 0.35139421171484 -0.16090374959832932
P 8.614589129660354 8.298294939096769 1.712408323074533 -0.6869727965536622 -0.6129353099212734 -2.545931290005957
P 9.038477966286576 6.513179223807684 10.843990560271687 -0.7880035239454428 0.7975664850435297 0.2449420561971717
P 7.319111448754921 8.639788977068932 8.568479519078736 -1.0249929009544412 2.4855687297575 1.3519413209220912
Ni 0.4508847054886077 0.342390197130558 2.989910051109564 2.574508587423018 -0.19785024491569153 0.1434081639167272
Ni 0.5944340346448137 4.683375902551955 10.087329499135322 -0.4244649635585851 0.17887627491635 -1.7533985107315933
Ni 4.688365879683925 4.025985761245658 3.279198189183963 -0.7306874638327931 -0.3026846623242787 -1.3677623471147478
Ni 8.002006946273793 3.1241608032131705 6.050115826450604 0.02311935962628276 1.400724660973381 -0.8919933339655476
Ni 2.40763156372686 8.481618737180778 12.61887728533236 -0.769920698301803 0.48682527096336153 0.9109523915665538
Ni 8.180414829966193 5.764127183459384 2.3468371632997282 1.1002475478233826 -0.25347091960378926 -1.2537963997185375
Ni 7.538883372940168 1.74493667864205 0.3006280694082595 2.880021206114395 -3.5362014427672324 0.7754082037789356
Ni 3.634462342158154 8.212974662198365 10.741472915060948 -1.1617712182594766 0.3161533862346749 -2.0191785867200385
Ni 5.988990921044601 5.885775234505938 2.8594392761172442 0.14884321888936947 -0.27709472967031634 0.99988505014322
Ni 3.2936256110067146 6.734469434170377 8.308269338655183 0.7038806280525942 -0.48216231827005346 1.045886970794631
Ni 7.040246715602387 8.282223324437956 6.485010386294796 -0.3723391893976233 -0.8862494895032349 -0.5640403839927834
Ni 6.449457493567698 3.2747118386864624 13.165895427812398 -1.1186905850199187 3.5133749317910206 -2.394427493565289
Ni 6.784359947647536 1.4714970412211206 11.655284001836964 -0.4722106063739804 -0.5287116267845023 -0.6537338319948741
Ni 6.149753356845468 2.6342080021829757 1.848638401914346 -1.8408453287913522 2.0638746440758324 0.4657666505208494
Ni 2.2810583404461537 0.9039885158353477 9.371290925303917 0.13580644031006936 -0.17736395203688166 -0.33933290967493174
Ni 5.695091451598338 7.137185584895269 8.513075034581536 0.01453650305327819 -0.010916389802187652 0.005596777361487134
Ni 6.1365331576906375 7.58202491920173 10.985748496895358 2.3017777911483517 0.22251895130696517 -0.2381569149545382
Ni 9.097459681143318 1.923205694696269 12.042808032944855 -1.2172106301747037 0.5857793183317718 0.17480287617792478
Ni 7.721133261288908 1.5357186949585593 2.809412672354667 1.1124726291346647 -0.6816824946890001 1.9313934114842544
Ni 1.9539324741044508 2.221530412879233 13.165109436980293 1.6595339620709484 -0.44961935133702563 0.6875746918037191
Ni 1.5416066828174335 4.563746061180298 1.890886566370278 -1.7627352147514868 -1.1664637386391394 0.38208469882016133
Ni 8.630262657089716 9.559092741827135 5.3328033734849525 1.1174770243277916 0.696736046588013 -0.36198715673933785
Ni 1.6488587887058905 7.666808241232502 1.291944888190109 0.07951085104213403 -0.47377178021351307 0.6375880754729472
Ni 4.338530525578356 1.5696672035725403 4.978639052205154 0.5840026860473232 -0.6516309267192584 -1.9095110095888663
Ni 8.586713765756155 8.854552408437119 10.91631930672613 -0.8789321299062154 -0.397224125564761 -0.41709541056739136
P 0.5073917990329646 2.4538559715560413 3.5176200371769175 -3.5719485184598545 1.905663096597686 0.8591186947247139
Ni 0.26976334814615094 2.4035210816367027 1.3522921348222978 0.2302767408755131 0.9085741211423644 -0.13743394861116331
P 8.317301289842476 4.273327540531105 0.2953131420029454 -0.24185621818299638 0.37294854084684803 0.5833457691896147
Ni 2.659667069182825 5.94683070609285 5.818428133125172 -1.2258765333798178 0.5879297890158713 0.42237774201225314
P 2.8670334843572354 4.191062351672683 7.048667649181683 -0.28618692177957167 -0.07445349112388468 2.001119672335799
P 2.6529366176523195 5.153840945024083 3.7283461234110535 -0.7293196369509891 0.6316984494613894 -0.034998113341739724
P 8.328188512675865 3.703748035767926 8.271373132974746 -0.4027941634533708 0.11329000437510812 -0.0056209457312032226
Ni 3.1755233136550487 4.41560206476881 10.110553722944713 -0.6193378710135076 -0.3117801968676437 -0.7692023320785398
