# total energy = -340857.1614259119 ev
CRYSTAL
PRIMVEC
9.41679251099871 0.00000000000000 0.00000000000000

0.00000000000000 9.41679251099871 0.00000000000000

0.00000000000000 0.00000000000000 13.78242770381651

PRIMCOORD
 96 1
Ni 9.328943304018107 0.3082539961151389 6.86843145889674 1.2885217190148648 0.9323807366436587 0.49156972762688245
Ni 4.240814863048721 1.6583536708931756 13.18096234417038 0.06053919503563768 0.03067711736888265 1.1380029121952853
Ni 4.509720791444264 5.350009442113807 5.4989821587626615 -1.3576316864386488 0.25337630300745395 -2.186412392301454
Ni 3.7949862360015647 0.1148264851404109 1.58594418616826 0.2232190626977833 1.37827198839682 -0.23920926747845256
Ni 8.268650128726591 5.955998877052525 6.967816287594267 0.2533719321320798 -0.26064918251978336 -0.40958161868884946
Ni 1.4664206048980095 1.3128892189699755 0.7064910952340756 0.5404312292142757 0.7021232790418552 1.2342475310523324
Ni 6.916483467981234 7.9125729515862115 3.7693697351956255 -0.1161927798441999 0.1104273381153324 0.23219195562035497
Ni 4.898690825003106 2.160400549534441 9.052325964193685 -1.2281771564885362 -0.8722212935449429 -0.2320330614449875
Ni 9.14348899130548 4.448568140547756 8.580567257148282 -0.9402737662384902 -0.7912513414587793 0.8713201218869124
Ni 7.044824933806379 2.559164047357584 1.964312794660997 -0.7300583148892266 0.29970089710560643 -1.3207052457259447
Ni 8.64569850290216 0.9534031629222147 2.4918490474086172 0.2684293406858345 -0.8258941283436292 0.36380698355689606
Ni 7.575272858814116 3.3023655667146876 4.251190285093342 -0.016526022679481216 -0.1038471137946534 0.16061810003711047
Ni 8.565128425743165 2.80752253438322 11.388682107783639 0.15056045869079232 1.0230640593628444 0.8781314883817909
Ni 2.3601118861856767 9.140494451270818 6.1839276326152754 -0.20258827382130914 2.486416679580092 0.5352941650980264
Ni 0.09579797241072628 1.8922008805810353 9.309616278964214 -0.6508266856504081 -0.5675959625545257 -1.3588509035577307
Ni 4.111484634004583 8.317721034766274 9.103899853696301 -4.858099680360014 -3.4135978743006823 1.4885856837524236
Ni 3.0784624899721176 7.053356547867394 6.308879053118163 0.46698303942645375 -1.3506408569431125 0.346785509298235
Ni 4.665917129667295 0.23923267335396883 7.643348735602078 1.1787474411024992 0.6876253425359964 -1.4197071156131549
Ni 7.584746152131314 7.830552688372695 11.416149950007233 -1.2565968452818101 1.8354149018044001 -0.3371143047570581
Ni 5.2200106207977806 4.263528166707848 2.319734563039073 3.7872012751227104 3.1823137752065773 1.497144114845396
Ni 6.995961197203057 1.7220206054036904 10.128802839181958 -0.36500100386499723 -0.4864956555380847 -0.24964691787200877
Ni 3.821955929898638 0.9402968710346634 3.9345939524476803 -2.4882012822843405 1.1713560337344344 -0.1806541927523792
Ni 1.1830410663349376 8.645576084598856 2.4839653086758555 -0.5964450255757341 0.5954577219618002 -0.3194690808714692
Ni 8.54608767118315 6.043669215803137 4.330439186255913 -1.5699032489859932 -1.4316154370149665 -0.44936224102089706
P 7.419745112862976 4.276448006102675 0.6105998965769873 -0.6795749614276942 -0.18635972777758875 -1.147182007591392
P 3.110357166379027 3.5671092727979032 13.408262057990003 -0.055386190079788476 -0.47651771838976636 -0.24329552173268423
P 6.049130955488997 3.657152643274097 10.994132624631913 1.1109405087608544 -2.3501947489991593 2.5897428878742685
P 8.656085225097856 9.101989186485508 10.020169778509462 -1.55042997075273 1.1333309606409125 -0.8257097802469651
P 4.891204474916454 0.2521242623711105 11.032957118685072 1.49805634224702 0.9061675685834006 0.7124110341211086
P 3.9709860889821185 1.4620417963567598 6.123271246686777 -1.3245171632728674 1.090810570780199 -0.6635027384561798
P 6.304005862967418 5.297633241884924 4.061226270422854 0.08896813980029195 -0.7449259760296784 -0.27614162172842766
P 6.67844578560336 0.6466163030882085 0.8303040255162385 1.1863936447938472 1.4622668433522366 2.2181218075895925
Ni 0.3084216150227394 7.084431963321425 11.611047422300864 0.6965398714168068 -1.1591304382025198 0.5619706459479483
Ni 1.5013851556800746 2.2897966961265115 11.221046249956501 -0.038196308564063246 1.0661637187657962 0.8618304372289222
Ni 5.75423467962281 6.589617181367642 1.551419399598832 0.8649679544166394 0.019452709407972953 -0.34770390734744633
Ni 6.03281165397935 8.710118780817622 9.713179515956119 4.845472735624623 0.6727232286131835 -0.3824248557683994
Ni 1.3152716674881177 9.060027958830004 9.60070157888063 1.1728742701511736 0.3275433732391714 -0.5860816800635391
Ni 2.474620083737498 5.107432865721134 11.930427358827801 -0.3699786595852467 -0.6526791654781147 -0.4339441066936139
Ni 0.03911358958480628 4.716485305724309 12.789803848020169 -0.211595619526242 -0.031432507477668445 1.6178450669725943
Ni 3.8883725678372065 3.1314036977547115 11.078094630471679 -0.17102875384747318 0.17726959255086244 0.5881334203862452
Ni 5.118572931321776 5.850963972817902 7.61415762033967 -0.29452603777288633 1.3609854334022304 1.172751371420064
Ni 1.7696413253888517 2.149260483933799 7.044419070046963 0.1711781349411439 -0.2018033160261686 0.6467658853174733
Ni 6.485297953367718 4.3264700081911025 6.226349341427052 0.7076038425404523 -0.719392093424632 1.092826572768963
Ni 0.6722808295362129 7.125931768141398 5.6593124689203345 1.1273318056346842 0.6702495702617102 0.5851249725772245
Ni 4.894142514195743 3.2038564997254113 4.551536058815058 0.24241749000310506 -0.8141549855298301 -0.14303946772339882
Ni 1.9644559299079367 6.872610631435679 13.724816956748391 -1.189876461136125 -0.8238303038360649 -0.5110854290623068
Ni 8.724940812309937 5.152219131145185 1.9667941195010386 -0.3556704704926907 0.28465814383987104 0.3210279407181568
Ni 3.088943380093432 3.936897299908303 3.056032631769101 -2.0706052779314468 0.6445431666345416 1.3888297093080082
Ni 6.276621830197623 6.832495095122295 5.648466207247622 -1.7031126179928475 -1.8662102899187019 0.6508773363826854
Ni 6.718730824182858 1.6323444898374082 12.733723081597462 0.23941984082736184 0.3303746720403794 -0.6041825034293078
Ni 1.5758343176738818 6.1705510787812 2.396005874393594 -1.2605347468836354 -0.09301814149994948 0.42548363463108657
Ni 2.862526019736854 8.197035421293894 4.114330388716767 0.5411351972598357 -1.531171379633434 -0.7205079521966301
Ni 4.237057562816552 2.528192216621734 1.930683545064199 -0.5268424347862476 -4.759326638654159 -1.8421797313320594
Ni 7.441639155569223 6.262383639844141 12.907546713816979 0.11829542800949949 -0.7192607100530902 2.3260520903146844
Ni 2.795949296324734 7.422297063647229 11.442391725839279 0.998265512261926 0.7732549048813586 0.1252047535348231
Ni 5.974898379724112 4.229872550091877 9.12775729765169 1.0343468313655153 -0.19963073385488203 -3.5577837969236987
P 5.135428990007448 8.232376643778432 2.9006357792345696 -2.8649427145147177 1.0872711901683727 -0.22515124672348963
P 7.3540535679516665 1.3037737637701265 5.404916876183311 0.5702051180425987 -0.3919559351872863 0.22311596146101573
P 2.3857632291240947 1.9201310873194153 9.273272168071841 0.8266171225525828 0.10585951623899188 -0.3419916874540174
P 2.07624267440939 1.752870017836237 2.865683470282834 -0.431476876100044 0.48566698898920235 -0.21119864119813953
P 8.948985140940934 8.14064766743367 4.129711777687256 2.0863160037984847 1.2147683392817983 -1.780711082503617
P 4.382038501098446 6.91894125083987 13.471096548038052 0.1707860417090478 -0.017280641457318627 -0.5791808391786477
P 0.045648843622714486 2.2307628235564154 13.322728389471669 -1.5819167285071014 0.6616901107274733 -1.628059545611751
P 0.38372017170562367 4.748587151567578 10.708009032716324 0.4503672852466437 0.10849001188330347 -0.46716533064058896
Ni 1.3999003822412606 4.069382154460653 1.333839699061529 0.4247107610208041 -1.190364199405821 -1.4495720214933874
Ni 7.816192079715908 8.283792331166008 6.039804564135764 1.6685446502099912 2.242178077207848 -0.8883361968289346
Ni 5.972374679317542 1.174452951518551 3.6596754020014104 2.323076552626128 -0.5233637322090277 -0.5379346880446672
Ni 8.048881023918662 7.197414640478231 9.129852533996697 0.5267005098917446 -0.11822729377572543 -0.7184808944642722
Ni 7.013881353448214 0.8506725478274711 7.846047078853926 0.4903787926425749 -0.49113855362673486 -1.1370505755843452
Ni 5.426709217529892 5.338681040661929 12.107022353098262 -1.2495381386628157 2.507267297776856 -0.8295790333943842
Ni 3.8343766792876885 3.534272917134811 6.7283886866342675 1.1383908916623233 -0.7462099849484245 2.168234950061479
Ni 7.914286807832464 8.07406152722899 1.6489434700861414 -1.41115151273366 0.1085792291630001 2.985425122873207
Ni 0.28200468684904506 0.08687556145839483 11.746694435795474 1.1023807921163014 1.5562404067869198 0.7895731824254079
Ni 3.7331179088703585 5.22191281289527 0.927891188513712 -1.0533799367375665 -0.744135361807583 -0.9899289673717725
Ni 1.5926056252264966 6.561376220474722 9.508593105795626 -1.5493066557815642 1.0071203915493945 -0.562163992905677
Ni 0.6350402399919541 2.232806267542332 4.58471047733112 -0.018384930265090915 -3.0772950097013263 0.444143415824119
Ni 5.42159589916882 3.830873632454688 13.570082104730957 0.38872842938892405 -2.2663649588666965 1.924620611536795
Ni 0.6268043132173798 4.248225878794879 3.6817003381242683 0.8641917383722472 1.5162504966575434 -2.0104769451809825
Ni 7.6354367464916315 5.397545410965912 10.744078173265894 2.477148624014605 -2.1432687670344444 0.843736812952005
Ni 2.100415580915601 4.2812976542720165 9.349502987218345 0.8746520144736227 -1.638081448624127 0.31897234374070876
Ni 5.900232631501383 6.329610121943027 10.033166835603295 -3.0670103399458664 2.230078208620521 -1.4036775729541182
Ni 8.536171788615546 9.043426153543502 13.65174264646861 0.8187372055838739 1.4483499761608283 -1.2851062655754126
Ni 2.086977817929873 4.109111602279003 5.510463112254041 0.20575638713664565 -0.165121901444735 -0.920094720187454
Ni 4.943778427789136 9.00348011949623 5.342937430899875 0.941319176783869 -1.4901118905889628 0.15150225377877136
Ni 3.412984628938474 7.304737825305377 1.8040097932017531 0.793442178462511 0.7951486196306564 0.4305047419947618
Ni 6.1151426713474075 8.528732522491701 13.449141296180152 -1.3886939550610924 -1.7080064557500392 -1.2590049405026704
Ni 3.0456920518569586 0.5713563552548278 11.609063304108087 -2.924620075770692 -0.9444011581433025 0.014771758992535848
Ni 1.4327555714894766 5.332239954549639 7.256764917278403 -0.2061867898058449 1.0556365939822272 0.23444655598248657
P 2.6904623860471433 5.718987625063891 4.193965378374373 -0.08330862752166943 1.572328570598034 0.7031337225842407
P 1.1540373452445092 7.978255079704958 7.6699069156642 0.44158593950958785 -0.6213500163475298 -0.46407306486851047
P 6.547119196536116 7.862174277795312 7.582181959516729 -1.5831146054699445 -0.5441282184498887 1.7438057248368355
P 9.034527284572574 6.796588865084046 0.5807543142315316 2.3223018792436325 -0.6964133731412716 -1.614411358700697
P 3.605049530029506 6.059046838056601 9.371788768495167 1.5165248333648529 -0.12351193921343244 0.15439988704154053
P 2.226299263882109 8.933786437746145 13.8780780807299 0.7573032666481087 -0.6247137906134402 -0.737685235306865
P 7.569236694781985 2.900296774702343 7.886250191338136 -0.3671157362151548 0.9426278682929637 0.9255608855083478
P 9.312539251375405 3.950259728553536 5.602363474223427 -1.0838336252417333 1.4443390552292221 1.8499002399047688
