# total energy = -381163.7717872559 ev
CRYSTAL
PRIMVEC
9.29807549640580 0.00000000000000 0.00000000000000

0.00000000000000 9.29807549640580 0.00000000000000

0.00000000000000 0.00000000000000 13.60867335286739

PRIMCOORD
 96 1
Ni 2.477834804444148 1.8072297153000363 9.776307918370087 -0.1559975705459636 -0.058084305737241895 0.7041202548672261
Ni 0.5051932583083893 3.973681274034117 6.444809376721548 0.6799164039275128 0.8130411836403612 -0.12235031480516348
Ni 0.5828684500530616 2.5462407448630606 8.388127582596452 -1.5956070815100003 1.8339879395498866 1.492122236150772
Ni 3.8905192880198785 3.3146987790892224 8.826136667588148 0.9005232258134297 -0.06636531479911152 1.252551985788475
Ni 6.540861284606487 1.5484270857472275 9.326595345923547 -0.45400668177144393 -0.3404369413723879 0.4412221284122659
Ni 5.755806185863844 7.070777195487916 11.6835905033822 -0.35394500316115174 1.3506627113199836 0.17021114304218427
Ni 5.025749202871896 6.878167564418488 7.624408777380963 -1.6898706653812767 1.0344992977829797 0.07232024683096576
Ni -0.2178092749084017 6.681820107054594 12.400739898160268 -0.39716704707458056 -0.702636728343164 -0.0040844544820187725
Ni 0.7249132877031422 8.130423055743584 0.5401419341616673 -0.14158987976106582 0.6454780197439852 0.38055669221140914
Ni 2.6158089447018953 8.012058556418756 12.499947572822176 -2.154905065721792 0.2560363663381204 -0.18037677072127645
Ni 0.48260172460771894 6.484979851696652 4.031296797998476 -0.8135443485290247 1.0261529827008133 -1.0599681314780454
Ni 7.318310557705164 3.816013810165217 8.887769889915294 -0.9682746223267905 0.1631832896611254 0.4834180450540255
Ni 4.381876080385983 0.6870626825302036 8.693030069781035 -1.2789834405071263 0.014282992281575401 1.8794059626733697
Ni 8.412842796709203 6.5173836443240685 6.312682796057312 0.5046777257637501 0.6152762993496242 -2.027964303332469
Ni 1.719204835872845 1.3242597869080859 12.92970926497011 -0.1878615091340958 -0.7678383618514776 -1.2261464992117528
Ni 0.10343364991274535 3.0249707508911365 2.8580665789602344 -0.15142074980855857 0.6725990443304932 1.469818173336933
Ni 2.6958839696968218 7.49787498904539 6.644516228712786 0.2460869684348923 -1.8956211389806512 0.19454817712565203
Ni 4.030362341424859 1.858108783666529 4.571085405296488 1.6811942206532016 0.9405031086404771 1.1240086547987225
Ni 5.368913270160303 2.9464578025565844 0.8239508075859757 -0.9160179790149192 -0.4331262387780089 2.0965613356755766
Ni 0.5219223554949746 7.306687963505946 7.890716813363858 -0.2097007164963743 0.8819935424403584 0.6449211187992505
Ni 8.581379710673211 9.13117490667298 6.341274377787387 -2.201688087513602 -0.9827306498511206 0.5879387878769359
Ni 2.816424218655743 7.637745936676448 1.5810419446853026 -0.7761072867284892 -1.2941069264121263 0.24800603983447614
Ni 2.7744248122574517 9.393938516328882 3.9815307092525005 0.1699571180498492 0.3573949093829651 -1.1045004095624655
Ni 6.239659431414935 1.2089171620750547 5.298550084878243 1.0359833385276738 0.8842877377911738 -1.47723734861914
P 8.458979846642414 7.129606118286674 9.958922118428188 1.19630087660523 0.8917858459404319 -0.03765123469387064
Ni 6.456425462268014 3.9303243486333574 12.735771868739363 0.7549795036109385 -0.28097375300974836 -1.8781677193908946
P 7.671795488642475 4.698931152065269 6.9034481015130895 -0.9514472663568065 -1.812318424996253 -0.18228324371536994
Ni 5.782752008255309 9.274932449804258 7.054681297233304 1.719343220919097 -0.9785050418055471 1.368041311807747
P 0.38712443777998967 1.1885822712641043 10.423332158595292 -1.2366512553978186 1.6840041792981708 0.38337102173175264
P 6.52657014277913 3.103055987759157 10.686578338362345 -0.13084164010562627 0.6020212341119309 2.171553987132383
P 6.23363427858206 7.543826077471414 5.905170468436824 0.046642639559203544 -1.4018070954042825 2.792769020563945
Ni 8.25773230356413 9.054828409897162 8.61341901874654 0.30686039096852313 0.2733038951693164 1.5469399553216003
Ni 8.528789796440593 0.5527845272278078 4.129810836238577 0.23189010810922 1.3919497429942287 0.6765490301171768
Ni 5.284161313259611 5.401372851239877 9.975987805942783 -2.201366185397809 0.012299386192643334 -0.2945597192242992
Ni 6.161137185005024 8.665638869579855 9.751213342782673 -0.2616935646238977 -1.984182787371144 -0.5625092920602377
Ni 7.680582169857083 3.7264919406051664 1.1743022871271782 1.9699769281844075 -0.40828115470987103 -0.788415671782197
Ni 5.130612896774913 7.645007733532119 2.2778741149956003 0.5470276514848709 -1.7805277628482175 -0.5349105565063627
Ni 6.30684732396177 5.15159865286102 2.1093446394918796 -1.233508338893463 0.16662008325681626 -0.017465246664298953
Ni 5.484934654494568 3.5594799110000954 5.6426318722046185 1.6876127225850355 -0.5468350758580904 0.6325803378457105
Ni -0.09813281715036638 4.912944952611975 8.638296019370545 2.0850615625660933 2.037198934556859 -0.5274733835020271
Ni 7.443955450036381 7.541389981727257 4.3288510162265466 1.837320603467545 0.4346023091029031 -2.392696112696479
Ni 2.0448792234102697 3.191378405597848 11.607055255676586 -0.4318715404353014 0.7323023737283968 0.2706093790562888
Ni 7.5761182931945195 2.055367452415643 7.452149843850597 0.8714517623687702 -0.7415107797005424 -2.553245307168867
Ni 1.4195278670402294 9.02682260691473 5.626424397045694 -0.957632312121596 -0.06422744252050229 -0.30838942601853986
Ni 2.4434784159912626 4.300490026765385 3.360743778076377 -0.057125798478714525 0.5818663564306107 2.045022544366336
Ni 3.786213478638424 3.5929622803692 13.054500593983338 -0.35043339046346744 0.3191356087914504 0.10638633527673935
Ni 7.190647983020963 6.436202148361377 8.277734323277215 0.10492569157081284 0.2099110327349675 0.9882988879675172
Ni 3.591074771071247 5.690756850649666 12.100736566882537 -0.4834967208107609 0.4075437623232142 -1.3011216671670622
Ni 6.658909649369097 2.4743573242597425 2.850595575408977 -0.15295184174110432 -0.17437015951588034 1.0791922698149803
Ni 4.882196217398525 0.4497665012836265 2.738582591362138 -0.21798918175741167 2.6833924923106305 -1.0388838000039207
Ni 8.301888863445797 6.564022790326687 1.434231843413543 -0.21045944903926977 -1.3817200948464206 0.72093166999761
Ni 5.246476213828069 5.733872026091082 -0.01910103621076147 -0.8219616260584425 -0.12430949541406333 1.4161047429738773
Ni 5.586860156584024 6.112759298910202 4.035475353064979 -0.40600367152960404 -0.6204568151092992 0.8737600987869726
Ni 8.00963175874996 3.3116769045974257 5.190157771376343 -0.8482046189153714 -2.3368990603315174 0.433348382091144
Ni 3.531901819484193 9.684503371309312 6.559217544980964 -0.20941043894946518 0.058433718656860645 -1.4723177998303354
Ni 2.4297730529115453 6.966424895729665 9.058980930352659 0.9624204775388585 -0.7608907268890508 0.08502381044056326
P 1.801204562467162 6.1258509890162 13.19136361423564 -0.6660967244356012 -0.6373805874478312 1.3019040538590418
Ni 2.957290060350255 7.221061987521473 3.862508835999765 0.13730745033562805 -2.295999493903678 0.6663456072216137
P 7.247933425310063 5.976523898744658 13.259624504678944 0.20231676532747736 -0.28021373491527224 -0.6226324826043793
Ni 2.783704291466107 2.0625176723670013 2.7240348226548616 0.9504671618317243 0.487226105946206 -0.03381206345343854
P 2.1404634381046312 4.162376415377248 9.697689901783976 -0.9220664992018442 -0.03542491646651318 -1.0423984980253984
P 1.7387679864289673 5.641941955012954 5.406194833121249 1.583537809050292 -0.3024980002347693 1.0994127106269131
P 4.586545315196519 4.0117568926307525 3.8243774289509735 -0.16152338546019923 0.4897501579196403 -1.787195147566064
Ni 8.01083121047132 4.933010199237503 3.813272737549273 -0.33238913136724685 1.2666668279233022 -1.6122948265783266
Ni 0.9749310956564147 0.8011482075746476 2.5496801029384932 -0.5901309104322482 -2.1552760759079654 -0.38820726677813144
Ni 8.581974787496211 2.3199162925405448 12.363316074646322 -0.8389869569718453 -1.811692618486796 -1.0501694002200688
Ni 4.48734414918736 8.056447568184407 13.696993882085918 1.9787585310317792 0.6346793864665844 -0.8007425687786661
Ni 6.935276343275762 1.3636464341303933 0.287853536205636 0.37379237690438205 0.1701016140475135 0.46451786571541287
Ni 1.8346590376101886 2.6691798972647005 4.88646589360355 -1.66585167675886 -1.0257048394198014 -1.5240165137562074
Ni 1.067763080044402 5.2020779039870595 1.828937931841566 -0.7527835244008843 1.5762785563847175 -1.3753697271483603
Ni 5.35468721486046 4.595034457999627 7.807105730309761 0.9496932597801774 0.11880964864175668 -1.8889781797428373
Ni 0.38088449940631397 4.153050445791796 13.075280862604002 0.43228677359584905 1.8087042252824335 0.519585239003202
Ni 3.979046263516476 5.341744293960213 5.608011418411527 -1.1900618376740537 0.6005803879003463 0.3390999677285192
Ni 2.674935405912153 2.7700640149139057 6.862133033461248 0.7273877100355989 -1.0320297531965645 0.8279222145172517
Ni 9.019179588969324 3.770964635049051 10.64814753328698 0.3857644616645937 -0.6979652910094237 0.061855085633583794
Ni 2.040211589579864 3.266599835255182 1.07960975785978 1.7419473314718579 0.9199039443328868 -1.1136820760617336
Ni 8.981076076146609 8.859392163918486 11.808517584295675 1.1478615501569198 1.0023990748143252 -0.7143753569363309
Ni 1.553094719577633 0.7608094374355406 7.826048699239413 0.6015406949310865 -3.0818147519485506 -0.6822177983671799
Ni 3.01913155956545 0.5088929624938842 0.9879270155862113 0.6141095327350327 0.40142119436524415 -0.26200158278261976
Ni 3.6658498931113312 5.1401062317168345 1.684576943619465 0.8299438729329707 0.38706415431262375 -0.4067076395751641
Ni 4.497469753253718 1.9939350685162607 11.429066848109777 0.46186808679739166 2.3395346981821517 -1.722226713114479
Ni 7.235901715795034 8.276904934955159 13.538520275083359 -0.17639361770381237 -0.9345592323522162 0.45019887798957947
Ni 1.7336447469059524 8.971406077772862 10.114564461483816 -0.007591182083696603 -2.0562850046540326 0.061943531582332026
Ni 7.278793737427825 5.517105995238001 10.783594456662051 2.148819521649344 -0.30568539682381546 1.2984826868823187
Ni 1.3260822096785232 5.682500159730542 10.907120317618867 -0.22299023451642888 0.5120364801216666 -0.012801008419410212
Ni 3.87892458804674 9.178753158286895 10.992119603324118 0.72772169633625 0.2216144372148248 0.5245826922177934
Ni 6.8856246208567065 0.35066854391095714 11.713719986776717 -1.661115447625455 1.1003622190243758 -0.40253293937218415
Ni 7.273345065267232 9.312487376180767 2.3142091338849613 -2.9008317151018432 1.0913445889067979 -1.2180338974069476
P 4.2975704311025416 7.481863703276548 9.880059562460122 0.8715348090008797 -1.2786137158725335 -0.23242386912550295
Ni 2.4339013983711073 4.9218525088062535 7.608894938643847 0.006954319830646089 1.4667400486322415 -0.018061742597717277
P 4.803460115255348 2.145354225743662 7.196647101242831 0.8119109266906597 0.17480493306045378 -1.1142263786009778
Ni 5.033020297802927 8.450871924929041 4.519005025593564 -0.988138194019937 0.3666567943008653 0.5652865976950586
P 0.2915086096294057 1.6331139561204033 6.051341791931394 -0.12377290618430296 1.153290177371659 0.3348087965523331
P 4.923200729733363 0.8095034580925807 13.008598785356718 0.6437589801703494 -0.8337943570273123 1.8782219696675977
P 8.88130772754053 8.209214946338918 2.603312331418897 3.2172003026711176 -0.2105504660911793 0.6024236117566723
Ni 9.558421469436203 2.131713949191461 0.8380522686760019 -2.2761762885301637 -1.3514705519332597 -0.7109791867705885
