# total energy = -340860.18493352237 ev
CRYSTAL
PRIMVEC
9.41439209956591 0.00000000000000 0.00000000000000

0.00000000000000 9.41439209956591 0.00000000000000

0.00000000000000 0.00000000000000 13.77891445905026

PRIMCOORD
 96 1
Ni 6.056890446766739 6.497361615283639 9.859474551833625 -0.24772347559705077 0.2874657884919953 -0.011040059864245501
Ni 8.322228573262969 2.226080110963806 5.949859163124877 -0.47340951177808793 -2.044300321488331 1.650887856360176
Ni 0.1847339112194172 3.12649141109618 8.12207765335389 0.9173189572145298 -0.1857228655245382 -0.4537786249210379
Ni 7.659944909791771 1.2412970278094726 3.852666788766979 2.0051779015655726 1.1127647064537867 1.044751571638607
Ni 4.383397501196482 1.0591473672528013 10.346862343949047 0.09554347902496448 -0.4899910702858529 -0.9298929372247985
Ni 5.452213449253072 8.693108554533906 12.132444926097753 0.32989207597700604 -1.684999967552537 -1.3853381512149818
Ni 0.29670963365207714 6.934208242798146 10.27934608874705 -0.5346506179767566 1.4275975741048252 -0.5131464253563937
Ni 4.046136314521776 7.467627705643969 6.919412583994607 -2.9754479570558368 -0.8802374789812003 1.2613816682649632
Ni 1.1162550704229877 8.639286474246408 12.070797603001973 -1.203545473982785 -0.5176995919447148 0.5145823864719717
Ni 1.0563701215496681 5.089721691444819 11.617829770260194 1.0254413013457695 -0.450907731131146 0.8828188665551313
Ni 4.471676256987256 2.4700352564054553 7.151091361989186 -0.6926158537720523 -0.6561303572515087 -0.45797106573583063
Ni 7.283915255979773 8.738937815831706 5.039252076224731 -0.23558786867578135 -0.7619919303730296 0.6292085931600002
Ni 7.5455600443915465 3.1049983536715944 2.5613482708068056 0.7156817344525803 0.2123785204388536 -1.4914136401195217
Ni 7.510199587235724 5.835077951812442 1.3544344862413416 1.027307922240863 -0.06588811805237685 -0.5189216372772741
Ni 4.12429459868249 5.413002505681718 5.9751302161449455 0.5625923386923471 -2.0497124936428377 -0.1715648288566013
Ni 2.933750559298747 0.5878299426466964 11.989474200178908 -0.027301773138746526 0.706301578789261 0.9867721669103457
Ni 1.8873126215348597 5.594238970193631 5.039500616179181 -0.37401760554131064 1.1779485993502874 -0.9464161316908023
Ni 2.2642648857838323 4.4251691594500455 7.051001309726714 1.637677014096857 0.8789871515138669 1.5816447057926373
Ni 5.985604668922254 5.436604386962243 11.979926123595458 -2.2100367165886134 -0.7016879912766496 0.6767089527338087
Ni 7.145325988197326 7.9050580254757445 2.3702624691605956 0.6370579140010899 -0.21119915541877177 1.1016004623068512
Ni 4.0440651482346945 7.800812460490008 9.508525780318973 -0.318501060531245 0.5314287686053493 0.29665825362454074
Ni 9.39926328572239 9.154140755646203 3.119766710737712 -0.7173231267107453 0.6683240711042232 -1.0010019373564825
Ni 3.8690610113684563 5.510610924156578 0.8348918375189688 -0.35660326671960524 7.327644009664799e-05 -0.5569469674811118
Ni 3.048126010306758 8.281426597407448 0.15407594297449262 0.64362014059964 0.32455883668955077 0.7888884976535574
P 7.898458536533723 4.570659176725361 12.959000319311217 0.33396856003922487 0.37335966024233763 2.9383397393496296
P 1.918719033960798 6.644188476253344 13.1280677404473 -1.6709949115226963 -0.383487749815275 0.4145906418676666
P 3.6310651761982764 6.1614466866955375 3.830937430097822 -0.19053108554645895 -0.14337139714152083 -1.2209299880078197
P 7.677427436133189 6.260194246628291 6.318473100189902 2.6298898924068 3.143941603186282 -2.994796536785778
P 1.2526696136039972 7.299053598659901 6.555153744767785 0.5030702720673143 0.7630810496721504 -1.4251164595541843
P 7.7816918299033535 7.949183281782811 10.697908083703505 -0.29033539673030645 -0.1460898245139484 0.6162705449420934
P 0.2931133358263252 7.195250510108223 2.438619429587303 -1.042933544593262 -1.2089941558021824 -0.6732312785978535
P 2.808708601912262 3.86484336365658 8.937623856312287 1.7128429579067341 -0.09983490731146677 2.4134310312509855
Ni 8.094390867291706 5.487282060250259 11.149966486157409 -0.3960704715762921 0.36785878502876646 -1.8149206385057903
Ni 9.214166920402734 7.243772287579232 4.605712724695007 -0.40505133491866363 -1.1411748821653638 0.906990064484696
Ni 1.578002765343551 8.133498252548705 8.638773389870744 -0.7023688193937581 -2.1284869807395794 -1.3814305886304596
Ni 5.1338940197129554 3.8890477660388005 8.747102918198918 -0.02854515862754439 0.5013278354549108 1.7460538974410638
Ni 5.899058161298857 1.4677602325174903 5.428837513385684 0.6433630302835114 -0.35228484184990944 0.6612476238734161
Ni 6.85520266333817 2.7778576386269505 12.356241974930763 -1.0975694867705874 0.6408235516911092 -1.5388566640928336
Ni 1.5545703431228794 5.5712772675836595 1.6400765604066279 0.9591708602533094 -0.07224697039086911 0.2200283236746275
Ni 6.076726571161659 8.073170827241327 7.255094977095022 2.6664993160997175 -1.592501188891167 -0.8244124015917802
Ni 4.173654257060546 3.3406876627493425 10.942732177546507 0.5180875714117529 0.11041679659237115 0.09409311973168312
Ni 5.844200497867819 -0.28081437383794217 0.8097563517467826 0.19497086648536743 0.9164977468648151 -0.6662659030236138
Ni 1.6038923439320794 1.5611321744960447 3.410639421217103 -0.07365130693756347 0.6305383677150173 -1.0408697200856978
Ni 3.0951603138079533 2.8207119519851256 13.305401939386503 0.3564862815257667 0.048882070412683554 0.1738184007774684
Ni 8.95283280693402 2.5943523055914617 10.679843747923263 -1.1878915694956123 0.20237075849386438 0.471902073994626
Ni 6.003341383853449 2.196490676235172 0.8902738825963272 -0.9603350557647397 -1.280102641713234 0.07396652418513713
Ni 5.775833181609676 0.38772515325946455 3.143342231720037 -1.508263621797325 -0.556809413461983 0.06534047307902296
Ni 0.3448972001994889 5.803031360715951 7.892273280849118 0.009144128393113283 -0.254310127675633 -0.5984890525889563
Ni 9.396702571040178 6.703565047947107 0.32764344358887215 0.0484084732103747 -0.0497215355948434 -1.0666691976473048
Ni 9.057012471174259 9.06664339440919 0.6049443662525458 0.3629502919835556 -0.52874299424307 -1.0450217945808584
Ni 2.7313411266975254 9.45798084996117 6.640582764035378 -1.4344955867762392 0.2924354737924448 0.21714971657525184
Ni 7.370216989405605 3.1857267669067326 7.737425357713077 -1.8061768308748891 -0.9168823838977435 1.2544322335303233
Ni 5.698531607140437 5.324940280911867 2.5610178256400937 -1.521080313946019 0.1544040008065986 1.1572057103759812
Ni 5.5458113366447614 3.0859718670070797 3.601560470999568 -1.6869522061829012 -0.814152928647301 -0.4536107318846059
Ni 9.014760678917781 4.831531984975586 2.8547845202860715 0.6836961826849193 1.823457729442524 0.3452582740204312
Ni 7.783565293953941 7.041381683762439 8.348795988090906 0.9898711175506435 0.2556972378311468 0.9735271289749814
P 5.274215535662778 1.219869871130385 12.58397988834456 -0.5745711083207783 1.8792892345898473 0.3581323017696219
P 7.78276507061575 0.6906906505377516 1.8274832175756028 -1.6221282677289806 0.7667145326596795 -0.20684293533260506
P 2.413275885747187 0.27330545460804756 9.548953063364374 2.031791647498359 1.8603425182840156 1.7147869690069824
P 3.0090939401874714 0.3098398864729573 4.32124650811725 0.7297595527018852 0.7594452526917759 0.44542253964685874
P 4.230950248075013 5.922707114540451 8.350339006974782 0.6890669600785294 -0.22209034840997882 0.8095637666147218
P 7.032786343671048 3.4848784938991244 10.014005209952055 -0.4760127537288899 2.9991247318474863 -0.5149150872210422
P 0.5525871653935488 0.724726502709063 7.451816233920539 -0.33528522196811933 0.7371586733794337 -0.2470573027679616
P 4.159052534736616 3.259008395900589 1.554578816075872 1.0453385544903286 -0.44896937645785256 -0.737461292221517
Ni 4.827898029580978 0.22340352723846452 8.084943524704945 -1.0493890704106186 1.835702351137832 0.4272348129942384
Ni 2.6009047225724125 3.0001879251530177 5.358095887411167 0.18776457854491535 -1.220643824225969 -0.9636425228714179
Ni 7.1623754524968986 4.602244462603365 4.3505403309303645 0.3595024426442712 0.9160035808372159 1.8073981048765
Ni 4.434536479702985 7.693356587759294 2.2743203981076165 0.019869485230417393 -0.2471981992212001 0.5303746163092221
Ni 2.33914696145407 1.9686058983028385 8.056903698934738 0.10201957366761139 -0.6989484808582995 0.2070771628305982
Ni 6.648246079297582 1.5684848148151866 10.044814749911627 -0.06621130571975048 -2.675598450187508 -0.3247316148219891
Ni 2.841668389053512 3.8501945693715802 3.0132560429852853 -0.8132306739433479 0.8389198511793358 0.9091341074108924
Ni 2.3698567088561715 5.955158524502144 9.789946441015497 0.9336799150710565 -0.8986476060572718 -0.7946953341433216
Ni 6.3893220502356565 5.182773544088096 7.242927816597636 -3.002962360426022 -0.7026295292543124 0.6761173418963968
Ni 5.551008081146896 6.645685364615371 4.55812014773552 1.4277533829563993 1.2915250246175627 0.5041928157075316
Ni 3.742107932362528 0.9165861673952647 1.9429507380804392 -0.047553581409247134 0.4190180815114009 0.5490027729333706
Ni 0.14732299943938307 0.39026327340036177 9.687707083010565 -0.25183826909637275 -0.12305505418167195 0.35996061322761236
Ni 2.075035602282225 8.017974245690583 3.491783950588101 0.8364899015816045 -1.5036878295011846 -0.33843636600259136
Ni 7.774339189584211 0.619856763519538 12.33050302661766 0.4076532913178851 -1.398812788662649 -0.9345810867290872
Ni 9.45732184250619 3.0988319267714175 4.4009440454049535 1.199775979638024 0.6334406289634769 -1.9440257555362843
Ni 8.360997040400264 2.2864451938400405 0.2956072083238165 1.167404505285854 -0.7794934295919027 0.612982361109125
Ni 1.838160079785512 0.7316178378097186 0.5686368212399936 -1.3764449624904103 1.4184596163592988 -0.6817370020760194
Ni 4.623775177596807 8.937233159035406 5.496216318461356 1.4455688138712652 1.1364363390391137 -2.8337331216811323
Ni 3.8247851247859663 6.87771247512187 12.230591847807254 0.6673943602011022 -0.17507335623049206 -1.8480253914795595
Ni 5.967199532143863 4.480977676494698 0.46961436105459037 -0.10696174816423513 -0.8568772069887048 -1.178619657275383
Ni 7.31651729621689 7.27740991095989 12.966964895124269 -0.0957980182379318 0.3307986469516755 -0.26742815311482976
Ni 1.8193501241419194 2.6580312545270273 10.486387402317565 0.8515251986481721 -0.2569352240033059 0.24373698014547698
Ni 0.528637893040328 9.454968244452688 5.325867598544947 0.25197093801949505 0.38174197076876193 0.9312725911811446
Ni 0.5414198133492898 3.9991114254127953 13.6852321833353 0.3426079808817777 0.4161579863547865 -0.1653666704656894
P 0.7357545217485547 3.2445290606754416 1.9105981792369928 0.4152064210747946 -0.4376691209536849 1.0065161823064923
P 6.90900591484124 0.6244839372927241 7.393958203690896 -0.08535805385153042 0.8535455715123107 -0.1944363341381361
P 3.5089793379669905 4.778576028771778 12.32533546673139 -0.278017755705218 -0.606474127676962 0.05924490170424635
P 5.627556504239013 3.5761604408061682 5.766076105519075 0.36583069885514413 1.1063302636823529 -0.2091816107681107
P 0.11190699736949768 4.643159411165454 9.713969471530769 0.7927037576345897 0.03999608077696338 0.3743634189165036
P 5.1243478260079485 7.250983712015165 0.1585072973896273 0.8784703597784483 -0.4649235857942638 0.055447639445343214
P 0.7629658810039301 1.5360616480301352 12.241945604817351 -0.1164357490929414 -0.5534314981286855 1.0863728467238194
P 0.5332104633386728 4.28491354424572 6.078140612872204 -2.690668714257069 -1.532250985850858 -0.2609132348144474
