# total energy = -381169.46526591916 ev
CRYSTAL
PRIMVEC
9.24276009403685 0.00000000000000 0.00000000000000

0.00000000000000 9.24276009403685 0.00000000000000

0.00000000000000 0.00000000000000 13.52771367012699

PRIMCOORD
 96 1
Ni 8.292641186163847 4.8821459543951695 11.758680783771563 -1.9372948645703538 -0.7319421621755007 1.2552544723213028
Ni 7.540835092920206 3.691086937924202 4.862956136214785 -1.3128849783505776 -0.06402046871601877 -0.35678812903690166
Ni 5.929091857934555 1.4427486123047217 1.2295532630549497 0.7644866717704253 -0.18501478371392008 0.004943974268836646
Ni 6.300373524588072 3.7677371460784865 2.368594026602691 1.12837541640785 -0.020724377031544953 0.15388720907118014
Ni 3.8575305588626265 8.66117775311619 8.087949176055753 -0.027287374961043328 0.46961970571835254 -1.2306487579574805
Ni 6.693514318491665 6.558468353057894 10.46257687634506 -0.5491704088594864 1.9414682792217532 2.00553271380183
Ni 2.209832987723574 7.037788640610414 9.426042941874263 0.5938687802081257 -1.301972702313448 0.0020126595546545983
Ni 1.416970554841524 9.09107700328767 3.8275313329363807 -0.5511357601159734 0.14253244617999322 -0.10788708819198194
Ni 8.033677538259981 5.418420128677064 1.9397521481679585 -0.9269112288886553 -0.4488127962753303 -3.063424165256505
Ni 1.156509579827929 0.9887719724983793 13.075616947819189 0.5883661052223416 0.8698795327856437 -1.57082061859394
Ni 6.945277856404912 8.11546672093902 0.5786707141111119 -2.2336769817153725 -1.4916792350760828 2.11819099813021
Ni 8.421374346560913 5.85677650419054 4.447980246236951 -0.30858662963101047 1.2247131091993357 -0.8362297059416826
Ni 6.354831866134562 0.5538751620291754 7.558285423680521 -0.35013359983486153 -2.937059587085626 -4.0834898041126575
Ni 0.17858583466714592 2.7034703104178983 11.881106684787891 0.5089568127550783 2.6825954503306315 0.9131871944343435
Ni 8.60579513557604 1.5568689692420126 8.034392927879075 -0.6298158877266959 0.1325182564771008 0.7132636119293909
Ni 6.190218311663586 8.02240137113732 5.281774241498266 0.16653986483818414 1.1839171582288965 0.02814406653438379
Ni 3.14151243209353 7.66984553611537 11.933972498797303 -0.5924641865511152 0.28759974296669827 -0.44282855366743734
Ni 3.892523647982622 3.1014820388080837 4.538683146598854 1.1481646832196355 -0.476582767299747 -0.1151450553059759
Ni 4.3573328024346685 5.6037744364457875 11.52686959173347 -0.3322659755258213 -0.11506483688734376 -0.1782162727348479
Ni 8.679774186108643 8.167235419343957 4.809426692041924 -0.5103930309809727 -0.1444628304334867 -0.7078779221374454
Ni 1.8478957513659675 1.5124205367068677 7.6609743351282145 0.9609058406665452 0.35645337140530226 0.2870680388329443
Ni 1.5026786677336836 2.4292468658586954 3.550132076062959 1.9070995719338963 0.7807964646740424 1.3973284908076387
Ni 4.202230047938461 8.509790588114498 0.6304320183081003 1.4889191558324422 0.2540010810756464 0.2002179738169197
Ni 3.6878704574662624 7.66012215266206 3.593326266074706 0.03237070302122167 0.8100772159160307 -0.43847953267012224
P 0.3240021767497891 6.701980686593598 8.288456988740544 0.6996897298996982 -0.7231379336203093 -0.33328001861263246
Ni 4.827613670769186 4.874077024970512 7.046504563230635 0.5276916701604203 1.0047776023488308 -0.16737547336560207
P 3.922756715735265 1.3615602090215628 0.43232362610285235 -1.2830586390177645 1.5645800370008667 -0.33085289722837863
Ni 7.500758485835076 3.0965648905218086 13.408872051541515 0.14956852709116822 0.13140959679395434 0.9107780707722184
P 0.9220447914120363 4.692669375694718 4.417623325501158 0.9048897303122415 0.6783161493199287 1.632880621149478
P 8.161967046180092 1.7476949908932076 1.7987797250628363 -0.48915777575128017 1.6128638117079188 0.6780724087402388
P 0.3864240802576604 4.76567793643398 0.014336444937671633 -0.9956129051304273 0.46947726660321726 -0.4872944972902962
Ni 5.942475374322762 4.551550916982598 9.860025643385736 -0.5081248037720862 -2.019047203348497 -1.0691431131090943
Ni 5.285231957990552 0.645530990940542 12.046211954087493 -0.661539186971906 -0.2191433499665129 1.325236557937395
Ni 2.2861412137602044 4.105846547319519 5.850667964148435 0.5136765868282508 0.010793491071078186 0.702130478130707
Ni 7.331884019033323 8.623707604333184 11.883730704333892 -0.9091868150256988 -0.4392935439309854 -2.1421837615003816
Ni 7.079713799682866 1.7212052409148908 11.20247552196237 -0.655823110423735 1.997474619384044 -0.23627795276427047
Ni 4.219615679379219 3.032364680002134 2.1162620589533425 -2.0536941039984047 -0.9949955832614024 -0.18218014247860237
Ni 8.952638944957165 3.8306895840067194 3.040962295295166 -1.1731835738614762 -3.2617228105635245 -1.4581852170836953
Ni 3.834109405183264 5.3032923109066825 3.7257620761023778 -2.635054724437191 -0.6622948341910078 -0.2169964788268392
Ni 1.5560186353278447 5.188229192455857 2.4681718250557236 0.8067345246960428 1.4642455643451622 0.4405814095044735
Ni 1.9713143247994853 8.229060240559924 0.21231636277980073 -1.9298281238796637 -0.30132223475911335 0.851846843653649
Ni 1.7389975537928601 6.97418920948662 4.866026581065726 -0.37421583759504584 -1.6603518299865536 -0.31894354738530234
Ni 0.19448338175811053 2.9322933181684863 5.971957929968553 1.374783772737903 -0.31050055882427174 0.39953580441707315
Ni 7.077347653139094 9.104081566518477 9.478165637984773 0.633778729029186 -0.3076150097463605 1.2960028578832583
Ni 5.832375617957896 1.8006190342902209 4.011737689920977 0.7764096484602564 -0.13522022878929615 0.40149909879103113
Ni 9.10426642171721 5.343960454627754 6.737964599578796 0.959606148018515 0.15542858541637103 -1.1984330924568845
Ni 2.676860404560406 6.0180534223244 6.985643761876057 -1.5001332793807067 0.1260681299763829 2.2925539585572388
Ni 4.837743735659708 6.365377855222231 1.3519958010391615 0.5089257024068268 -0.9535270317039708 1.0015884059875717
Ni 4.336860089175083 1.0121838834178056 6.179148258087511 0.5592838431444046 -0.14033158187393252 -0.31070881818033586
Ni 5.7512796422741035 8.848241971473186 2.963638289941503 0.09364317667845808 -0.800330420941912 -0.4640380978655169
Ni 0.2678487130309249 7.178444961325705 1.7206571452506498 1.2433212112188263 -0.015754434620779318 -0.31643775024431303
Ni 0.20957126307862833 0.5096947695321924 6.237168759313571 -0.2860092585511268 -0.060460262168586194 -1.5921044676733807
Ni 2.6378744431477963 4.5824494634506765 9.967976458065342 1.0984932841364372 1.3131978816053063 -0.01199213936486967
Ni 3.7571634287110083 3.2383580707093014 7.9506840239612036 -0.9457283615951583 -1.8647833276641883 1.4403453606887966
Ni 1.7682693745120954 1.26232069558221 1.6204443691899721 1.1681357270249237 -1.8275018176049105 0.616675493689996
Ni 7.541408144036276 3.5801368476451674 7.290477378793317 -0.6046059641199716 0.7234336104838573 0.34411773265808476
P 0.7048223716578844 8.438307082764778 11.817567331603682 0.9635255376775793 -0.6636855438909472 0.8720775688782271
Ni 1.6482059229355661 3.4365783003097823 1.072028905455351 0.038159027568224604 -1.137802109038389 -0.5978835577944734
P 5.269214255020412 7.694144751988712 12.20314754787913 1.3608769328488242 -0.7259424929486401 1.224145923841956
Ni 1.4459558500027245 6.030558876518631 11.811547522056971 -0.10653725903230683 0.29683385997045647 -0.07898506044565107
P 2.8096049227699607 6.9715272946248765 1.7098893299245024 -0.3835152606191008 0.6298598535907539 1.874178138615527
P 4.365882355376031 6.043868450827345 9.258218452601309 -0.8253081739331721 0.021578754612040254 -0.21752612607806407
P 2.459646303290197 1.8643293785332553 5.59925565111278 -0.8339139133243122 -0.9065105537451162 -0.5248223190324252
Ni 5.854669154924993 7.302907966632059 8.29546484932448 -0.06964552821228005 -0.17515074643564676 -1.0886827258039187
Ni 7.984709396115836 7.663939412515878 7.041147459571378 0.13266815179140376 0.7842175745404494 0.5398661007394251
Ni 3.0218556619542114 1.1985548947795561 11.61565277085654 -0.40435328041037455 0.15751272163890936 1.74470663938455
Ni 1.6421981289767713 2.5633870408186774 9.873201197675371 0.0012449281506946301 -1.4479565973771515 0.9899994155983918
Ni 8.611876871614326 6.948965717619619 12.892844142900758 1.3667727295079686 -0.30254325165040796 0.38464243224500855
Ni 6.321419288963726 5.890142867561693 13.093081142719406 0.5158519972130149 0.4217722472177704 -0.0903033136719477
Ni 3.416031644970704 0.8895943855506017 3.470764496487312 1.5176185806496636 0.3425969251381842 0.18014305744391557
Ni 4.548075639246433 8.288158447594592 10.248135603055834 0.9684623128575645 0.22161418010450862 -0.6979195253731528
Ni 6.199904724077149 2.2742457817217905 8.619764642944228 -1.1493641028443753 2.2494226745854036 2.696523116155317
Ni 2.371193090696865 8.792988752572148 6.199507285399876 0.325995054915445 -0.11929764402176876 -0.3997085825495116
Ni 2.1971334355706755 0.031653679954899136 9.79633748176655 -2.0284954932455905 -0.552134633694133 0.9517066906657803
Ni 1.2714340568797047 3.909123644828769 8.104805197352142 -0.6604094442428368 0.491944851578114 -0.67931090913303
Ni 8.387259319634897 3.2241427059267993 9.593962631574565 -0.42146294350746766 0.2561746916881975 0.6339975299082113
Ni 2.604036699019877 3.7024740181661024 12.301250201846281 -1.1045780568779364 -0.5123828077174918 -0.4243484925853788
Ni 4.229302091792784 6.950037877772264 5.826845674687824 0.773167487373875 0.5637362224888033 -0.48950358912647307
Ni 4.630428630281605 4.168946869406738 0.07642745763981237 0.4057969548354366 -0.5611898019178657 0.06023451931102531
Ni 8.278527491740647 0.508246429050126 13.563291766078406 0.44875057557882714 1.990403314359559 0.2657286539252197
Ni 8.892154323932008 7.512894229631842 10.18669250782525 -0.07153220371203166 0.6381652881326558 0.3941958802613985
Ni 0.6076227353365408 8.809930731535948 8.242571307035256 -0.10332466563228011 -0.7874389096912245 0.5136866141305798
Ni 7.607900559020228 5.580270097926994 8.636079038508333 0.602065457086305 0.12497489691220412 -1.1277300695143675
Ni 6.763981120248359 5.88429220052182 6.16337548825569 -0.338941587773784 -0.5393585649753873 0.22416265755797524
Ni 5.853273498174565 6.003089393987034 3.639171279636272 2.2663346198493937 2.9915960275706093 -1.5274689910811823
Ni 8.749760364348635 1.497206953851212 4.134962165395827 -1.7961068482333973 -0.24218069140195064 -0.2988940849335949
Ni 0.26962517149074083 5.249231408037466 10.075414299568465 1.6372607524950449 -0.6937391687432182 -2.8568861627588285
Ni 8.437096281213082 8.986365775965846 2.533023650150929 0.041649814330302466 1.1307511157288785 0.034850789130598046
P 7.271796836685439 1.831221812440328 5.979465823865059 0.11016097182782317 -1.1231959290894398 -0.22563255723528242
Ni 4.453891915492405 2.957304226556946 11.116154614086414 0.750185938877037 -0.26208334386314863 -1.1150511884951184
P 6.159550834193922 4.018548679718263 11.937909914530298 0.14758852054666197 -0.4452340777851365 0.31379208509134987
Ni 9.103397602283168 0.8824968701952809 10.835144210905758 0.8055507888005868 -2.028761859533099 -2.012750571706508
P 7.432916627900378 7.164137168943837 2.7461256475253415 -0.6366377957445357 1.8268338450036088 0.6930380289111354
P 5.576212526314824 4.503876761229578 4.892148469198566 -1.193699691536957 -2.1247995045856634 1.7855450135571507
P 3.755610645041658 1.2739758158622718 9.539527396927916 1.8760429597384076 1.8691282348964455 -1.1016048331822255
Ni 2.4990112178602075 5.486770338408275 0.27358014846761514 1.032386622315351 0.5687023082448269 -0.26682137276876633
