# total energy = -340867.0314974342 ev
CRYSTAL
PRIMVEC
9.25232384388428 0.00000000000000 0.00000000000000

0.00000000000000 9.25232384388428 0.00000000000000

0.00000000000000 0.00000000000000 13.54171118475121

PRIMCOORD
 96 1
Ni 1.8027320130000608 7.862485943242217 10.785038728487411 -1.3399836343395826 -0.18215134612319597 0.5223872272283713
Ni 7.5007293366948815 2.447572717194965 2.3910465704382626 -0.17324273077965646 -1.8249821365068504 -1.0377003212187808
Ni 6.853677327122223 2.2502946700632664 11.267719505600008 0.21589681800475718 -0.26460611028500236 -1.2837564364157374
Ni 5.631223303145647 7.472389469029353 7.671081271231014 0.4448661529227565 0.3789379256610635 -0.16666764866530004
Ni 3.9943484458009113 7.11042931135938 11.36206452571056 -0.254170259663659 -0.15914022994000335 0.4857639195783828
Ni 4.803436401317544 2.5433065111013375 2.563960473422513 0.9918814631124531 -0.660553683130185 0.7575616625158179
Ni 6.310057044821175 9.27323400798313 5.393297947287799 -0.9420838228640356 -0.40816468373666476 -0.3383168097055916
Ni 2.9920257086340794 4.2009990968977355 7.830372977948873 -0.21736054703447727 -0.8388668864542133 -1.596752250858037
Ni 1.878823123571822 0.5342273232236588 4.572521531169839 0.39596145680225353 -0.4012041932584316 2.2277765570705372
Ni 2.0348820683692312 2.9712079801824185 12.75671169665077 1.4568173902018908 0.30875400844681017 1.3432419933758803
Ni 3.72300554700008 8.21399097506758 4.997920246674842 2.3505760435979774 2.03118255315945 -1.0499696255044368
Ni 5.121438768821365 5.586599345669042 13.022386621918498 0.6758095808479909 -0.1695277438219145 -1.055530664531982
Ni 8.057885768651389 2.8504836598102954 7.086499101196101 1.1150285627872991 0.9992145064387564 1.0057268536359776
Ni 0.5735931851095626 2.913612264799489 5.30686088829175 2.130827455947298 1.6386087818825068 0.4482335267330925
Ni 0.9544234570804979 7.493531028812485 12.957102225494088 -0.48125497596443567 -1.1617753320245348 -0.001078577776159433
Ni 8.452441862914785 1.1237502341444325 5.076164372984692 0.18495693389279114 -1.4094047052458822 1.4924384818396104
Ni 5.668796989919957 8.297141608665392 9.974147495070678 0.011141618439116294 0.7404095762165636 -0.2606540676157898
Ni 2.8582648640893384 2.7391967096695926 3.8966540844905793 -1.6348063774172812 1.7563773908542588 0.5548409768817025
Ni 7.935273974232981 6.529633192205543 10.57599542646721 2.219298087285881 -0.4394676076150045 0.6425402772718999
Ni 1.6423984946272439 8.989039631484806 2.3453160350404043 0.5235707060135112 -0.47775313345876436 -0.023608126337243213
Ni 1.0967056918047855 5.27913537492364 0.806909033272026 -1.2513258266908578 -0.9511814142899295 -1.2336857450115917
Ni 3.386803858667628 -0.0560006147673445 9.799756921214923 0.7805807491188105 0.8800600728630713 -1.024430600693068
Ni 1.1571881321996786 4.976029248667451 11.661159769618394 -0.4829105092899877 1.0882628646576806 -0.0769870561790158
Ni 2.016932560282021 7.140924970460124 5.649628950794043 -2.560885083102312 -2.0276953659417982 -0.06514455501813296
P 0.5512441970762346 7.909126907297694 4.149288784656185 0.26224120959725156 -0.5314616787258137 -0.29400358961051304
P 0.9141758487406194 0.9189574496578721 10.978007968445805 1.030382961621761 0.09339275123054884 0.4334100885670148
P 4.97952662704733 0.9232051914943867 11.085041625355741 0.3147922442210901 0.6177121624846265 -0.22318795234953176
P 6.462026462518303 4.434601767096644 3.0835015831478065 -1.7619754537673267 -0.3666529376461234 -0.6583633603470854
P 5.2031367875894405 6.857729844927481 4.585588588010853 1.7169914328574685 -0.9886763259115939 -0.4791276452087878
P 6.5215003996237595 7.37997725935149 11.760826726353569 -2.4858199265363576 0.9682185722778742 3.1044335177893307
P 3.6269016601434547 7.416616461426413 1.993258639486792 -0.06920227002727436 2.3304589611331283 0.06838465922198544
P 4.320039494346213 2.5537061230034124 0.47158076430216844 -1.4605819994506457 0.4764446990599859 -1.3256669606065943
Ni 7.515273989639776 0.0449857233354766 7.659922968780923 -1.94964387305401 2.159681918285145 -3.434256173980982
Ni 5.189101012451143 6.06046635917139 1.955368523240017 1.6616708059082932 -1.5677350376900807 0.880606946505477
Ni 8.50839991699285 1.3722583979147307 9.623512181678409 0.07328415340613186 -0.1205230317884376 0.38515999531137535
Ni 7.751689366260598 5.969266203905601 8.070236695633666 -0.6987546196799386 -0.7707352237832984 -0.38959540537490966
Ni 4.5653093448018085 3.7105889285191336 9.376511221448009 0.9145071987973475 -1.3313519268065135 2.2848025967465944
Ni 0.6000696347705732 1.663058933575048 3.151020415759361 -1.771221140735311 1.484403784460592 -0.9342969798297652
Ni 7.569085504606381 7.08039626844645 4.302716368577304 -0.4940161322848459 0.06809772410918595 -0.7252277262698026
Ni 7.403950030204047 5.63263890868036 0.6998152362576753 -1.808015426745525 2.888383719146477 0.6293584884743032
Ni 5.545482018896072 8.46236960630529 2.754600903491446 -1.160848449334891 0.4177068188991451 1.7043542037094328
Ni 2.9279163573267195 0.5652448133842586 12.179198301965666 0.2425136492613372 0.1438845893325135 -0.6343425719524559
Ni 0.419369901345402 6.275027747079847 9.177271681679976 2.5445945734724047 0.723732886891831 0.45001941498892173
Ni 5.77129423249218 1.147880294500847 0.9360612953537569 2.3569459516800633 -0.39459980056803656 0.6694191039406149
Ni 6.568196877621775 0.320630027450609 12.549347691392336 -0.501022131289034 -1.1225338700254086 -0.5943830008403828
Ni 4.629946078563277 0.43268492046308454 7.446655055733598 2.2281740496192723 1.2443393680706956 0.6990145582095446
Ni 2.5307048461452655 2.558600602270492 10.548316174717883 -0.03880951666802994 0.5962635056925474 -0.19453737849237462
Ni 5.358233490716197 2.901852561305239 4.758760630827903 -0.3429126566063901 -0.003724500039438747 1.592119637182032
Ni 3.007486341630847 6.1918956181295455 0.39476889770979207 1.2089553321444468 0.8062470435366631 -1.3996036599950605
Ni 0.5285260413250306 3.838196977765939 9.230409627477124 -0.5143995810372044 -0.4280187423481145 0.4448669242537048
Ni 0.9324306835117874 5.092950863975737 7.216377670692701 -0.5995038670067159 0.4443383054437445 -0.6454733917582948
Ni 8.823034438649382 7.587321834730036 6.2251244136679 -0.18272058836310467 -0.805405007251342 -0.5567888446366926
Ni 7.483954873724721 4.4900787003393825 11.918939687024876 -0.8126226080457037 -0.15338764372694227 0.07000265444138266
Ni 2.7046670374111037 8.958229393376348 6.9176071833487125 -2.7216142547959903 -0.18569072673502213 1.3290286779899756
Ni 6.366061360518023 1.6597466016702949 8.992183571097195 -2.0860928320440846 1.1148971794157574 -0.45422676820204994
Ni 2.180587662883348 6.215563062298146 2.8678502715008594 -0.18299955305610419 -0.3017847762178287 0.7598913390902591
P 3.299591454940802 4.738549854814655 11.916137158159094 0.14659684605735396 0.984335275334079 0.12006254721225129
P 7.4430133411031205 3.8508911659595744 9.516707982397628 0.2945358079648992 -0.34424731625741356 0.6289396557693296
P 0.8444059257591584 1.3725359676274196 6.768024865180708 -0.2801044630309176 -0.8951920434085034 -0.7212324890674805
P 7.442226893583836 0.39320525499497844 3.4045211334285552 -0.4976496152723752 -0.2616480560979429 -1.3439804142038017
P 1.1613886871850363 3.8754005715899966 2.376055955488315 2.195824172533657 -0.2715763709552484 1.901698455522983
P 8.792686816728738 5.861532146087315 12.885859332570625 1.8726848418994522 0.20033264501791304 -1.7574523690859927
P 3.201729626570481 2.057217177916925 8.531549231031098 3.6439946856938272 0.7315503260537207 -1.5035482185995268
P 7.711959888051072 8.108819810929786 9.17456352651651 1.1431039808672765 -1.521690179615876 1.352849177448341
Ni 0.381250327469471 8.732074843801257 8.028839948683256 0.8437023601696437 -1.2875647544182343 0.2012708405614663
Ni 7.615615440776783 3.3041435982288987 4.482604673209048 0.8087271296460394 1.175416576957053 1.7203667770876052
Ni -0.03705833234108398 2.9319318658369506 11.53273011402203 0.1930839338752997 -1.0068144302732016 0.04935335362214726
Ni 8.494484422063385 4.670563779853407 2.3321943894892287 -0.31985294657344915 0.1402629334195262 0.928888150109368
Ni 6.272603638255697 5.708702262280854 6.172216850732283 2.3868764206909083 0.07769513798963394 -1.4851830858287776
Ni 3.287165584136099 2.2218437745126622 6.139866100718403 -0.4016181408673986 -0.04501410281684506 1.0652545766879655
Ni 0.2656157103956855 7.164971759902732 1.9072684677281722 0.551486715697489 -1.050161944020901 0.20171409874647195
Ni 2.741232220895977 5.233475157186329 9.841222135361129 -0.11827845872863499 1.625175024975104 0.2945036691753832
Ni 7.617752727564487 8.03401477336015 1.8835436591522834 -2.1457521955779306 0.6352095479384415 0.08759002850584269
Ni 0.321391493695752 2.6765677301632387 0.8629457321020201 -2.077536200723325 -0.40481942141351573 -1.4274885593307869
Ni 8.542827813690021 8.885839212307104 11.619207883242607 0.5475814671058118 -0.659693906233051 -0.8673158858235256
Ni 6.249111988238467 3.8026310452467453 0.7897570754926083 -1.3552441600430787 -1.4813503423462488 -0.18116198562673316
Ni 3.749485697590593 0.1681276759051191 1.0474713014004189 -0.7655025146294494 -0.47621818487147666 0.06431948801367633
Ni 3.5113586410748567 4.2722049805261735 1.75844576534056 -0.8695262632112831 0.5602901729217318 -1.0295910618480848
Ni 0.46010973330911525 5.1608906773182035 4.305736327051358 0.7607423742366447 0.6444272098819676 0.374070313156117
Ni 2.41997303542994 2.1667646911914447 1.707095368493129 0.5065841987578437 -1.2125093680442924 -1.3823343313916516
Ni 5.840029745677688 5.694592468552505 10.465088746832892 -1.5771223924422517 -1.3229955844220183 -0.9889102962992711
Ni 4.0410356714751705 5.8681938191918475 6.349586672837566 -1.281930438950592 0.534109657871622 -0.3770106267313636
Ni 4.011604029606399 4.966980476033795 3.9069056592125526 0.7749837146470072 0.2749468300893781 1.4451530664900853
Ni 4.911605318352376 3.3244061872551818 11.757604141989251 -1.2372526364272434 -0.20544682631602684 1.112303193436336
Ni 5.520926351646867 7.806231814803951 0.41304686329035073 0.5256013632902948 0.06839828606874027 -1.1355423664699347
Ni 1.4089531139321922 1.2728514314771089 8.83672510211157 -0.6194525422145009 0.3227683204480312 0.5186871526689648
Ni 5.51243271843859 3.8756318796839038 7.325767894463365 0.5684475119215436 -0.8940160208225313 -1.2523465546458883
Ni 8.663441106177068 0.28652596208490966 0.5367550580738784 0.6253334264753101 0.9555587174220189 -0.2931682381934112
P 1.634034393951554 0.01688086469335823 0.20700223939956358 -0.3084927843656236 1.509393107416078 1.1987544803520451
P 8.443670659993819 5.018617694917672 6.030990306148589 -2.055363778391344 0.054645198148705894 -0.08582445196498767
P 2.380835705940817 4.541928722669653 5.662791306569747 0.6852578707450843 -0.5425978978482914 -0.9007934487556808
P 7.579346331652111 2.342586599532298 13.274777060736938 0.7687071376096761 -0.40756047449376265 0.9412759822507595
P 4.769609905664534 5.6716559579606525 8.42886231582187 -0.25510279878025743 0.022193248267587583 0.4938315270778657
P 6.299287339968849 1.8693302393978646 6.66235962695433 -1.3202110796983457 -1.1033405849264093 -0.6327965676215748
P 4.131856481466952 1.0877124331136678 4.220423425391699 0.32430815413132535 -0.958386159568485 0.17585934246689713
P 2.1743515966716056 7.5721017621509334 8.689295799681656 0.2463646475763112 -0.11512062982594368 -0.3390845411095515
