# total energy = -381161.7825454338 ev
CRYSTAL
PRIMVEC
9.35194797464937 0.00000000000000 0.00000000000000
0.00000000000000 9.35194797464937 0.00000000000000
0.00000000000000 0.00000000000000 13.68752117029529
PRIMCOORD
 96 1
Ni 5.211849814014863 8.71057243764159 5.493185392346842 -0.5597250444468812 -1.9020396409124856 -0.8868372436859049
Ni 8.2896132151061 2.948061238219517 3.463887553579797 -0.9888074521728196 -2.468019922240459 0.5908834723275566
Ni 3.0001983467356204 7.291152517218787 1.77323215835818 1.0211362462125124 -0.39461317030447524 -2.006846804627563
Ni 1.5479530898300347 6.32970682839098 5.26365960436091 0.8313713494081166 -0.6177898098000973 0.6307319717830621
Ni 0.9280452075604959 4.021487148997427 0.8402070386389713 0.002339703876770164 1.5586891254377286 -1.3852455915011754
Ni 4.1110601042202495 5.640412170043373 11.840814293340559 0.2044448674140737 -0.7094388388666621 -0.3457310998917917
Ni 5.373292487434322 8.527788619534462 2.700698480355062 -0.4332105709616991 -0.23727039858452686 1.0140081198081632
Ni 7.601206991791503 2.129719053340304 12.390874348509637 -0.7723290506329795 1.1838515950982837 -0.17337977057815301
Ni 2.9395229099549067 8.281851098501908 6.029297952692437 -1.0140050344843698 0.017175997558654288 0.1370056028244931
Ni 6.434570218129288 4.377618669966346 12.585702540080062 -1.7590837340418284 -1.2843521610182076 0.19965901598965613
Ni 8.73124959404143 1.9474870001484137 7.492370894663483 -1.0077042890773225 -0.8753852930952214 0.52967476202872
Ni 2.6307683561147006 9.050880463075218 13.691627404365471 0.565812902512174 -0.5789934057581899 -0.12264470611713071
Ni 1.4974432202164967 7.001784550993627 13.206814953215408 -0.17051710431837733 -0.6930033190184581 0.6453687478596305
Ni 2.915422940691051 4.510818461283811 9.597224054221998 0.4183033148325635 -0.6517898208946258 1.1965631291276813
Ni 5.625383590063934 0.3001900401219913 8.770648414573714 1.0406360068083367 -0.399547374381299 -0.1336739673480988
Ni 7.114363297597547 0.1232147167412045 4.586852601798335 1.872556286741388 -0.20191001680736195 -1.7574292291575413
Ni 5.172655801137555 8.7823673402565 13.188255077778448 -0.07447046040474917 -0.3760590614513717 0.4465258000133665
Ni 6.4335976155668355 0.9829738724697931 6.486502518990413 0.21049673003510844 1.6290635613962334 1.6619777956257504
Ni 2.6440294179758372 8.952245470515695 8.58095350710454 1.990675079963707 0.1990884881981668 -0.8865104564741055
Ni 1.3290146418532642 0.2095780835079328 4.354971993377541 -0.8735127586628569 -0.7892795624443891 1.0814628110167117
Ni 4.341950341377931 4.869072874384238 1.442966254381877 0.1436354494361849 -0.06252871466184069 0.3282496552775766
Ni 1.9102943040823073 0.18403230312719962 10.665931907377242 -0.2784481583744172 2.6074698728403867 0.6432128778588923
Ni 6.680722833959306 6.992095933159963 12.16826058508052 -1.536773813421876 1.0818078530609563 0.10625366635361701
Ni 7.505340175755884 5.458591602550983 10.840379399290422 1.4553706304530356 -0.8124143486896395 -1.0959689750526869
P 0.4402532258681486 8.898761681528503 13.406461268249062 -0.8962803913766756 -1.3094571836159514 0.6520214772894577
Ni 4.291823901620745 1.5479530898300347 1.3684920187463634 1.3716308289312185 -0.27992628558184046 -1.0490273161958257
P 7.572487160355995 7.781138465845284 10.300187519351155 -1.154557474119857 0.0804773287204614 -0.04138601914595453
Ni 1.1720702552851487 2.0147555600688314 9.22705900051061 0.08467568307252514 0.1509425246205594 -0.23433497010528673
P 3.9476441698327362 6.885820399316555 13.593446916464941 0.44014380774642264 0.3395979904108603 -0.34711666738540864
P 0.04897521499335984 3.9022124078289284 12.15276627810483 -1.9645123055254101 -1.4467247818525795 0.25825934213136814
P -0.0999751266672105 6.055142995400078 1.451972180032282 0.6766498173610991 0.49325637130068595 1.092355032449183
Ni 2.8282534360312126 7.642514544852602 11.111940321869751 -0.14262500589379953 -1.9748671663971733 1.4074509239536213
Ni 0.5657554290206606 7.877547694848423 6.58483357324917 -0.020165162093965273 0.9364937303707679 1.4785583814234085
Ni 7.7085860554653856 4.333337197531594 1.728747748657992 -1.015113179946884 0.721729483308557 0.1536936050031353
Ni 5.318714520564371 3.9757935324575744 9.910832268926754 0.31629531112917786 0.5711800803613583 0.5163998992966848
Ni 3.286162203992195 2.439408801952099 5.717715369862944 -2.876698826609381 -1.7161288277468574 1.4255787439025835
Ni 6.330062202404184 6.074071337577046 8.733582904996544 -0.6855931425973161 0.10466575304120684 -0.07215389645643058
Ni 2.9821958473825263 6.224777975018661 7.598203146185158 -2.04867762462042 0.0334564798862327 1.0797753960119598
Ni 2.6145707826707745 9.31640096262485 2.479563259859829 1.4276621087941737 2.1324583066825014 -0.6299547272974054
Ni 7.719883208306184 6.639723895172832 6.337664400702433 0.43876209690754764 1.641630085207334 0.5350514529596011
Ni 6.031725718319483 1.3536570240846426 10.790269793039124 0.8626349354080884 1.4953505132800826 1.0525384146728776
Ni 8.732166084917585 2.4195172091603947 0.709010434522252 -0.909974858144633 -1.5257206409315078 0.8848844908349084
Ni 8.761793055281535 6.57383007156665 8.927781710485691 -2.2519721804801347 1.6176550624489752 -0.30285821178766553
Ni 8.51148817466566 0.9248309431305435 10.131872099555284 -0.47060340978786047 -0.47286803745232114 0.19032282619039478
Ni 1.471987218533836 2.2261282823434443 3.1152937024698866 -1.7524798555720658 -1.0645855756453988 -0.1920585779345789
Ni 7.7517265902788 9.086698422827087 12.179689600384114 -0.4557241786831829 0.7293990840386728 0.5426513767940461
Ni 0.21586539795732765 7.973068488818554 11.077392356617699 0.32840263591567315 -0.537088795104604 1.071662279986522
Ni 1.4036057768352266 6.493945734177492 9.628418411023132 2.6951763723194357 1.2562518032375656 -1.219890490999712
Ni 6.17293077688175 1.8481225556670509 3.1433392584750783 -0.40446898005263243 0.23250563020603185 -0.24472376953877853
Ni 3.9056726284838086 1.889252421721548 9.764512630158663 -0.8759784465945301 0.03415016351914763 -0.5077743624112029
Ni 6.0890812136610535 5.096577706468766 6.337965533418886 0.09125307917972672 -0.44320804849404316 -0.28291313612430635
Ni 3.1517092516808023 3.6886139219979333 13.439749526143784 1.0406810011136591 1.0548776043290156 -1.014233091334776
Ni 3.7224586207817496 6.087715829294534 3.4472298643082486 1.1699136448609528 -0.368145720141566 1.1217396562588875
Ni 7.568250728040696 6.963048783554399 2.695962654031734 -0.16370445227191804 -0.3909809728685266 0.4393938169542755
Ni 6.363280320691035 3.191361509996189 7.888652197566275 1.0444263270887044 -0.13618799201920417 0.12420279463286997
Ni 8.57317362179969 0.46914700353117145 2.571323635653399 -0.7133114344481909 1.38987357719149 0.9420182597334228
P 4.683184209635433 3.071806210396213 11.769652517586016 0.5143674422476883 1.3048806199888625 -0.6914285183321704
Ni 8.630304670396079 5.259385764254747 4.556411076788332 -1.513748041950664 1.0821004446007105 1.4050754817429092
P 6.302707755335197 6.785922893815386 4.427105436499766 -0.5832395826290535 -0.21187432710892545 0.9565239095487654
Ni 0.46934900560183473 4.405880255963775 9.462689739965477 -0.1617493854280763 -0.9531670772613907 0.36332670148636786
P 6.236318278500073 2.8875915442885534 0.7298914633822979 0.7159591564836831 -0.6648229999295002 0.43660211314175124
P 4.434637495190146 1.4490375388390346 7.457372165531525 -0.7383686345271349 1.0915500200493846 -0.12046980995299897
P 3.5898854099612514 0.1346175465911928 4.316209105289936 0.3150807219957864 0.8151186349946801 0.16908757096070234
Ni 8.182121928059626 5.624859880991843 13.377073707746641 2.0040000792073873 -0.593431692670707 -1.4400162594841521
Ni 3.638646465351917 1.3984715575392015 12.379472453854419 0.6512300917364139 -1.1660114815930693 -0.020853960630873764
Ni 1.4488037401461373 1.01242315582714 6.688065048111054 -0.04310968670528059 -0.06944498216569976 0.47150201034272987
Ni 0.6846897592923008 5.471441178712619 7.269154865801464 -1.8946387204627242 2.3103385362341697 -0.7180080685929119
Ni 6.64059362631041 0.3969583839174221 1.1879274178322168 -0.07544670827508942 1.5895996989736558 -0.7219832511905759
Ni 4.66272214803306 7.8430764155676425 7.659016056597294 0.4993917947744625 -0.8334020066849002 0.49467844845919323
Ni 1.3375997298564541 5.346826475398346 11.538333961222946 1.1256847569495645 0.06483499419751414 0.6895549554585415
Ni 7.905902800323011 3.2270017827414565 9.986729871004625 -0.7463624513658887 -0.3779069132933879 0.062181358624750965
Ni 1.9137545247371879 3.8492710318092582 7.680300154403895 2.001666288867888 -2.7068903183222544 0.22391146077911758
Ni 1.9075915911924142 2.7138697635181255 11.622032958085416 0.2245984595438132 1.499479704957108 -1.4729718884745664
Ni 1.3967695030549088 6.554761450173944 3.105288053608653 -1.0179354798870275 -0.753301087467251 0.04837273487643282
Ni 8.968901289397701 7.807539014247249 4.524287136384239 -0.3518999477066649 -0.10950559763201141 -1.066263220458138
Ni 2.6263168290019356 4.2604761728770715 4.513651166246954 -0.8280320006222385 1.0880206667398875 0.19122785450316745
Ni 5.738841419753147 4.3648158535432895 3.871542695294657 0.5114901206998933 1.2563873003741652 -0.8983791828872335
Ni 4.567697007291872 8.989073440620881 10.918384930383457 0.10784312232792395 -0.17841476189889918 -0.5429228852878778
Ni 7.40470386638516 3.2565632894713943 5.588983939164135 2.083430454720573 -0.25700335823708 0.32153907602662046
Ni 0.5008463655089622 4.323816914756814 3.11837329885273 2.746022765547342 1.333096420301446 -1.4882563254374628
Ni 6.062325291245884 6.196535092916664 0.5716069427064947 -0.8540942449269291 0.3904945201504113 0.7582561174796812
Ni 0.45131377443173515 3.4806640125873374 6.099269225502748 0.22416445733018814 0.30716738068598065 -2.182491717090809
Ni 0.389505816782627 1.3431921945905583 12.452372756689348 -0.005815321130196436 -0.27625037939215 -0.5906890969285633
Ni 3.731688993177336 2.617806556580473 3.3612031676592924 3.374184919720699 -2.040902094440059 1.6489623572026895
Ni 0.6819056844572795 8.343443026158779 1.9821032346187915 -0.8819752876079133 -0.9022324951950526 -1.9465495503994024
Ni 0.45767029329422765 8.81349062225499 8.773591472519906 -1.3173594691821635 0.6216855453100776 -0.44619078527145095
Ni 4.105879125185645 6.070891675353642 5.793516646879343 0.9292771580176706 0.09262681959880177 -1.9259768684543732
Ni 5.309811466338841 2.8683545878369614 5.474597461066733 0.0012999497583461481 -0.483151164545884 0.31064762592509726
P 9.223461306224307 1.6953771936233712 5.113165256132445 -0.526973561047473 -0.7513002549871384 -0.3465291703130548
Ni 4.202690487940569 4.068966987551016 7.495683354544452 0.23107969639278267 -0.5031990843356947 0.09045655142036034
P 3.7860705691452536 6.471603931084224 9.579238388374794 1.3630885957881622 0.5260687898450166 0.03214367461208013
Ni 2.1099022761303265 1.896500181201365 0.49331337162381045 -1.6450545375078507 -0.6841517821650992 1.3058221579665252
P 7.759067869235776 9.036048273997812 7.515010089694117 0.9493235351455844 -0.32098088953030524 0.37499925272828966
P 8.052812546991973 4.80836002981266 8.012442059092006 -1.3501402631576103 -1.4994383101962112 -0.30777647502488925
P 2.635463033868079 3.7266015336198905 2.1514183776254905 -0.8450989834068543 1.7296942251361178 -1.7958839335893138
Ni 7.771599479175072 7.843328918155971 0.6184143762193106 1.3338009025676385 0.6608647866127005 -0.8786729627075577
