# total energy = -340853.2978235602 ev
CRYSTAL
PRIMVEC
9.43780913624239 0.00000000000000 0.00000000000000
0.00000000000000 9.43780913624239 0.00000000000000
0.00000000000000 0.00000000000000 13.81318765925260
PRIMCOORD
 96 1
Ni 2.421090538163435 9.502740959439597 9.222830649897801 -0.8729028929929998 -0.6332022877004256 -1.02850554209339
Ni 0.27942803751034484 6.3948988236135005 10.333023697640611 -0.16434131452496858 -0.05277214949570912 -0.2513093931760962
Ni 2.1387301734481623 8.405520179940027 4.994241164709099 -1.6464470469800032 -2.6598267891755483 2.343782674825228
Ni 1.385404272265828 6.061838549838449 12.676375948213856 -0.734534091272393 1.0013636915712754 -2.064043308443213
Ni 2.104687996981554 6.960185821574125 1.6368765762270348 1.3790615741776509 0.8095136301030768 0.7914436599752435
Ni 6.493335169758974 8.60692302047161 9.691498079913625 0.2215031084479411 0.9367654959749158 1.1534218178535167
Ni 1.4139630817995006 1.20200877099077 0.38876505285984797 0.2824356822672555 -0.7907782584771026 -2.1422531812857364
Ni 5.483914325848217 9.285274968271427 13.195281778437442 0.8249608178960826 -0.49597377023184913 1.014545223258556
Ni 1.301521027343395 1.4479863826484396 4.647226146791124 0.9962618515683358 0.3604740625289211 0.6675589108034244
Ni 0.28855817377699217 7.356422787688371 3.389756092183491 0.15164674977643558 -0.3105347544963168 -0.5542565651331423
Ni 7.16732684987718 0.7393069799393345 3.2231136453708333 -1.6169438953145636 -0.7458006653251479 -0.6468808136287827
Ni 4.1592612290510775 6.987319521973764 -0.11320274184817872 -0.5780271851901787 -0.6467167772470926 -0.08355133966009481
Ni 3.9069414098565187 2.803085850746183 7.923852168254464 0.9714368221048559 -0.22916499586857306 -0.2533007125745122
Ni 7.363586084593876 3.873003049287092 2.06174219166033 -0.29700458122036594 -0.2939100014554422 1.2268190997987451
Ni 3.9224288541541914 4.512348533173271 3.8448727162745127 5.281289890971233 6.839653514748743 -2.9326365183172656
Ni 5.2799632769312765 0.22083906404567666 8.114363777390853 -1.2922788720644518 1.1780025925166744 -1.6487720955687541
Ni 0.5253782795223938 3.602213438203109 5.233195159032016 -0.8833076332660917 0.6596106024906253 3.502824667079
Ni 7.921143517118916 5.874431979808661 6.830386692890202 -0.8499352284532329 -0.52930683716634 -1.074379421807369
Ni 8.049195707387545 -0.32733246759329765 11.837597294499886 -0.09017655828609632 -0.2848646034237223 -0.27760200832403803
Ni 9.63260520900448 9.38691073161185 1.9418442682248453 -0.28764756548549814 -0.8153104392905121 -0.6651510726928802
Ni 7.289999489110055 1.5912428829497005 8.509503126337629 2.330195423059097 -0.8785570059549838 -1.9764856758372025
Ni 0.4248948726406825 4.081408743973991 3.0410281119620257 -1.3238545899882037 0.6795569637055651 -3.0627898741066155
Ni 7.9482300284743825 1.288062711945174 6.153843973043988 0.6323561376500464 -0.35897639493747213 -0.9865896185858944
Ni 0.38648676580716174 5.438282520132651 8.093409010435263 0.16205483248363703 0.5121439522338084 0.09425664189274088
P 3.581214313545997 8.756616106398106 6.525956955995966 0.36841182931875904 -0.5157949187228342 2.816646341402175
P 2.0980060283266164 5.501780097972224 9.420759432997349 0.636796175699271 -0.21572249721042205 0.15786419144105715
P 9.282943829489266 0.5672915885571062 7.760124116809947 -0.39691482185445837 0.6869663687957589 0.20902091682053037
P 5.619337444816714 1.9182818346882402 12.816938897873708 -0.5648014305285239 1.6406047292666133 -1.191798360749186
P 7.705961475688733 2.95210885224542 10.104208741348765 0.9334359173810504 -0.9471167573022528 1.0663552659513118
P 5.050511268543091 5.19189908269509 5.719916173567655 1.2891737507765668 -0.3244626774313186 0.6533445669762554
P 5.615128182076456 6.447071030851485 12.298722971475934 -0.46423453014703914 -1.1518189921427713 -0.21618786688261477
P 5.318592228491528 3.1520771458341357 2.7693088767078287 -0.17236649882229024 -0.17383768405117803 -0.3787420076001735
Ni 7.979997693011839 2.4241767016523674 12.602102280246871 -1.886136596528984 -0.9895165624247021 -0.08827214217453185
Ni 6.253784705917706 6.379817205095717 3.8448453466288925 -0.037529878624657946 -0.723916720767863 1.6212165545479886
Ni 1.6308816800552608 5.696944546864099 4.20126702861237 0.6544570833141439 1.5647556433467824 0.06459922403762422
Ni 7.524670605783805 7.831786343072382 2.548422623617979 0.4384265679449998 -0.05275080933947044 -0.35561236356124565
Ni 2.888290388905468 4.797426986832925 5.994578117616498 0.4868532959878196 -0.24792967807058588 1.5004130154046544
Ni 1.1601992778532388 3.2283063277916617 8.485067695483817 1.366665257395827 -0.029689556644632742 -0.9229393887251008
Ni 8.738127438891013 4.186489307539064 11.508374433797007 1.9856696563293157 1.612073968816772 -1.6726368180014934
Ni 5.468492946212389 4.49945648630513 13.679420608475919 2.691791772117919 -0.4480273242595574 1.278822746559546
Ni 0.2618680503925817 5.841626156299393 1.209172067896275 -1.326678432590244 -1.059939078012323 0.5355821286520905
Ni 4.529997235694081 3.0215239362243236 5.126778201735956 0.667052146370335 -3.1172435250698056 2.3597052595927552
Ni 1.8483759846499346 0.6375862763193996 6.823590526748365 -0.0944453608647793 -0.21087468219981745 0.5481946752097785
Ni 3.4868456630082596 8.888150848126724 0.97118828032156 -1.1345249809490139 0.47299607838975316 -0.26608295194084497
Ni 6.166843610932844 2.023352960444478 1.0794078591050398 0.6511272476099625 -0.8718538829031952 -0.041883270497347226
Ni 3.8563358788850874 7.466146753200095 3.448903783931171 0.20366402338399117 0.26754822363246183 -0.5189144381884224
Ni 8.734673200857529 1.9967005882954065 1.3302903000140807 -1.772735006276676 0.3493301300969596 2.2018703787277367
Ni 5.647688622556024 4.861500271011414 8.181219327613796 0.8010660135563558 0.8819724593944358 -2.1218406790676556
Ni 2.3141884774932735 3.432946336753533 4.062015934380538 -1.648449936342645 -5.1327132954796895 1.0722770307523857
Ni 8.15065215236011 4.62692353242601 13.6365031165812 -0.6050967877134611 0.1379743944956656 -0.3349928875386811
Ni 9.60617934426744 1.6093068490592344 10.031219559164176 -1.6217189481057037 -0.3628721304474525 -0.3469001804992284
Ni 8.218113609910239 7.376761265727057 8.642151529508734 0.6268398358175076 0.5444753173766622 0.29565449495037466
Ni 3.9321120460185495 4.626196821145741 12.305035921805437 -2.7234325389516516 0.13442087281645237 -2.7531064118670003
Ni 5.019677947080267 7.3317712310122465 5.9824911158419525 0.09566020710848687 0.05494678854952472 -2.807888392703887
Ni 8.793725570735978 3.5154327859684362 7.279452737737325 -1.6549149752416983 -0.461950876319185 -0.3687638133415391
Ni 3.8294003724709755 2.6591120769734884 0.7695494945691098 -0.06259787733687928 0.8744676663769585 0.4476460296607388
P 3.854722013574361 1.3741544041349167 9.546957093829967 1.4240610217064764 1.123966231596561 1.1078916946322017
P 8.716448791997806 0.7268528474011209 13.554728278152428 1.3464782409249907 -2.1292719385347203 -0.10153929159708318
P 5.853338477063203 1.3856685309131984 5.84647247113599 -0.5590820115462436 0.09424070105314093 0.6622282426191305
P 5.864758225753139 8.904289501233988 1.5683769597050932 1.0061760253582543 -0.7400444795676611 -0.6814143286292781
P 2.5231981919455904 4.567720157606205 2.319648249904122 -1.1492363190172594 1.0456339742435605 -2.2553812061616836
P 1.9146860295222359 9.23123407488418 3.2489996674425305 0.9507450980834593 0.44108637416534996 -3.3790072808100065
P 2.1974616578262336 8.221605599179062 12.682771007480222 1.0671206833624267 0.3956758072410347 1.8177305971507598
P 0.4254205585927729 8.826823966319122 9.580329185869314 -1.2469714063769042 -1.1315849244840834 1.3172759083294217
Ni 0.3531769633061228 7.942104890540691 13.907807088246672 -0.4407516165337506 0.6267277357196755 -1.2031358972491926
Ni 3.968655241826342 0.49058862859608054 4.849671865198937 0.7799886240607663 1.037077085812485 -0.5933987825502425
Ni 9.354152097146756 8.146188068781317 6.514726907263608 -0.12276246264191762 -0.18263702751036287 -0.8725290545933488
Ni 5.96600703893134 7.29489771189524 7.855061867220414 0.33740509652459955 -1.0180830612084852 2.1842117851057092
Ni 1.6207832246021774 0.719816960914884 11.689284960005901 -1.1405562747447582 -1.0595922361958654 -0.33799413625885016
Ni 0.6328579340932364 3.4135893908336508 0.3720591874416213 1.9063863479169556 1.5096417330917742 -1.0831404558294508
Ni 2.578834075025895 5.013637749426086 0.2588772087728789 1.1855361818895582 -1.683529296544281 2.2728461957156663
Ni 2.2643002199932756 1.7610856907381907 2.3569304261436685 -0.022520806810335407 0.03741829274745814 0.8823861498930867
Ni 3.422659125123756 1.0594506685432736 12.88165395305295 1.2300280936543462 0.5220303581095848 0.5826788250295772
Ni 6.522979327308633 3.4829384101507115 6.486990130879434 0.16287012929608077 0.020698151779299838 -0.5397683988192962
Ni 2.2178662005267626 2.744684689677325 10.40909338062883 1.5013365556601885 0.03193310126317082 0.5802247070621297
Ni 2.2482748205920275 7.706452241748136 10.660382591098644 0.5884972314835671 -0.9811417080974457 -0.7793805581631222
Ni 9.18196871276727 9.472539971168693 4.094574487298338 -1.2526995671099328 -0.3085506341867525 1.9068185503583674
Ni 7.2080226815722215 6.769457142834538 10.912404175534027 -0.395266487617758 -0.5123514402589241 -0.32776191700788065
Ni 5.792634490638688 4.184073228477391 11.097459787383102 2.1329241905753267 0.3478378618221493 0.3016893882905449
Ni 3.389692858864299 6.6529096415353575 7.786963357573946 -0.2635054210216558 -0.00032781565306395157 0.44389376170715816
Ni 4.575223215629758 0.6999494295370472 2.497216848004663 -0.7969856728393951 2.2300386136318364 1.6173442160767761
Ni 8.431606283559018 2.4762922820373445 3.8595013199682313 -0.27232970418150515 -0.20713938352710132 0.5871849404300468
Ni 4.089544135189466 4.496502452139882 9.535919576397834 -2.640767201440936 0.27839725053182374 1.8001090274142546
Ni 5.798438743072003 2.092248964937476 9.972070923635613 -2.5477835127233477 -0.4623545395155069 1.658429159042544
Ni 4.4008785730271365 -0.3170008982619984 11.185545688579607 -0.799112746484727 0.16959047873904987 -1.4268403842238266
Ni 7.1103319223246855 7.5591091702214674 0.06625813692371056 0.1502735235779928 -0.18186672500324164 -0.955055038312723
Ni 5.2107747003644045 5.483197052376784 1.9469001024175712 0.04591964535024995 -0.2822857869529526 0.01949487549981804
Ni 7.663255390711909 4.775399141012836 9.230620617309928 0.8240010250859745 1.8170181444647673 -0.5361308020667089
P 7.500745760387948 8.528608082761625 5.074052938900261 -0.37427523007807156 -0.6065535747646457 -0.5289126870517149
P 1.2223472490294562 6.168089401699019 6.294821242511679 -0.3898913393487737 1.348726156418903 -0.4273091178755996
P 2.3509015538600897 2.705980235646396 6.5201970612641755 -1.3395799711432606 0.2077587622786551 -1.0934932598186846
P 8.76961196916343 6.440530629329067 12.240790869506158 0.10207330972368228 0.15823880117165653 1.7635566822115176
P 7.405603209525769 5.817984445168577 1.3396176864853722 -0.9108516043226312 2.1005887116674145 1.5873975491160144
P 1.7994975726952454 3.6835862259755228 12.255640317926607 -0.19197270308899195 0.5121722343685825 1.2502228234346662
P 8.139553289170552 4.587209232849772 4.555975748292358 -0.8219359150268296 0.18965279670656368 0.0845972644261059
P 4.6962631139342355 7.289603101138999 10.04728459736253 0.6107028210463289 -0.19472429769220012 -0.8948161481263236
