# total energy = -381160.93099361163 ev
CRYSTAL
PRIMVEC
9.34526474295255 0.00000000000000 0.00000000000000

0.00000000000000 9.34526474295255 0.00000000000000

0.00000000000000 0.00000000000000 13.67773958515501

PRIMCOORD
 96 1
Ni 5.118653818563727 2.764254547065604 10.23436855136769 0.11164346991062063 1.8414117428177836 -1.382694800054864
Ni 5.688574788545322 2.1157772817053866 2.883691703035921 1.2484428487161081 -1.2927689243269929 -0.056605664309186385
Ni 1.4403576181086044 5.688387883250583 6.291855550058331 0.35145566108039467 -1.7749088739995431 0.3870075900430754
Ni 6.4602039526087855 7.433606727607274 11.582775306150232 -1.5690681546792073 -0.325781139132426 -1.1976507057649053
Ni 8.614848190355058 6.056553932826625 1.3682112398130415 -1.0021257665482806 -0.5455582660281959 -0.9607117223778681
Ni 3.6139540527413687 0.726432660216255 3.5590711819943346 -1.047856435816176 2.265743266122298 0.2730210738215749
Ni 8.928381822279015 8.615754681034542 5.581994847800072 0.18486977349562356 0.5603061137613318 -0.057325316084030305
Ni 5.576926910733235 7.614129206530526 8.834834787735884 -1.7285637110761003 0.8627773745232238 0.5278487645635748
Ni 3.89625580991451 4.69859351390352 5.289646931034732 0.47919912187667146 -1.3000898834684382 1.8656276779423546
Ni 2.9116293719669692 2.2809174548716533 1.6601900186212724 -0.018192354638310603 -0.2002735096452035 0.2592718425562825
Ni 6.6470438304942 2.960477070746895 12.64730001949262 0.014052364328008058 2.4009107872967874 -1.0393298864024036
Ni 6.624671266713992 0.1815233567765761 9.8933691863819 0.5328140789886501 0.12899173138108108 -0.02956023015562006
Ni 0.7351340362128093 2.9047792929148004 8.782749889251088 -0.9853971409396901 1.156113762863383 -0.3916967679886286
Ni 0.9793557086359134 2.1797456188296636 11.371946133685123 2.3188668854201544 0.8470165121445412 0.26986555891172875
Ni 0.9772717145995783 4.270898127953243 1.8357305369132666 -1.017274449264261 0.5619665321828903 -0.11629690952223196
Ni 7.38798314516159 1.839484529758091 7.749465461397779 1.1380013695333886 1.2039401383180426 0.08083034118450595
Ni 8.843975391175075 3.9576074729124464 12.896357866417086 -0.8619381664513801 -4.243030354814874 -0.06689341938843964
Ni 8.65887373253073 3.132869169349018 5.739535451682268 0.6173398667468722 -0.12133241506361038 0.21684324107842654
Ni 2.553574898836284 7.440148412923125 12.71247389576796 -1.576729270768891 0.03168961779379703 0.7133240328536812
Ni 5.280495113277858 1.1213663515782815 11.542124339071066 -0.6150073619589538 -2.1035364814418287 1.3433839182703833
Ni 7.2035076192546175 4.32071773426581 7.209440927836093 0.447490735029797 0.07147152567742529 -0.316725456688061
Ni 4.8973859853874675 0.10084381724972355 1.929600917616294 1.8599985046810352 1.0542448558410231 -2.5608359750319316
Ni 0.04636185835990311 2.934945807485606 3.4381593432485302 1.993650360541947 2.0991239541964304 1.782688517944962
Ni 5.410571853151168 0.7332098462034755 7.919452088856617 -2.1198465314557624 -0.6135071232643434 0.08814153013393852
P 6.6271851429282265 8.602465714578628 3.009963985634827 0.6546206054752016 -0.9874583943440928 1.8139197080451017
Ni 0.028246997193840585 5.343706483958444 8.383989311979288 1.8560238363040036 -1.4407204846400283 0.20923046172817517
P 4.686472705539724 1.30061787449731 5.735417928039177 -2.119658583814672 -0.06556570171595161 0.4739180759833903
Ni 5.1062619975225605 5.968942075917918 3.9074430263310873 0.19044135404613008 0.01002344567427306 -0.8317009648333934
P 1.2991226321394016 3.5476680899623343 6.616360522783442 -0.5273821093398015 -0.49151702001207614 0.36588032114615693
P 3.007212739696276 6.994837202943737 3.43903499455438 0.03691049987310418 -1.102038064064902 -1.6260348018722384
P 0.9755615311527204 4.262833164485274 10.579048081606883 -0.29458645869717653 0.301865508857093 -0.6177263035520135
Ni 1.855436896664028 7.913196368641716 7.095997824668042 -0.5544434843329678 -0.38899171035263974 1.3840579989509776
Ni 2.4074429941449305 1.5082042400987066 9.004247615939876 1.5517885416631534 -1.7854200579435122 1.080731332167326
Ni 3.098076748733433 4.0635173581760595 11.175014304410299 -0.4710268704785243 0.26636962994332836 -1.8880644096793162
Ni 3.227611463252001 4.95372858648641 1.7114955220270107 0.9105137613672384 -0.011642469334934787 -0.18069764439580493
Ni 2.5937782277345516 0.3448421378456152 11.715366856764252 1.294988557686131 0.22801982652053632 -1.4483684881035894
Ni 3.7584505361037603 3.004680172952568 13.001826655185114 2.845698264462809 -1.471529499601085 0.4998779903822617
Ni 5.734805813198908 6.2884660225382465 6.7287233133479045 -0.12340806664571649 -1.7393839416200558 0.6743476515904838
Ni 4.715153323017359 8.287156482354655 12.929662520886552 2.4002831810151175 -1.2821968052381014 -1.3419554133539726
Ni 8.284081890256205 7.721235285680466 10.203470302567982 0.5351252436203301 0.632221411844395 -0.6373304509361863
Ni 3.836773199863959 7.5747202251348975 1.323138093460361 -0.35601654097819974 -1.8014614276770908 0.38212018004378706
Ni 5.170921884237369 5.258169275821336 9.98005866566107 1.2142250651838185 -0.9781623137541476 -0.8718608248817308
Ni 4.6946030858608525 8.273858170634005 3.749971577407945 0.20508841453534354 -2.292334386347265 2.2729279567961953
Ni 4.703041859918299 8.251700547942749 6.182201951741105 -1.3302448097852637 0.7388643432166307 0.8967753287352234
Ni 7.396655550837459 8.866815218192128 7.488138216400201 0.9358568681177173 -1.8929340790667917 1.195516690141038
Ni 6.909150470570839 4.861883324651876 2.636069288775048 0.05605467690172282 -0.1472159676985916 -0.7728766956063334
Ni 6.6341099840982904 7.4281397477361715 0.8659060637825468 -0.21222888223486677 0.7588891230779897 0.3596963038226321
Ni 7.807903270850742 1.506316496621847 3.8367292771196957 0.15369643321661272 -2.013806780885164 -0.43745083429529175
Ni 8.098699873669752 3.0198942639442876 1.5864670941645895 -1.0451606341515676 -0.08114247310828605 -1.2979193581796808
Ni 2.482990114278262 -0.13847813287180896 5.415249158152001 0.7145285946847436 1.60267273010753 -0.6653667882481121
Ni 8.386038728536096 6.2536081850695036 6.047352585166645 0.029319832010039827 -0.5074002669012357 0.3418410208087661
Ni 0.5456485138803698 5.633521833980076 13.194751234940743 3.2588051226960975 2.465026386829774 -0.4033958015931117
Ni 8.226533750006197 2.0088954889091335 11.172059331700483 -3.224453384689105 0.5205360329522455 -3.179805664072743
Ni 1.756152804098898 3.4890919705912653 -0.11946332271158021 -1.2155463550984034 0.3976982369877022 -0.27507589946807465
Ni 3.12735546315423 2.468280667582336 6.961846549369431 0.4150146167789627 -0.5730616136547874 -1.0634177805895428
Ni 3.438113551451319 0.30422201014008105 0.13579977999820522 -1.345542616484599 2.2601074079927588 1.716236042748683
P 7.119811428270684 3.686024734392563 9.319026971653265 -0.7480807196085761 -0.4104743057064479 -0.5970420357297846
Ni 1.5825738568751848 6.706629238456857 1.201716937786394 0.3245506091594346 -0.5369535550783204 1.339028469515165
P 3.6558395292922836 8.826938973559654 9.847671776344793 0.21651311143251742 0.5958367025677739 -0.1646493326836906
Ni 6.608363779748052 0.5241740300413815 5.635584333907516 0.8048835875302331 -0.4376508661212399 -0.1963986000708295
P 6.918420973189871 4.998436332987877 4.713978623239927 0.9519925973373153 0.21868852181728143 1.8079503778355446
P 9.116576763551285 7.459951028900677 8.087948146589914 0.8185220042492741 1.248396825969521 -0.40157391789302455
P 7.026769972549823 9.193011683834625 12.910336513410583 -0.35667165806369544 -0.3867695058903403 0.07908147681419929
Ni 0.24730654431276436 1.1592520548217902 2.1392254854568145 0.5201053731727301 -0.4426953705236827 0.44537214602489744
Ni 1.8603244701214416 8.817855376235359 2.1556114726465454 1.9171952656070015 0.5857170976352687 1.1933765038695834
Ni 2.44380541923632 2.402835778629625 4.4526242769746105 -1.1502375065882642 0.5614736517068717 1.164187283900137
Ni 5.7363197460862905 1.4960367054112256 0.11827553956351658 -0.8368352007361652 -2.1367577053888036 2.172938269074419
Ni 5.440869201428291 3.6639792548781482 1.2878793441344025 -0.5451319771240548 0.09753248443053525 -1.0319569909771
Ni 8.954660706719258 5.7155358773113605 3.5759767659034387 0.45824925909788183 -1.39903056110041 1.7772508918691587
Ni 2.499746173951575 6.21378801202545 8.786183339515436 -0.8182129576492876 0.8182404684531133 0.011244205455251602
Ni 2.1412057470545696 4.671688496725903 3.9344704664767587 -1.2937446579767011 1.2064441356868192 -0.8555654301558168
Ni 1.4155833212910065 8.588204840590075 9.641575045942462 1.1017313314577606 -1.1257847728625388 -1.4687061712196772
Ni 0.7488968075908841 6.46073663269879 11.021604307541825 0.6539567466389575 -0.49540889886731454 -0.5999296416902249
Ni 5.282093153547874 5.7649162561812926 0.30704614914358086 -1.4198037890920192 -0.49762544690265914 -0.7206933287345589
Ni 6.302082073259952 2.6982863232876246 5.083030603913029 -0.761876744951404 2.632591350498363 1.0011258645288565
Ni 3.26716996888342 4.119598291862368 8.72094030828104 -0.026822262399166713 -1.1609152980170845 0.2654306630688268
Ni 7.7183756346709655 0.014453386442133875 1.5394706923290489 -0.16764518208722096 2.323704416018114 -1.8732414857338708
Ni 7.476034229512932 4.810718000217191 11.179897205235344 0.2544497385772908 0.7487147536481493 -2.2908002090909254
Ni 6.6627064941932925 7.602924234110949 5.150270718221704 1.0971668520155298 0.14555117840165901 -2.0891197917958664
Ni 1.3037485381841811 1.1099557833344915 0.14290685383063947 2.116634452276368 1.1413227205971375 -1.296735879394541
Ni 7.379637823751512 6.251935382681593 8.658009295542563 -1.8392257909100582 -0.6714358772603275 0.17919226349487205
Ni 9.078195761276719 7.848928983045859 2.785676697422066 -0.20471046237063456 1.0149085201352457 0.8848351256542115
Ni 8.337293827668276 7.235608603625967 12.743508585432826 0.5432054495253033 0.029966207344787103 -0.11949741873740065
Ni 5.303119999205963 3.1168233497957116 7.793466705885135 -0.2624445838573093 0.3247483269925375 0.1332242814051899
Ni 8.586064774965319 1.4443106650923252 13.175205613743458 -1.2138088035820063 -0.8598342327345 2.1449111877338733
Ni 1.4229754256979172 7.272625197248941 4.740567770469436 -1.2538737899236923 0.009670947430860765 -1.341791891192915
Ni 0.3165157059015107 8.528161514655308 0.4657651909091036 -0.6965789521848584 -0.7762181012747407 -0.5937034582748549
Ni 0.8863740626093679 0.9692534774552936 6.975346718808399 -0.33126633061671334 0.6082471604169848 -0.12777200004136702
P 0.7543843470444085 0.7780175870376275 4.421780230710378 -0.6004104379813854 0.21360005155078052 -0.5440855381374113
Ni 3.666502476357119 6.725534709019664 10.683682338233906 -0.023271568933430888 1.2293776045545408 0.8087662104140909
P 3.4571498557204428 5.511902558693685 12.644714184739911 0.4460246920072319 -0.017572718776440704 1.0283407343807514
Ni 8.97966863515528 0.7266606846758359 9.277528389062459 0.08906841282358209 -0.11183347443423966 -0.19861900476091598
P 7.195386584198227 5.263290480897172 13.174399117396659 -0.6222306191802703 0.8574497916627234 1.666277194332053
P 3.5283420824863656 6.19035943332997 6.907408513223874 0.37604337772208785 1.0256228212289562 0.059594314623865115
P 4.081217289587802 3.35550141117687 3.1423919941159486 -1.2709202038830176 1.671987614453269 0.6008210431562426
Ni 0.3972681384933113 9.058813682212328 11.544409256299245 -1.441599544810872 0.46393551084938167 1.9893769299775736
