# total energy = -340869.72502429347 ev
CRYSTAL
PRIMVEC
9.21384292541742 0.00000000000000 0.00000000000000
0.00000000000000 9.21384292541742 0.00000000000000
0.00000000000000 0.00000000000000 13.48539047086233
PRIMCOORD
 96 1
Ni 4.83313058470127 7.043070839777707 6.837780888361172 -3.324046351193094 1.5398763636065997 -0.29054057076257706
Ni 9.041958805995353 9.028773796593583 1.1545286251408013 -0.7922209044609002 -0.12033816947114115 0.2631539512195081
Ni 1.8749802049073776 0.8573324320885085 1.7477204474962258 0.9262674246570693 -0.17094005078840882 -0.31818404351145846
Ni 2.6506475819080437 6.905775364518612 2.2200192779867054 -0.2505630019283749 -0.06161160216421002 -1.4219475749078994
Ni 1.87245561191221 1.089067034437272 7.850128858658798 0.35404321930191285 0.5437096428552313 0.14335571341223696
Ni 6.8314380788068885 7.9139172154648 7.32445515677523 1.0986825173291077 1.64985221600681 -0.8439980370331917
Ni 2.273598696695461 2.361526400903067 3.43563291838321 0.07860916516347106 0.33810340814320483 0.9993322629635435
Ni 4.303353037124097 1.0006325688620223 3.7160884800014884 -1.0056782597862293 -0.06154809591612626 2.7032933449996155
Ni 6.17731050545314 1.3755714840166 1.4381629626106598 1.9864227324452561 0.903772843098979 1.8778494168195272
Ni 2.145728982874528 8.30112896955939 0.19925304145144868 1.7241848652821143 2.605390621713855 0.34154200151110853
Ni 8.736013147584625 4.557341834586833 1.3667980626662402 -0.0031825114930396805 -0.2172782717333161 0.2298998171520686
Ni 7.897516574839259 3.060553031429997 7.111412677818058 0.3964746489932462 0.32290176070210197 0.8718659670880533
Ni 8.568348845639134 3.4217817481290655 4.982581883093666 2.505944465200374 -0.6051536090933255 -1.5733806660116323
Ni 4.973125715973446 0.37491127362543336 13.343497637423287 0.07603960466408194 -0.24645746440043356 0.7629170132904604
Ni 2.601593081520189 6.167737322526209 12.93238148892482 1.8813659146132178 -0.9788207732737528 0.29319034968059826
Ni 5.743126579499557 3.0015844359224326 12.910724350840363 -0.07951162237308243 0.0702188842172468 -0.019710333944733798
Ni 3.2673208832714407 1.897793680294366 12.434123577030745 0.030379383622805744 -0.4827331031718589 0.19349685304300224
Ni 5.720617160933155 4.55427362485183 1.3879972727512093 0.40567534165590774 0.904236670109275 -0.2727606210713367
Ni 8.183799892185434 8.180538191746422 5.2746625504856794 0.2913340131981499 -1.9858010397008574 -1.8714175451512545
Ni 1.1156858270031083 7.6192124455727015 11.741527287567054 -2.6666816073138526 -1.8317827043684516 -0.6245289282961438
Ni 4.170305143510157 8.066314179479662 11.9913578776622 -1.5924122287217866 -0.945955647114616 -2.0889210455214995
Ni 5.9687090988451335 6.9474035074097324 4.750727500785279 0.46382958139913666 1.5594892527415207 -0.14552726714225905
Ni 8.696209345617019 7.89201591053957 9.339617533968658 -0.762404592430416 -3.346144725754031 -0.0829360746735991
Ni 8.836149193830906 0.36388322488121416 10.80309276620094 0.03354646849687771 0.6010143901139713 1.1043605415504916
P 8.311236555383108 7.973613704573161 12.803420856086998 -0.81819753103032 0.4380509297731359 -0.5655588775198389
P 4.072242211949687 1.889482793865019 1.1267083474414987 -0.9288431558040454 0.625441155697768 0.491624749234534
P 6.698767952757919 4.68983689761789 11.6321746341198 -0.570695941636088 0.2854950379188696 -0.38509597484265934
P 1.5818417883334486 5.867771448253671 4.581958459058326 -1.2623661436654194 -1.539480670830078 0.46653515325575784
P 0.258167275285029 5.806600744257621 8.720853611617658 1.2310305667769315 1.2227611276792876 -1.193919263746931
P 8.366104990734287 7.951012147576277 2.9816466009507425 -0.46159323586945017 0.6645926290862489 0.31964982942370757
P 8.947830185416404 2.5097771355463028 9.584215582596814 -0.4940724394440781 0.1720422827136521 -0.033934190853599625
P 4.377966738127262 7.361307764814542 0.6536180478331907 -0.5910732197408595 1.1420822244709814 0.028573183652002405
Ni 5.981571623740221 2.4238580491231723 5.6384711432382035 -0.2911514648736986 -0.8944924462383175 -0.5013239788001689
Ni 0.9117724237379524 4.248235828010621 3.1663288710059945 0.3424894530260424 0.5212837097515475 1.0946983358703792
Ni 6.3507703146758585 7.583333740743568 10.87950040244556 -0.01070324535011705 0.9474039495253685 0.17628306026787705
Ni 8.582906717655064 4.339204100424086 12.591497859060166 0.9614655698247571 -0.6431714830979955 -0.23134452001839512
Ni 0.6610416411770101 1.429085484439714 12.88928281668323 0.4626353039807194 -0.9457784981068035 0.08852642427718302
Ni 1.21027513973446 -0.18551612285110072 5.470281652238974 -0.0982379951379921 1.0837030132011403 -0.9843213913770081
Ni 3.1683365674061656 7.146275095758992 4.387984028289109 1.7930420932651443 0.5657113439373032 1.7225866675570591
Ni 5.096950552696282 5.9935864750748875 12.76493371229096 1.017862460557247 -1.2862511778131334 -0.2451289753969972
Ni 4.304919390442267 5.309292779581801 8.388789472318603 -0.3749131207723866 0.6591030667265874 0.8047360062087754
Ni 5.069723646489274 2.918724345391258 2.94128536147873 0.530790363690402 0.7134839554703132 0.21775906802447656
Ni 3.4936497239039093 4.59728384420016 3.1701996064704834 -1.2234987771762607 0.9213959554973811 -0.7960688174520806
Ni 5.181920613285462 0.9475147636899746 7.685270171921441 -0.7001422440560845 -1.1844627463197215 -0.6672529495272315
Ni 7.6251922297108905 0.8185661088481141 6.1727625525246195 0.07355411923806687 1.1410386136978157 0.48864586911186814
Ni 8.05356222070115 4.5127376203911895 9.423927883395598 -1.3145006595771298 -1.7244612588719528 0.49581256206363644
Ni 8.938118794843753 5.262108689332702 6.514091211008496 0.6123467844076551 0.28695388185258325 0.4802352764506697
Ni 1.3293364196014505 3.076916816683346 1.061867769759408 -0.29648881792621196 -1.0739513331310149 -0.34930673305819193
Ni 1.6544192300229925 8.404867628437461 9.541103089590651 1.0031619211222789 0.5331508935027787 -0.8423743853868395
Ni 1.5916821727087735 1.78274042215328 10.166744224392723 0.8708280127418423 0.39784016188220517 0.025470119246646456
Ni 8.583201560632602 5.974919229059524 4.2398604446799375 1.484983825333778 0.26971052139110324 1.6341641158475921
Ni 6.6809483803029766 4.351725713126395 4.476542880745508 -1.9160182145797646 1.9871788938849908 -0.9502565884828151
Ni 4.333463876205148 5.033900224718429 5.365850112363687 0.024009732651036068 0.7744448114244017 0.08900953456118864
Ni 6.3938818862977165 6.305244716175411 8.860413849497965 0.3053359839041967 -0.44373563886273903 1.271766868154029
Ni 4.544801794198428 8.588011186703689 2.3990645188651563 -0.8329312376960687 -1.7341597171066392 -0.863525565543158
Ni 6.484168334325626 8.118197329683268 1.26767277500233 1.4511771611969781 -0.3751121241570701 -0.5709332544578748
P 6.976242836150151 -0.16390597536618814 9.129541912472963 -1.7959474398373974 0.4520531575894989 0.37445366463746477
P 1.1839972593614019 5.4521810575710665 11.577383595050225 -0.36389928616038614 -0.8267834729271181 -1.478359378038725
P 1.8498724826014226 5.117331573518584 1.2026313355417921 -0.19772246108857558 0.08311605189488912 1.3235622555587656
P 6.290014233616972 4.050359334710553 8.151365321887663 -0.5264122892273644 1.8295882678202942 -0.4541318944953985
P 5.3423059792229886 5.751723095063395 3.2243567331383516 -0.4777094247050224 -1.3847051456166735 -0.9525050181973596
P 5.015426469407076 8.93514272353923 5.561307971863641 1.4130592712793342 0.051030484214254046 -0.04265125901162332
P 2.3309180142974224 8.914485287425485 3.5119871143381522 0.14623586317350942 1.3070370042102328 -0.1378278416154723
P 3.6061691752067797 2.3999665540995605 8.91904890388719 -1.1438585996451138 -0.1349212094916386 -0.6699631493695429
Ni 0.5195529459467443 6.78875955780829 0.5757021054816027 -1.1965896114902423 -1.317186691049725 0.7232320359960125
Ni 1.4629095022691307 3.4170458328023647 11.965061569603048 0.965870383760672 -0.030356243694354173 0.0961515449226086
Ni 7.6319091212929235 2.541094988066648 11.3207697737031 -0.3649189856741522 1.7442029602752542 -2.0143878501996144
Ni 7.41778862269913 1.0123802187482949 12.797015392399988 -0.5415005510190545 -3.1076160292823705 1.4459110277020324
Ni 4.513603721637707 3.4797460347443914 7.104063716602929 -1.7496238741805095 -1.7590456817150415 0.4325130306740422
Ni 2.084438498918854 5.832252083303412 7.49387193166846 0.44757095344842923 0.7196813425302766 -0.08596971929360032
Ni 7.365794906378946 6.054554474523879 13.50899023656235 -0.6122315989860294 1.0970706927572977 -0.15866688984801064
Ni 3.53746154759742 3.971765253510627 0.4539614400562371 0.33960493238939576 -0.5542277687777358 1.6866567864296693
Ni 6.599636215403875 9.228677335364225 3.6803111274458833 0.07305892476920321 0.5694106471657613 0.23477257186333764
Ni 7.466152084858382 6.019302311022014 2.4044583025854886 -2.303690434790033 1.1262159468626862 -0.430079224421569
Ni 2.536819764892349 4.380463689593285 9.879288906210835 -0.3015760026411322 0.41912246829974914 -0.05815603951544177
Ni 3.923917766562068 7.680677992546289 9.059215412640059 0.35694599477100464 -0.3186021048854836 -0.2004534868664935
Ni 8.355214228251484 6.123483234366392 11.134968021717508 -0.13244060916163 1.3603603982237218 -0.5090447444831944
Ni 1.8653333112360617 4.026080858278923 5.763440339267609 0.37187947615238537 -0.7548422067021258 -0.721169497040029
Ni 3.2267707600169424 0.9330950993197656 6.040780700551339 1.1601632503424084 0.19899695692562502 -0.7210568827215647
Ni 8.829395446876681 0.7944608526657878 8.29244952940812 -0.6163528202432547 0.343418392598215 -0.6452769594767725
Ni 1.1546327415672446 3.5800939993807788 8.095010693652833 -0.9747633153749279 -0.509593932118445 0.03706245206993617
Ni 5.015619960111084 3.6277019264100883 10.021924724900584 1.8572211990462144 -0.48183167440351204 -0.8161434767147686
Ni 6.672840198420686 2.1270248814869728 8.929445804382617 1.2531014305340418 -1.0144724610390916 1.781104975507926
Ni 6.5173658108277746 5.649642927933972 6.607139969182212 1.2879779306962527 -2.43912972156867 -0.14864087307057627
Ni 3.7319657743418997 0.6005039281983622 10.178449490600974 0.5392037845650779 -0.004306083574521616 0.07004919140860194
Ni 3.899703787031775 4.199936862752708 11.772125538945346 -1.343447424518467 0.8693370300186125 0.23062898200860926
Ni 0.2851205303535097 7.632323744230087 7.097644432151347 -0.6742764320329162 -0.5507822334312965 1.0492707996651993
Ni 8.920511140778915 1.2577172175889049 3.160867826231411 0.061257561258900944 -0.05649047888756077 0.20369461951161047
P 5.418357039741649 1.2429934963981097 11.434100964578503 0.6360904078814981 0.36411551593625036 -0.21242582873702126
P 3.85780844269226 2.8768934979530796 5.039032335296197 -0.6752627072055853 0.5129589919359359 -0.8809579020869924
P 4.418074596915453 6.144702714906067 10.592234889430463 -0.07495331357843865 0.10956576144598551 -0.5573316045140402
P 7.082395521906814 2.320137817931196 3.755815807071795 0.15441634210177277 -1.0194388039054314 -0.8201711098169229
P 2.0523190420533277 0.13511640137822972 11.59275689217591 1.5971482007448754 2.156382935818899 -0.1234754295485422
P 2.3462774906585335 8.226017721031631 7.244823596848093 1.1702936539081907 -0.5933681864226232 0.8203145773733228
P 8.302815102837185 2.6517900984460026 0.40509858760378203 -0.3379565981526954 -0.9749834018055339 0.6281313009354216
P 0.522005670966137 2.049582530668055 6.139480308666429 0.8186492738557579 -0.9727941074636989 0.7552008755931252
