# total energy = -340868.1913689297 ev
CRYSTAL
PRIMVEC
9.22043644550936 0.00000000000000 0.00000000000000

0.00000000000000 9.22043644550936 0.00000000000000

0.00000000000000 0.00000000000000 13.49504075400149

PRIMCOORD
 96 1
Ni 5.272513038295793 6.028146258217162 2.096576066786811 2.174201709167875 -1.7037613073204398 0.13644433100438438
Ni 7.343275570788238 3.3251752700783803 10.282061068958907 -1.8794974939459113 -1.4140175214275454 1.521940090843153
Ni 8.35738528980732 1.5199428706796436 6.650382811684847 0.17453573855946716 1.5848048486881738 -0.6139917762102457
Ni 2.719097531745314 0.6188784704593945 9.588320951732335 0.1820842403306864 2.6818835118652715 -0.19956002851794663
Ni 2.507912651948859 9.06850224184285 0.9070327888288873 -0.09838969022450797 -0.41317782068054004 0.33420150198563736
Ni 6.614344735249096 5.186338837868895 8.742060982551823 -0.8779227148050943 -0.022948638376373384 0.14194392066637487
Ni 6.755694028266894 7.4842744872153855 8.410878574763098 -0.9351657555879637 1.2812735220928837 -0.5321036831851867
Ni 8.327925994882866 7.685233902826796 12.276465477824631 1.914295061241071 -2.1434533722414244 -3.3723298687898304
Ni 1.643229328405735 3.671485648190284 2.2363707941945115 -1.1200309010978968 2.2539830402625762 1.3651413645521326
Ni 5.078551934060802 2.8383730995521135 0.46305493607308107 -0.47674011881321765 0.17338825521858525 -0.4539346908829279
Ni 2.620097704013279 3.7987553345258784 6.897855641748806 0.9658449298393753 -0.12231457647122161 0.6445771051962705
Ni 3.394808007251923 3.453800360593598 11.428410289638865 -0.5447576245037714 -0.679484715706733 0.8482611831849197
Ni 0.23216413918349937 8.599006830807411 3.374110893224718 -2.404186629834582 0.1804726728691924 -1.0071216771009752
Ni 2.1278646963319248 3.182673422486073 13.523110919622034 1.8753937561901832 0.1051213525213867 -1.4886643595091587
Ni 2.900398976533896 8.629120776730186 7.373460514072802 0.5081553998997055 -0.16364711667142137 -0.9357712503824465
Ni 4.649497357935741 5.0876156232347425 4.195756906912012 -1.1436763084309787 -0.17571381802796834 -0.22053585943866535
Ni 7.373896640723796 0.14136127958537306 -0.3163347387380704 -1.3404626308585301 3.1012939437190847 2.842436305882085
Ni 3.467879967275801 8.193353722763183 12.02845417426346 0.8863235372742801 -1.0097138633081835 -1.8069975270039718
Ni 6.089711113369142 5.0263273811806455 13.332358527322478 -0.0653381590861778 0.09194316326821585 -1.2089483901659115
Ni 7.589369023537425 4.798324425032954 1.4596504357779228 -1.1565577923793373 0.5888224760334698 1.2405878714480636
Ni 6.438197514517719 1.2668879883004218 2.3354250225024633 0.558918746495502 1.2059348001505683 -1.8523625854023325
Ni 8.393750691742232 2.458085412583681 12.203052361646698 -1.0053041642762623 0.5309238039444727 0.8605906512845501
Ni 8.341221864454404 2.733933214228395 3.208864072637218 -0.41814056400245403 -0.25818092348494887 -0.44333274699736547
Ni 1.883135868198957 3.7970495537556053 9.69598430169004 0.15880033010208133 -0.164532090379536 -1.3685884425604689
P 8.200582545054504 9.071581867665937 9.214926463163128 0.6544043756993375 -0.8849857922994631 -1.4388692903639027
P 3.648176384475412 8.524782316209023 5.069169217780639 -0.6689732746524479 -0.6251105118312267 1.0255901682188078
P 1.2715258679082466 2.0390903327849346 11.430542976623537 0.009314592532706539 1.034186137417935 -0.36580884447827317
P 0.6316496971886151 7.135041230702527 6.461209880174197 -0.5977933120735125 1.7105994132881956 1.306013448041725
P 1.896431737770494 2.0902360945833514 8.043651636233003 0.5663361220054957 -0.6522917002317089 0.026223709583219353
P 3.570964448419897 7.91240701968084 9.73587559857929 0.17403205945017125 -0.8018699975148899 -0.6442755147954518
P 8.438027228276574 5.510169791559573 12.958909638177353 0.05252840891601921 -0.4814588644451257 0.7039544187133231
P 4.268914616996234 4.588790003387197 8.745703977050933 -0.43008282396599473 0.4658283569967203 -0.014259081022175442
Ni -0.0831415988304493 5.425194247890165 3.061093667573915 1.7759195746522447 0.01512554278752879 0.01671448454120347
Ni 8.251451693755039 6.845620946388394 4.781873322058241 -0.17360422788413327 0.8260393956722419 0.45418614477210173
Ni 3.2901099497035147 5.893822937885572 5.865741176188573 -0.17720274386866902 0.5817100333584045 0.13213027701006277
Ni 3.5118891111488577 5.867738322755281 10.993694365443815 -1.11030390361812 0.21688180762584583 -1.8174678304076761
Ni 0.8531273503572661 6.166249957553143 10.334974388452789 1.5694846733913357 -0.9490736239183075 1.7218238212491057
Ni 4.069919154379788 1.633861364824125 7.492216971299243 0.35311479395037254 -0.01460772261084581 -0.40622375796021004
Ni 5.564902303193862 6.771691485761081 10.299010075509806 -0.18830219621594024 0.7902596669694713 -0.10402477702309826
Ni 7.270922804818854 0.2920342780891202 4.328615099868487 0.9013968866676347 0.7961639482690481 -0.2719597224365961
Ni 4.973291429880034 0.5709414205964113 10.26220946896756 0.06639025449977598 -2.1218255095590037 2.365218218991185
Ni 2.122184907388744 5.804854945170065 12.947533463505117 -1.5290047109994183 0.2811814981451803 0.07303192818600972
Ni 7.764612641482387 8.641217989544234 6.408228329449503 1.0042006467994382 -1.9612632024604932 1.210763074777147
Ni 6.209263294273824 0.6455716344050257 8.356291746027026 0.9662768751704713 -0.07918997736760555 0.06437193851816655
Ni 0.7924882270395327 0.22736305784792418 7.802130597991808 -1.19841612317602 -0.15162412406861628 0.007455170726464581
Ni 5.322303395914587 4.250399980311319 6.728627436639122 -0.990853793178887 0.07759460785602766 -0.09971509390415084
Ni 3.6650036812632445 2.7444998345674945 5.0153375428017855 0.03151735388199088 0.9394319870634854 0.7505674905861719
Ni 8.767454986981068 6.59393068862539 8.613480150132267 -0.2808421125278905 0.6116559289882176 -1.6479891946561425
Ni 6.923662721737555 5.0306978681271834 3.9764893923954405 0.7549759040665127 0.2654656300718202 -0.5295282091485268
Ni 5.463920081593671 8.455380089950383 6.339943620106305 -1.084116703699791 0.8507762362972895 1.3889886034833756
Ni 1.6439393020236328 5.728159353563929 7.942479473638932 0.7307517414118254 0.9076202418695272 0.22491547656359973
Ni 7.705223809367081 5.000491717838449 6.58552626066807 0.27138868042447456 0.5077059710671127 0.033750614087883817
Ni -0.03846858352247591 7.896741497904112 0.8521416856851458 1.2858251460193082 0.24392647044846374 0.9846438077134333
Ni 2.9084207563724793 1.0770207579140878 12.248476842537253 -0.2740744547867538 1.1304076163465306 -0.07279358692295851
Ni 4.211028716046088 6.860742462405953 7.779688977360626 1.3940325936651863 -1.9171258458216465 1.6841355626697125
Ni 4.279186183364259 7.194826541591464 0.40336275159376445 0.3318286308780866 0.056180146735993565 -0.14262603433506404
P 6.030820184830024 6.266457662479263 5.903284027876802 -0.46648861628853855 -0.32662240408679877 0.33821859356483047
P 5.062858750974287 8.833888232655774 2.0229204531264013 -0.04420986174799482 -0.25058999851156843 -1.5862456948997585
P 4.077175637980897 5.030347491536533 12.894579574090212 -0.18312116623563301 -0.8118031974682018 0.460011236094311
P 6.0958795854519146 1.6330868481500547 6.442289544279055 0.018440980314006948 0.41176139994898764 -0.9827527613383076
P 1.4729186440396718 7.289584968489305 2.211891457075597 1.2709639126367593 -0.9794949165226422 -0.5422744530706016
P 0.2856186983055726 0.8780068544244496 4.828538873714626 -0.02798542946933245 0.8291938821408237 0.4661767414750746
P 7.433506763317408 7.530939116828111 2.651586417032527 0.8454831062191503 -0.15545223956545487 1.2094019327635623
P 2.21827107715642 1.8711861823704463 1.7235596161180415 1.0816304469428275 -3.2143998571078445 -0.5959565159750898
Ni 0.6384995595358377 4.212172050184001 11.613966965916536 -0.4616184326804308 0.003103578625988203 1.1809362212237016
Ni 5.834406444460479 2.9816310229452987 4.57114854204793 1.7762041957721992 -1.3366049476753368 -0.005500360992938914
Ni 7.148208014161719 2.96333767673869 8.050669310526274 -0.600923630172378 -0.28885804085383154 -0.9297034469218117
Ni 2.3810763261332797 0.4093292961150833 3.737073379829129 -0.01434161343365272 0.7602595210629551 -1.514712462746462
Ni 1.3559850671282747 2.843886920636565 4.295835525725788 -0.9136592489747556 -0.6475421013618654 1.8601946798522413
Ni 4.879786982359259 0.7460421217741345 3.8326459712784042 -1.4752966799530012 -0.1063264285730814 1.7116283687733425
Ni 6.974190714284034 7.144344651227965 0.6206967405561401 -1.0913828983439011 -0.10540134565565074 -0.04195449005491485
Ni 0.9286915943930626 5.252347943460181 5.6487409670309745 -0.6414491010902501 -2.146235820082568 -0.363792842489509
Ni 1.0794641736120472 8.372875623288724 9.895117148811767 -1.3583243416302992 -0.5786709894217646 1.2128014453634146
Ni 2.835689952502656 5.468465756835535 1.7045719710357488 0.47289066316014045 0.5890505328838759 0.02734908143691419
Ni 2.2644746849393416 1.290787359957443 5.926454985042734 -1.4577350169201542 -0.9650417172117898 0.9529513617061588
Ni 7.678069623591647 5.5868469422925155 10.949403998254578 -0.5435296656339413 0.9643318356289585 0.6723769010173581
Ni 5.442482566507802 4.348717495735245 10.833319623553681 -0.19737047706579558 1.609860763215537 1.3540573388238293
Ni 9.267829640176753 3.612696144453723 0.7328181716080466 -1.1701787255968814 -0.2223528580427461 -1.1428741242446576
Ni 4.7956228371103045 2.621794264346956 9.541614830154927 0.062009608933577084 0.4217905020502155 -0.9915544187903376
Ni 4.88917338681406 0.4673129336931475 13.369834069823558 0.9200170728719832 -0.5065744285658308 0.42357330498225115
Ni 5.805168440014331 7.654299338046971 4.22748350719544 -0.2954297805340783 -1.162647450216843 -1.7505286453829658
Ni 7.395933484188411 0.7382102829294301 10.923237321238584 -0.7519510011972599 -0.7325687400159061 -0.39696161593199375
Ni 3.6493934821060927 7.442017226295583 2.7568340126020616 -1.4078769557474462 1.2562710865112752 1.6033057357058387
Ni 0.3333851700915285 3.4961037236963803 7.558019539110776 -0.6783624291768318 0.7946680804498121 0.09930680272213865
Ni -0.16281078123881754 2.0160576821679443 9.751881354466413 1.9570568776886297 -1.034986007611411 -1.3258011721916134
Ni 1.6694706909581587 7.126890364751598 4.38495749973245 1.4314434302134769 -0.34939466478630793 0.5862642283879904
Ni 3.8851139436846975 2.827317796073422 2.778939087297487 -0.10842933384869712 -0.2617717261600008 -0.6548967419547237
Ni 0.4018146402892838 0.834320425832256 13.15074174360231 1.9332644032547222 -1.0722662321191083 0.8268325809974986
P 8.257942881118673 1.7382459275282667 1.2046389767530143 0.0031179768036914044 -0.2500186993891307 -1.0201988219999076
P 8.537322109979684 3.897496990033224 4.987308337593384 0.4133829947128106 -0.25780014310676247 -0.020054090437397722
P 2.385668103558124 4.752978317853468 4.049160263427389 1.4077239751093498 0.6324240147735043 -0.07884493532336098
P -0.531670659090077 4.536934267970882 9.388917945818342 2.3122252117339213 0.4324181569673907 -1.6400275166069045
P 6.087433665529912 2.113379390439494 12.041773094926489 -0.8706583199331973 0.4772435408121974 0.00378055008835478
P 5.791549855161931 3.7398090833671844 2.4199985551362824 0.6933439901873285 0.6749024956526892 -0.3444388634429294
P 6.115878712428796 8.0822566822171 11.915702987392043 -0.39882695127550666 0.3743559627173359 0.1865240212695949
P 1.4540075285811263 7.866406261503033 12.445396784875923 -1.5625804900723348 0.3545762089872474 -0.2974357552205135
