# total energy = -340892.57878857554 ev
CRYSTAL
PRIMVEC
9.06832719518179 0.00000000000000 0.00000000000000

0.00000000000000 9.06832719518179 0.00000000000000

0.00000000000000 0.00000000000000 13.27241349071202

PRIMCOORD
 96 1
Ni 6.422144019234188 1.9023627595492303 11.44652781477195 0.1071530382394348 -0.045084808153780416 -0.03900466339797154
Ni 4.384146288955589 0.23086419571568526 6.104049770002427 1.2877712140020854 0.04887050044845777 0.19958625377019176
Ni 2.675274428012533 1.6660240146706566 5.119501480098861 0.7788059166065748 -0.8890676756783206 -1.8965763038050691
Ni 3.1301779963529808 4.568995071689256 4.868679709763854 0.48443157392020436 -1.5310204558778664 0.5148562089586488
Ni 5.149712612343622 4.270184620361887 2.6866551787155717 0.14813539418906743 0.7425639035554049 -0.2297748615384301
Ni 7.360643343344899 6.188933847258044 2.593084550783906 -0.3097048023958537 -0.45542901604026725 -0.8354866571280708
Ni 5.156885659201076 4.722857380197995 11.182432733836116 0.22345303308546033 0.13460316403058753 0.11927039032825909
Ni 5.682730751645011 7.798516593103428 12.51884572366317 -0.7780073319646794 0.024596972613073767 0.042116212443759724
Ni 1.6229675968714292 6.611545102249071 0.6251351143743318 0.8434992430199022 -0.002739253308033992 -0.9255560004123414
Ni 2.653655535840384 1.67784004508186 0.6131712702288977 0.768101128594561 -1.6259815800367996 -0.51598646590835
Ni 0.5800074906304236 0.2156593314098797 4.796955589018397 -0.420651760460082 -1.2554645314495798 1.1524491695276022
Ni 8.857942061138464 2.1759451244575905 1.4363006145234516 -0.7257779423463179 0.4957380000719591 -0.4093741306637337
Ni 6.9370708456650085 0.7259730997668865 5.093686672906556 -1.2057951892489103 -0.6838661326038803 -1.5149862852331393
Ni 0.7654520624646407 7.678850946667327 2.7584717963990135 0.14856785374079573 -0.5630340542154562 -0.23063720953872538
Ni 7.775174718753131 3.820731116700743 3.455711901263446 -0.14228690582809045 0.15622485606542127 0.2868425530856995
Ni 7.829639092237158 3.805668625132816 12.449033206302733 -0.4431111179048627 -0.2926445044794573 0.32959357089998076
Ni 7.556464802055202 8.861288273894974 7.1350242681125895 1.540843098395243 -0.7896960811565173 0.36060107502508865
Ni 6.49554306002335 0.8969146958247126 0.46501112589710775 0.23235650622267726 -1.0797368294645404 -0.5571200027238663
Ni 1.9152579209035903 6.5825990016561615 9.264543184363582 -0.8880695734311093 0.13157106207248306 -0.2606826068608801
Ni 0.042258405000926744 4.793454307865852 1.3734961004644561 -0.5318648277015033 -0.2750501884364618 0.28601285809555255
Ni 6.350658395495496 2.009613865975402 6.9822184197288735 0.705643633490288 1.0038085535673422 -0.045518553257089346
Ni 3.159105960291383 4.23352137327632 0.5550260627127084 2.3687984801432753 1.4094368440353984 -0.8661763729024438
Ni 6.024915012225476 5.51827663690428 4.663846147429104 -0.33600898750802133 1.1932286654378095 0.3847897564561502
Ni 5.210026056906103 3.052317338555136 9.111538739613017 0.7987761890809146 0.22006071957445972 0.2788662197484423
P 0.23406350157069106 5.595738288302973 12.49081461729013 0.32811672924413815 -0.34872309264058005 -0.2740721407939086
P 4.010776050950619 5.953048518742141 12.517717623752844 0.10309583745092567 1.1114135917425312 0.9747365759020504
P 2.4895641541897904 8.479901634597985 1.6186637687569572 -0.3462764308723004 0.15371803048316754 -0.9061333729113555
P 6.287225446357838 7.687130329449698 5.890549607311585 -0.6965036188622328 -0.5114739227499773 -1.4931666182548864
P 4.449438245180196 1.0766915631255436 12.69402857637742 0.6847660187103304 -0.6997943737983626 -0.422921016110233
P 4.1096933646309 5.977950145380026 8.134834552783659 0.7084808458287669 1.3429491447258097 -0.2720042025212864
P 4.952204444764183 1.0842454797276406 4.091699082861942 -0.6013401488845063 0.2111675308498879 -0.05900296089676935
P 0.17071942204011734 5.635856568072095 3.594196140415839 0.1171083496799338 -0.0606500095818891 -0.5489438946709772
Ni 1.4850474076741984 1.0487792518395238 2.810699013549623 0.5461079678840788 0.45228044310895654 -0.6336067222276959
Ni 1.8823761662826977 6.535035625211985 4.679255955930836 -0.09021435350256721 1.5824857136366939 0.2657466516473488
Ni 6.348064853901018 5.629962155357373 9.147480147849212 -0.45433681141735305 -1.0410733514560715 0.5938412694042999
Ni 8.709012922655585 2.223109494502616 10.271481174255838 0.7411405408453171 0.6830117550233851 0.2507059552641424
Ni 2.241164534064171 5.384555083225381 7.102001954419269 0.3283471000873893 -0.17104752290055059 0.0788171674092191
Ni 0.4922496604681986 -0.04972979982501763 9.133862240812755 0.12331524982159407 0.8347747186627108 -0.143617708824372
Ni 1.7027326033924917 1.0262444586147808 11.6335230705665 -0.6129252826189444 1.0559883208946912 -0.7035039614394658
Ni 4.140425925692733 6.85516571391214 1.4336200169873412 0.04463846464498119 0.05538953251389815 -0.03841999453909513
Ni 5.618236808218704 7.579833881387259 7.956559400475992 -0.6452332507230306 0.9296934196194828 0.556019570570836
Ni 4.911823183504714 3.032221925361562 5.176480500730261 0.8823193012108933 -0.6274808118356161 -1.2515783090212962
Ni 0.58376540544424 7.530737957637255 6.758167258278681 0.3219005731310972 -0.05055765834289357 0.31150380327780547
Ni 5.310158526438342 4.447932902856128 7.036861439259793 0.38868986284150475 0.6073146213003864 0.20361131576918481
Ni 8.135686068712754 7.215232715836345 9.116648742020317 0.07424857420193019 0.12401176166798641 -0.011338822051586922
Ni 4.706062838124665 0.27561185654767517 10.543233550724459 -0.17882202463964686 0.2820317619606175 -0.6918380950657633
Ni 8.070648025651241 7.331225689734811 4.584597128728761 0.47445415099251836 0.1606687507693878 0.7491626398188453
Ni 7.480544766289587 6.077846838403676 6.838358476180654 -0.9610223116397514 -0.4760214954796383 -0.2362697252341544
Ni 2.2790248003471905 5.31856486580226 2.5844841492167645 -0.39420745022562437 -0.508076467032654 0.045916045805824146
Ni 2.301840711716789 5.288312926084859 11.30732627093381 -0.2784299035419721 -0.04833082589490386 1.2115596025365134
Ni 1.0403094341848316 3.3874464405324427 3.9555372423191497 0.5078034158769255 -0.18750206891214805 -1.0867808807955155
Ni 3.6076254262454257 2.5997352619915626 2.9771880609260206 -0.753941035044095 -0.03365599749154849 -0.2092500021122009
Ni 1.326614662229737 3.5271984318348637 8.415718734796469 -1.147777732193862 -0.5174615077919797 -0.8385128455489044
Ni 3.5733108759184926 2.7294576833517032 7.157109272305563 0.18062308240412764 0.2700463074639672 0.72055577471543
Ni 3.9614080773830125 6.720428507580857 6.024109744765372 1.0869366896470893 0.6118634170133334 -0.4751167242771817
Ni 0.7369330800853673 7.415307220028501 11.274145261513555 0.21014988821865097 0.10588471304997249 0.4536212734075671
P 0.16906807964726994 5.6086606546390945 7.989833813666958 1.0009674845741212 0.3755540967904951 0.9433876292771236
P 8.423659868972289 1.6759629013404027 7.859405876446502 1.383165311933379 0.21557800121275777 0.8036268323049965
P 1.801550165472985 3.1703234811038614 10.479553036252783 0.3743762744323101 -0.5284473173795222 1.2313185303309955
P 4.0631728458208665 6.011502956217671 3.696313666783851 0.6741008256870004 1.5917008044770586 -0.7968573747916471
P 6.934776558869894 3.7150488308894123 10.358282295892826 0.7516244710957765 0.9438928510483164 -0.5498782335597885
P 6.369919522581754 7.781731119357352 10.343337692579194 0.07919177713981844 -0.030081135656096582 -0.8124608856568589
P 2.36525552419994 8.53520936251658 5.705664551268905 -0.16353938744896349 -0.4650390283262056 0.8986825730602652
P 6.837418997477201 3.7797150725335347 1.3946652036048344 1.5666412904052696 -0.48480824053333277 0.5429622231662455
Ni 5.2592580055649085 2.9474421338693593 0.2006766411217829 -0.694172913846527 0.8167386870966064 0.04894711932266409
Ni 1.4566907483527614 1.1805329785044303 7.127950066022199 -0.6907754581292039 0.05921224869409803 0.06860243165974636
Ni 7.099266946919638 0.7060118978166634 9.2484695743069 -2.0999886161895702 -0.4030348187092672 0.82631578926208
Ni 2.8230337522797213 1.5024495276735073 9.22941067091839 0.1168502109225407 0.2866561481065063 0.1097735065814174
Ni 6.502979088371154 1.8806441157772946 2.624089161663341 -1.1127320534436385 0.43427809299426495 0.3003087058929344
Ni 4.342885399952538 6.951670852543011 10.260783268594981 -0.715988981280354 -0.5779855333189658 -0.13932268099344391
Ni 8.100773008787096 7.08911042039581 0.30837118875064684 0.20273559803245086 0.6847341370311305 0.8773375317255858
Ni 7.879641848712503 3.8538667844847314 8.140661859876703 -0.5968592302950172 -0.5401093270984827 -0.03014232791133518
Ni 3.179854293047203 8.184645967553957 12.28403045776317 -0.26573739567596816 -0.20393861720161652 0.5350344836787366
Ni -0.015718131628348994 5.065685492013453 10.288416275401595 -0.010817145220162016 -1.1952698642375543 -0.6909178972443392
Ni 8.67963154235451 2.2589112504991093 5.715340456448301 0.13331118469204137 1.484918005092849 0.34552772563173395
Ni 4.0317964335240415 2.683644494067437 11.204080644655475 -1.7020175851564558 -0.391719393696448 0.5504842425749036
Ni 1.2085541097174912 3.526971723653528 12.78676310453632 -0.8116525308229505 -0.8483989943143646 -1.211542633255649
Ni 2.876273901584537 8.265408490072895 7.880840681575405 0.9202955233443505 0.14759649096646194 -0.06398113083765111
Ni 5.9470815594093915 8.019085516888309 3.4964976099184177 -0.9739097091253807 -0.20234273346940634 0.9390141827997764
Ni 3.3428121337911203 8.275302035106373 3.6902886701566806 -0.20294540005041178 -0.5756967372847891 1.1079096923543306
Ni 3.2698120994011073 4.540729095640352 9.318893296924216 0.7661663734656935 -1.231093044583751 0.39498572315254554
Ni 7.32719028410704 6.19900875883659 11.577765553616137 -0.30958318921632494 -0.4204170187414566 -1.1863303956560796
Ni 0.651045139002797 8.850125163046018 0.3046831000566818 0.2654082944713235 1.1576646522902707 0.1699085242001009
Ni 4.4570102984368 0.43214478743254575 2.0804910049553897 0.414977335783124 0.2057823552785746 -2.035213528695714
Ni 6.089535912233331 5.444678092915542 0.3708827958393568 -0.8366608799418301 0.9353701582892858 -0.36223938195946004
Ni 7.892056388722431 8.852573611404441 11.541412443322635 0.2419235810858221 -0.25733991564089226 -0.12794374973254094
Ni 9.451373396602122 5.10186811775459 5.730775656266343 -1.5879423658758909 -1.4881519386491144 -0.15173545283549997
Ni 7.905976271056429 8.962563352661146 2.2454538528550376 0.4542874462366563 -1.0545821845757837 -0.5559033567079458
P 8.375126181511996 1.4187035254881943 3.6061282454158867 0.867156477427526 1.7210771728910683 -0.16267343990424243
P 1.7599718850160646 3.238372208813508 1.6917816914012644 -0.9851652274345422 -0.0960507576786862 1.990934761382997
P 4.879821056627402 1.1527566921272119 8.212332477491366 -1.108928106316516 -1.5329179300108955 0.6355674454984925
P 8.484635301424268 1.5374532708716997 12.564277136370066 0.3814565783178592 0.5169460016081419 0.1916672560334312
P 6.260129284524626 7.774113724464481 1.3538259918190676 -0.2776886545005734 -0.0813432762651825 -0.12630441435690506
P 1.78561711448873 3.285273597368185 6.049539148049407 -1.2375629685788105 0.627810427260893 1.2343583455985838
P 7.06435388699398 3.8878820800123015 5.592689516680376 -0.3543949462143767 0.0727269953510812 1.4002639192868787
P 2.36989850775369 8.628930524680651 10.08152601644577 0.7981557818880963 -1.0342015640369029 1.108703906120852
