# total energy = -340867.71210203663 ev
CRYSTAL
PRIMVEC
9.29513311095563 0.00000000000000 0.00000000000000

0.00000000000000 9.29513311095563 0.00000000000000

0.00000000000000 0.00000000000000 13.60436687433284

PRIMCOORD
 96 1
Ni 8.510224206852884 2.5198362315881613 6.613790246248972 -0.15548257858275805 -1.0070442868958205 0.7617124514593978
Ni 0.08603668180249945 1.4511561848949572 2.4277130966094562 -1.0038874864343936 0.562178133973064 0.3326840368998464
Ni 3.526164525217854 1.922075514867627 8.405566584842852 0.4739468723387967 0.7163144829405729 -0.49915525328362415
Ni 2.414262109451107 1.4061119697271314 12.662155684924302 -1.759844780577569 -1.7993783198958169 0.38993813342630906
Ni 4.976474852997608 3.2194716074583796 6.404364390144611 -0.34529144125121175 0.7688961136920306 0.1896815930619701
Ni 1.7222673330171145 7.501655786137874 5.592578585444966 -0.3519557406452648 -0.7351652970984888 -0.5143836401976045
Ni 6.41776890163729 6.435355293526999 11.487840168215358 -0.0073384426429422 0.1536025879512258 -1.2857616397712242
Ni 4.966603421609199 4.88291933800294 12.839108063911386 -0.11321852770722438 -1.7897158571053886 -0.3078543794506763
Ni 6.208572635321342 0.6664768474409604 0.4610107180517243 -0.5665816623573984 0.49210580263601056 -0.5535569679629563
Ni 9.154079488785396 0.7928869400114028 11.180327419713457 0.3163480187439842 0.0001604368372642398 0.06364688742668394
Ni 1.4723397933075604 9.08202361672989 3.7487513603267804 0.7236804363873407 0.31330974613829266 0.3330445055630587
Ni 2.264749892989184 0.2725909333171054 6.792225198970946 -0.2403043003148442 -0.16265852750590698 0.2676664943778809
Ni 7.180871446547112 8.72381707114126 10.2713786588498 -0.9624086504643167 -1.3779094628510784 0.9537882557851572
Ni 6.918163098778177 7.660305118470612 1.8008920756584863 0.27381348781588327 0.6389134791525899 -0.33102310425765574
Ni 2.6277806126744094 6.412349839020113 12.15162421558737 0.5225543489338549 -0.6604809209107206 -0.588798821884386
Ni 4.1902088363176215 7.72505501588272 6.884517505372692 0.10739189372311828 -0.02718555927585641 -0.8809023662587087
Ni 1.7700722027257665 8.670174857824396 11.045534976082687 0.6675177731528439 -1.3270792675730887 0.13793839905140762
Ni 5.313897480898402 3.516925162882563 10.602046513502046 0.6442127798783164 -1.1826298068760408 0.6610812734988809
Ni 8.465263647883265 7.890619927267227 4.88866094173987 -0.2883906142991098 -1.4709294041232408 -1.6444744966346645
Ni 1.682930329593623 0.8314394341983764 9.265635029094241 -1.537509663146636 0.013877529313040616 -0.7466884672467399
Ni 7.741591057728276 2.6329115261644302 11.317826606112874 -1.263279399508308 0.5015093553380975 -0.6388396884918611
Ni 3.2706877910272447 1.742883938308538 5.153061933252523 -0.03175029582840338 -0.8301829855269702 -0.3953215092254095
Ni 4.49988549181314 2.966476673814574 0.8523962413625077 0.42280223114418153 -0.3645657160997915 2.2722949511978867
Ni 8.442825196497559 4.913732704342465 12.494169391358364 -0.7286267246490227 -0.9558022008913927 -0.8015686642243872
P 2.8231829014193615 8.447128843138646 12.891131065036292 0.5615315015280007 -0.21595569626715067 1.5832778705206862
P 3.2149727630214775 2.142491006876429 2.8735281310135616 -0.9659657716879557 -0.48694199904688396 -0.7101983427405059
P 4.491083000735152 5.415409629855856 10.749654157184793 -0.5667665246746949 1.6881259147760281 -0.2067560320457536
P 2.2054748289930584 5.133320929502333 5.001876592826464 1.882192267169255 -0.4723211638099156 0.37051190638089737
P -0.06523882141496122 7.896587402739315 2.5920398962605 -0.05468710713023485 -1.029949216518452 0.1924694402197524
P 2.9983125047988506 4.444932664724369 0.4107203297430151 0.38619306456158004 1.5405818743140565 0.5209764629237738
P 6.707851416486136 2.8675485718683977 8.905786033480817 0.8633844119796034 -0.3108882811809936 0.5838869864050654
P 9.190442049605977 4.300885986545294 2.377512871092148 -0.1302430872896789 -0.7584852027713518 0.5142095765135853
Ni 0.7467393925405599 3.975547031718825 7.980715793709384 -0.8734816483146054 1.6105691021364712 -0.5296284821718169
Ni 3.549225750523544 8.663082671243082 9.07461632513533 -1.0932040107130399 0.3264203153783217 -0.6592071964046196
Ni 6.98896412786058 6.553106040069718 8.683979989555155 -0.4092226926875339 1.8205986627271742 -0.3247159310927053
Ni 4.485347903591415 8.067106620084294 11.100292605375643 0.40961375747836554 -0.7159475865194573 1.3650603748025523
Ni 2.7905198035861503 6.348222715527989 9.678418878393025 0.8774365191972954 0.006630875052956322 2.691919813055351
Ni 6.814791923193902 4.339934840841629 5.2649446622476885 -0.24479576042729456 -0.3294107654652133 -0.6286738037024528
Ni 2.0261903011026283 3.0655070222252254 9.876525121366686 -1.532941069939347 1.4942801630340394 0.5814598650208115
Ni -0.13913698885764564 0.7799769296014578 5.272916168423489 0.9266278933202815 -0.0926702712422275 -0.6699855179670462
Ni 5.51364989195011 0.19678819309524487 3.252858796162737 -0.2555900228293211 1.2462196158125443 -0.5080327582789121
Ni 7.759372647413801 0.7730278880704082 8.573472010750523 -1.028917432819828 0.07959801143930163 -1.7951190303988307
Ni 0.7356447216317038 5.772528644867798 3.811276932379899 -1.3932676904747037 2.2545466260755296 -2.1913231993395104
Ni 4.764610883472175 0.9310656006429233 6.733332164946632 0.5064875252789793 -1.5844621206367744 0.28910872341205696
Ni 7.690755974617909 4.413719607660077 7.598773196149529 -0.5190982720644544 1.0572502183262502 0.5031175803654819
Ni 4.9190588156283015 2.9544673618053228 3.8912438922458343 0.8104274001665978 -0.19200741298166935 0.13087609288798752
Ni 7.112422086147634 5.098036604125307 0.927086354148217 -0.3530376608555339 0.1450071329727309 0.22065721550787804
Ni 1.4275837272668914 2.8325988712842 4.3791500780210635 -0.5091529879262844 0.9101820890594325 0.0026258676586212843
Ni 3.0932994702961705 6.886420219125242 3.3248124217537685 -0.6765999379597702 0.45865472206641655 0.97979856380599
Ni 4.518038886824029 2.101183435228509 12.414882835237846 2.183780096884929 -0.8279533248655032 -1.249013119397281
Ni 1.7341279228962203 2.7065382757195993 1.054594201941796 0.3846002661531634 -1.1538213672847806 0.29462785345807324
Ni 9.001843798315184 2.421289230100483 9.253472347388279 0.15168043122784844 1.108560438564452 0.7884298128495841
Ni 6.921388509975707 9.128564348332304 6.532041409361231 -0.7753940627115484 0.0238040443981332 -0.5302254923258675
Ni 1.3540406339099296 9.162398632940413 1.3824623624940526 0.44620492633883796 -0.6633464153839737 -1.9679133607871593
Ni 4.595792675490736 5.497318343033505 4.617811916372094 0.09234836912643452 -1.0534233883809923 -0.0029943067416335527
Ni 0.417661005654244 6.803275253240758 13.051322459955976 2.015935911413025 2.165796258712999 0.6004487474184885
P 7.781429998341008 0.15829983532689648 3.4059347666682718 -0.5423235611409821 0.6461598763023582 -0.22662577438648712
P 3.3269140513553874 1.5916707124830758 10.645512415063703 0.25361798670461483 -0.5204362741495875 -0.43832038138443863
P 4.64085548092483 7.666207528010763 2.139871638359241 0.8179010828358236 0.5460205503765951 -0.7049072695448957
P 0.7066327520935656 4.928251702297922 10.828328164031776 0.7833318295013864 0.08797363709750655 -0.37633005572457123
P 3.928206918666878 5.496314468655022 6.690600578902569 1.550708421225097 -0.5309096628770856 -0.1344344996632072
P 5.974827922398248 0.3283096793761262 11.848804579804876 0.1155695444379042 -0.7293309498048988 1.3821088456444068
P 8.903752258351076 6.294543321678589 6.8513496818103 -0.3811521597035629 0.3866514922552373 0.4520876103718601
P 5.553832752488804 8.457948378106732 8.6143399226012 1.7635695377273242 -0.3651722393355389 -1.0125191939674627
Ni 2.3263115597362973 6.784908070167786 0.9979515196492461 1.0425468506778046 0.3424390594040812 0.06494298053028814
Ni 5.403586220509288 4.5219893184060185 8.486798612328338 -0.6123434419735454 1.1132892114986892 -0.6304247249552885
Ni 2.1908349943068584 6.26792206038254 7.644960712692848 -0.7472628516929711 1.9540443161145509 -3.427090509470479
Ni 2.504508557050038 4.393130887768057 2.7153361192310204 0.40339220204868587 -0.006559141274756446 -0.11647045898561878
Ni 7.581435913827814 5.905421163285958 3.469848102098311 0.076849502159887 -0.07459155936364573 -0.10118679335367091
Ni 4.820102828282723 5.398269404356585 1.7764170606031 -2.352674835108535 1.2928517138487863 -0.4099878529883326
Ni 5.735757098189317 7.618727987961805 4.43677897393914 -0.3755723516229403 -0.3911738056056231 -0.2810992228440191
Ni -0.1340237361205798 4.560322447451028 5.560472266086487 0.5990948044937552 0.0613434361044879 0.5634215194618619
Ni 7.9000358971320646 5.12959358111556 10.127567147539017 0.4319605006046819 -2.2869181004277004 -0.15823494451691458
Ni 0.8954875490588601 4.915480189371675 0.5073980799574268 -0.02513639005631155 -1.0379839138974705 0.682084101002793
Ni 8.326292112395407 2.5939370329331686 4.252003810906401 -1.3862547494919804 1.2414198804310554 -1.2879092822418465
Ni 0.688258132914086 3.002467429309791 12.118810536597389 -1.2932168104976889 -0.4284213771031719 0.3665830036401364
Ni 0.4773032274091665 6.499138497093161 8.98560241218998 -1.651867703774942 -0.3838721297378873 -0.3089365567712615
Ni 2.775173538781759 3.820448440243311 11.989515234702122 1.369082865698384 0.7712694990202137 -0.34186544628879834
Ni 3.893545367209836 0.2286593455854308 1.1602157292578343 -0.7162311791981472 0.12779565419045089 -0.14650865721892187
Ni 8.19540734273421 8.923783270255052 13.175407839729582 -1.3334242359545099 -1.4289463748232358 -1.0393345143880939
Ni -0.18379452648709305 8.591816885503972 6.919127004084182 1.6511837903340403 -1.2082079124554612 3.483290453700814
Ni 2.9251040362347163 4.300523476353065 8.188821740908704 2.5363220490509675 -1.6304681550532436 0.08415940555773892
Ni 6.699913372789619 6.7162913973718945 6.289352919336511 0.20817296699793827 -1.196178492094753 0.4927282667113579
Ni 5.4988427448674955 1.1243114185007643 9.84252817192873 -0.46462610915850305 0.24546681835239018 -0.0735885720204281
Ni 8.295599582786624 3.0140398700617395 0.7173054239581338 0.6389211924620739 -0.34207627674802377 -0.5710286423851585
Ni 5.279347471038969 6.942376920592494 -0.045827794891030026 -0.03094322654607574 2.59966220387051 0.7425749592989985
Ni 6.706624458912437 2.0472623679176225 2.3241021065903227 0.3429766770751061 0.8894970499062551 0.29094423395889896
Ni 8.910928101130597 7.241308402185 10.97329598990444 -0.6021814138388789 0.1003478423921433 0.6165741922254413
P 0.13423566515603716 1.1614919510371455 -0.050937329574842205 1.8289789163710695 2.2704159890076188 0.5543802351952001
P 7.683440704841376 6.823204018680259 13.195474173139466 -2.3097106728421832 0.06716801320606497 1.0987642784096368
P 3.4577988210165835 8.758394966400095 4.8164358982613225 0.5786591623472228 -0.22222404577436566 0.8720408021030207
P 6.470304994111197 1.7440551250834337 5.382921280525566 -0.4710520672895049 0.7536502432765537 0.5015186113094783
P 6.446732536483131 3.0462939820370507 12.957859896292648 -0.11356896906810764 0.8675688823745962 1.2660909008151742
P 6.151723601073215 4.35820907258326 2.8508628783793832 1.722050592547931 -1.3220080236977683 1.6385257352503975
P 9.3074027098323 8.693626478721718 9.359858864161252 0.4226225110332077 -0.17857699850837633 -0.27568550802761554
P 1.641325313685413 2.3897136628439615 6.89161898708714 0.3595530933765485 -0.6003613299110048 -0.5051551796208009
