# total energy = -340855.8396345733 ev
CRYSTAL
PRIMVEC
9.44520241791388 0.00000000000000 0.00000000000000

0.00000000000000 9.44520241791388 0.00000000000000

0.00000000000000 0.00000000000000 13.82400847430540

PRIMCOORD
 96 1
Ni 8.643833737820014 2.6625081323338136 11.398517601337783 1.4370242667353639 -1.3278891650688935 -0.36104973252673306
Ni 9.163121525991217 7.4145217422206295 10.722053142907424 0.4677474283963041 -0.7265811549739035 1.7465223524370501
Ni 5.873659742204518 8.998142173947956 10.710897414236312 -0.876603995993671 1.9502444827524863 0.2966471978809471
Ni 2.8086915314048357 8.263843796098342 11.96250953293492 -2.6686333317235844 -1.3225644104218706 -1.3271754268313207
Ni 7.7924242941901065 1.2392483486279247 8.238860290969264 -0.7201320569144501 1.3687252252486493 1.3938803843580383
Ni 1.077168673751738 7.6186609038231365 1.101228438076453 0.03331095544730392 -0.04715351775735105 0.7706850872716533
Ni 2.758339156884734 5.031393254593268 9.412947132079513 -1.231969276541117 -2.0353117448364753 -1.594730592442318
Ni 6.425627931020921 5.033036719828026 6.695492478730271 0.012073643335082433 2.018185883789466 -1.3709268608856582
Ni 8.004695775143919 8.855274040953947 2.548414808751827 1.1265550753696598 0.3462867152849456 1.3466579610359646
Ni 2.717554772495726 4.28282317576825 13.113592583359798 -1.4109926185582926 0.7942651885844385 -1.7357717987887655
Ni 9.395237377394615 6.662050794763685 6.762787657492384 1.4010077394314389 0.012938305328222878 1.5555765479506758
Ni 1.1072233081023224 2.652590669710271 13.404768341466768 -0.08794998294842271 -0.7187737431143428 -0.7940224764460132
Ni 6.215179374149341 3.32464516309403 9.967027268174604 -0.7389399336495726 0.6708594359315672 -2.402929617499029
Ni 0.6077052732809635 8.208353231418997 8.65909624053752 -0.7026788944350092 0.5126316905035042 -0.5688648019646203
Ni 2.302523129504204 7.04078452455304 5.57628698673821 -0.008485411763191838 -0.02641422832747064 -0.025262374111214556
Ni 3.9156881546471918 8.082420346504998 0.3240582860856381 -0.7313402669254437 0.01923210875673462 1.8830466447497505
Ni 4.559558163775091 6.6669245192529685 12.437640054904863 0.9318624022463435 -1.1625651749156818 -0.2951590433711949
Ni 5.479860914429877 0.8255078648179631 8.592409332816318 0.6969777302851738 1.0710585849642522 -0.7947590975017216
Ni 2.9311296913943465 7.800896640831361 7.785487737475125 0.5973958195247776 -1.5306679576344542 -0.10031158983756917
Ni 7.46392959649087 5.439983269480736 8.857664621706347 -1.6198207026417266 0.6611769185364806 -0.8612997615364327
Ni 3.28972624945666 1.0458294918613427 6.027668491545641 0.6431195468141375 0.6789468409253919 1.0426442954876172
Ni 6.6956851608612435 6.9992539691666416 11.02318131088718 0.5427048557398008 -2.3734750596833383 0.7345448899056705
Ni 8.87895316361797 0.638330397862464 6.488657656334661 3.3477233830950603 -2.99832023366832 -1.0285446228614417
Ni 6.326528866405481 7.464694657893258 3.1861161561278832 -0.6810626017168142 -1.1787677528174731 -0.012720018669829705
P 5.516054930404559 5.517197799906891 2.7149242835998626 -0.5011931096492594 2.185230713288527 -2.5867305834105063
P 6.796248231863968 3.4926658703418436 0.9214125619483724 0.30445872350556596 0.8428598096636902 -0.9584213836817946
P 5.747962987352986 8.52591038462484 12.971827650017628 1.9307652909819524 -1.7136340863494617 0.032285856616899235
P 2.554143324067235 3.493468712554226 10.93123793168469 -0.8129663645383677 -0.9265803279117978 0.1770891011089402
P 3.793193323442689 8.993995730051067 9.255284033891677 0.9676331320880497 0.24132939914524892 2.181991380415623
P 6.825877832102115 1.3316602098743473 6.115672276785961 -0.3514052674584335 0.7008459549913285 1.527180513306486
P 2.8037894713080562 8.49031141640757 2.600794123728131 0.2729141159300655 -0.18952629843102844 -0.3700599064451433
P 3.75936060809266 2.6154710238907244 4.430733157856019 -1.653772376996823 0.6288751210799814 0.9070646264763733
Ni 5.073906111039521 5.71785168178741 4.779678608005251 -1.0887729715248797 0.6812376938420978 0.961597467416931
Ni 7.960076638540474 7.189310333843718 1.0708309428751692 0.874788797161803 1.972071348819591 0.4394670933943722
Ni 8.92011535610692 6.174394989760334 13.044874012581145 3.0313180287505794 1.5996018044916902 -3.034862294458412
Ni 2.3080674633708895 3.577625466816861 1.2945688996622966 -1.0476875143384796 -0.04319941820560947 2.444840141689886
Ni 9.164708320010986 3.750245987681499 3.3226833945350682 1.1472894797035338 -1.6515918244057362 -0.05470819017615739
Ni 5.162313206426532 9.005915575604314 6.728421288201184 0.41253864443464433 1.5827068285085646 -0.38210603897639994
Ni 2.8635492675167757 4.028690557340589 6.328119438506247 2.3871173330571214 -0.6931580994287675 1.602682757409859
Ni 9.372096631273015 0.3093077133435553 0.8261293591423718 -0.5146515491470105 0.15316344353127817 -0.31945056892870793
Ni 4.771791863918909 5.436941914276183 8.223888700488713 -0.18690145921367168 -1.0180378097928466 0.24614661802823415
Ni 8.363830709748653 2.3837613161947684 13.713388444068423 -1.1747174940074996 -0.34613681997064255 0.12852918992236573
Ni 2.017145781211133 0.27583013760747394 13.681206750115154 0.10567233992885026 -0.3877393260027774 0.2919212531601876
Ni 1.5492115590248836 2.5381337058320876 5.109408738191306 0.8014601636709809 -1.3616621477542805 -1.5491117661619387
Ni 3.845954224599937 4.24048977816947 2.874993074864095 1.4010573617224515 -1.8905866618805376 0.4581261032564562
Ni 1.983719209568544 0.0669693192759106 4.390615604763414 0.2362311586867351 -1.294996528105931 -0.28323786645357674
Ni 1.9604934566244565 1.204282208978062 11.487184439793507 0.08880101809480835 1.514502146507869 -1.0853757729178726
Ni 0.35216343064050876 5.767287871665147 9.11526079589025 0.6923464021607496 -0.8890419646467076 0.05584667465597478
Ni 8.610067138887475 0.32613339707458316 10.283804247654063 0.17880582668973077 -0.02330293639199858 0.49892591088163746
Ni 4.218454120740208 0.3187368589979199 12.451685071020298 0.5993295462123808 3.5854246985694185 -0.28662966574394505
Ni 6.903659074678187 9.186167820087832 4.865138800212694 0.30422655289010186 -0.9171582632669495 -1.389621351971368
Ni 5.574001247733546 7.557446546429629 8.761988498476404 0.1557080643300028 0.3257700833888325 -0.2012181329466599
Ni 7.787361665650851 1.706719755891742 2.1131931008992715 -0.6710183301069347 1.9446376780886707 1.1023167716475855
Ni 0.02329659196282717 1.0784248856840535 3.729841516723747 -0.567326510943223 -0.5331645203495334 0.9869027789509391
Ni 4.4874534879006855 3.301476081364934 12.022601800271591 -0.08563599010326542 -0.6387802960088353 -0.45310910965783896
Ni 6.946502513211892 5.828530564666149 13.680653261248734 -3.7022512553428757 -2.5749680435579396 -0.5963902610783987
P 1.9859577225607152 6.692842154909162 13.221724095124662 0.8740948564185721 0.2600999948845327 2.38919812684555
P 8.004837453181398 4.683243090494419 5.006309630317704 0.18955200946264128 -1.4335329657526539 0.5266765986323445
P 4.057158397671406 2.757668547507332 8.111692918088698 0.10938732688659225 0.176258891898161 0.44619489903650894
P 5.923577637409685 0.12801082946369216 2.668835473487634 0.25140298133116706 -0.5755800092012668 -0.5982730799234084
P 1.7088071456439353 9.44284119798762 7.292025966495876 -0.8796389261652529 1.5887376080836768 -1.2604427013904616
P 0.6316035246429522 2.0453680462769865 2.0162314856092673 0.27909607637106126 1.2961596951760967 -1.6193368210267722
P 5.111498016983999 5.184802233575728 10.736222835695841 -0.03251237080540852 0.6444148685867933 -0.16593411293338517
P 3.3950969285311787 1.9942600555569954 13.665336920876985 -0.5100605873422183 0.6144298921889289 0.2616745384605042
Ni 2.687519028550139 1.2599805681123786 1.9902014520433415 0.4328555016151255 -0.6070063460313482 0.7355165097903205
Ni 5.4719552799385385 2.917065784873913 6.463249117093143 -1.0715576360878576 -0.39095963271228795 -0.35063187962751874
Ni 8.62220422409819 2.463006565158125 5.433015543597509 -0.6137261812536849 1.8485599238267905 -2.5148224844162943
Ni 8.037461182611604 6.717059654115603 5.120661752448152 -1.5018119526347102 1.8762627890586978 -1.92772110483899
Ni 8.013734833935091 8.76037809145039 12.807764482616733 0.26994834843352217 -0.5988214962277106 -0.46040949997399416
Ni 5.5490470227322115 1.9960640892342303 3.574266752808355 -0.07496128399823865 -2.1104278092450235 0.8823576106479966
Ni 4.392425305562147 8.496054099526726 4.576493411855103 -0.6439417856051168 -0.41248850792299924 -1.0677963692732124
Ni 1.8104280793265046 5.67313809315898 11.548784161448957 -1.4776744361565584 -0.17095830562085396 -2.7220528849953056
Ni 0.7571293213292596 2.648548123040865 7.43023855917832 0.43796865447197475 -0.8854151665273977 -1.3162407821966882
Ni 0.7383428135595197 4.549659591556546 5.746488591242953 -3.233362000032644 0.5900614906468934 1.160213901074686
Ni 6.331497042919752 3.97273717773881 3.757890934583876 2.1879267720634514 0.15791921304870868 0.7849374834256094
Ni 2.239891991735906 4.9943208347862145 4.2664895870874 0.1786631304642794 0.7509737248856552 -1.9889125887466454
Ni 4.600852589099024 4.78227603869237 0.18596470295467732 2.464396466555259 -0.00710884313063937 1.9706731829204833
Ni 4.952100779617418 2.3420418567583976 1.3144680522863732 0.15660512222297546 0.30678402920463294 -0.4117984238345101
Ni 8.390503961604734 5.7766386221387735 2.7892844738309375 -3.9550063798265622 1.312213663315166 1.5380411101700737
Ni 7.578471567191541 8.209836128211277 7.04044355274284 -0.7239722565961466 -0.11796426992232585 0.8963480113898176
Ni 3.052453317489021 6.093714070017187 1.7140945700026584 -0.8458026943420982 0.7706773739621695 -0.33604318318006643
Ni 6.623051553646915 0.5874830947314347 0.5061296765703874 -0.9022222107824075 -0.5978658171826607 0.025601245507872038
Ni 9.011847162773444 4.651431648479093 0.7435603434197532 0.09924689601848069 -1.616588568857674 1.3669002562247685
Ni 0.7900779657254187 2.7801009034415363 9.59068223009715 0.3090841380927193 0.594143631136067 1.7563704488757237
Ni 3.4940448699066406 6.869722462100673 10.281233263533942 1.7813206910631583 1.7380371977841744 -1.130733889337698
Ni 8.041069249966073 3.6151890371538418 7.1588183866174475 0.1033460057885188 0.2506092817852781 2.0805356496712815
Ni 4.137197043644647 1.5892214368090052 10.19961632422318 -0.9715322100321396 0.7325450858668223 0.4915424739333728
Ni 6.75342368373526 3.6400488101301898 12.14342388611359 0.2693528809413684 1.1363376086777204 2.2060391653934457
P 6.780635312133762 1.524842936578464 10.885439089289168 0.050126484342745935 -0.46839534639294816 -0.239358134351491
P 0.8484162589580974 5.762489708795852 2.4179992307319877 3.526971953749164 -0.9125768145438542 -0.5876665080521556
P 1.7970442273859712 5.636717392324331 7.374984124561438 0.31905539037281827 0.5635950689252487 0.1476574261113844
P 0.6272011157583491 9.078058032288716 11.906341747236421 -0.6503551453306283 -0.2661554570499932 0.3216938564369298
P 7.782846858856513 7.614996165253674 9.09952886660856 0.36111915231208774 0.89419342694066 0.02393902731410071
P 4.858413816033683 7.031055965979469 6.551681714526901 -0.31824754975954217 -2.046897649901862 -0.39913394099296423
P 9.429126763959635 8.480450624999019 4.741358476948131 -0.5808607979842318 0.04916900552548306 0.23844359295702158
P 8.407665894544714 4.494395711737166 10.393787963628904 1.0426702636295462 -0.4544977624752495 0.8581938689175994
