# total energy = -340868.2478633001 ev
CRYSTAL
PRIMVEC
9.29379084021630 0.00000000000000 0.00000000000000
0.00000000000000 9.29379084021630 0.00000000000000
0.00000000000000 0.00000000000000 13.60240232543197
PRIMCOORD
 96 1
Ni 6.077042392640417 2.6573735495512563 6.496602205385833 -1.8189899234791578 -1.0101254969243054 1.1703900702767391
Ni 6.3452518958982065 1.7438961641357928 1.451457748753777 0.1871948220843744 1.036117550112693 1.389781274588
Ni 1.8832007916118316 7.306248432710359 10.497095786532403 -0.14590727618949711 0.12379347500959324 0.8910919051972009
Ni 6.073808153507608 2.432342997474578 9.523572149354987 0.21456472945689498 -0.7106061197018858 -1.606797550909181
Ni 6.575236038370823 5.668478063567488 3.9409287477382926 0.6246238020027952 -1.1698347119939012 -0.961621635786647
Ni 3.2650945176383988 6.116345833136525 3.4700950921891334 0.10577544116561784 0.6764484999835705 -0.08591341213436816
Ni 4.936220301286007 5.3110760518109625 5.525499600662716 -0.4453387216838008 -1.4864686374094207 0.116736825273128
Ni 6.6034798680392255 6.736446130318209 6.126793912541993 0.5058007836245999 1.26469453468828 0.972256489792674
Ni 2.7813434225182907 2.995751171926004 9.67911581716653 0.6234369807835457 0.030835497323617865 -1.080701507370655
Ni 9.051984767387232 8.487879558639943 10.262917356356809 0.004975598837720464 -0.8444706057942359 -1.2815401454907092
Ni 3.8880573023284297 1.2222821660643617 5.909645424282943 -0.43238576106755855 -0.8016625094897741 -1.191091821600465
Ni 2.3865431973410187 8.185208679794647 7.162276463589216 -0.8506746777224188 1.520316439196801 0.15613923833015045
Ni 1.7510059139536036 2.11509016115981 7.04475183441127 1.1615205357012512 0.6121359539484297 1.3342035373226957
Ni 8.584618625115231 8.011414795359265 1.1620723435876443 -0.15225507278439585 0.5385898051301627 0.7376605527165166
Ni 2.73167740549034 8.260479089957327 4.654524578471845 -1.0942352801910318 -1.411131972349634 -0.7672896884368592
Ni 7.626066355233907 4.355070280557195 6.195445285031153 1.2550505838406127 1.021405440713499 -1.0022419804111706
Ni 4.141814961185309 6.710832443392866 7.725008050084123 2.3742106522977817 -0.0329276039659562 0.7068044865676085
Ni 9.21760940987509 4.474839360167823 12.38312374924826 -0.9607171216945068 2.0830013376029544 -0.11498744668218906
Ni 3.350011882455836 4.410944549713639 7.529663723978755 0.3423758102663136 -1.4056897182881403 0.2000361968234168
Ni 4.773616140746894 0.3036885489172581 0.6116996398479332 -0.42734279932701236 1.0748139382416264 -0.6859597819081154
Ni 8.101694677359546 3.062201774798355 2.6930170953045485 -0.7149610542364719 1.3350034075161719 1.463949116150666
Ni 2.022728470062547 4.2333680924993695 11.98094146618826 3.249521897621959 0.04256229884224283 1.3722077844806109
Ni 8.047595522209903 3.6888077254081018 10.501611639390541 -0.4812032967908938 -0.3476727969991948 -1.8580619497799546
Ni 9.016835651294473 3.58016331315946 0.7295430460438552 0.6046198480770426 0.227519232735034 1.7163324591172309
P 9.292610300110038 5.927198606610917 7.881068452653668 -1.95919269308471 2.1171486729086246 -0.13873544103140623
P 1.3235194271956243 9.034809842337149 8.815947579089334 -1.3353757032539262 -0.4896809952446018 -0.26112586504588575
P 6.102525966497198 8.927875487561025 9.808732597309122 0.4900206379722077 -0.8789082186468153 -0.8731633457432382
P 0.33215264142315337 2.6763793513518097 4.194015394913021 0.39316923876909704 -0.008577457256365873 0.6272018471426166
P 8.508242253869778 6.095527742166725 4.907052668830821 0.3403356399078333 -0.5650883656413235 1.1452595937576986
P 1.7502345293328478 7.192938537574735 2.3403344704205526 -0.6096242432701695 -0.6343739394110236 -0.1565909811555884
P 7.45572976090601 3.314082087951708 8.232159980584973 1.2507311305296525 0.07710095604906077 -0.4178587710959771
P 1.6671945102189372 6.669577306868339 12.58156848390163 2.0809130876153583 0.32676227209877273 -1.833566792852068
Ni 5.48962835703944 1.1220486343191436 11.321728251218003 -1.6600656662047024 -2.1148125685762804 0.8169155789941028
Ni 0.4768894895116243 3.979340913714757 8.133733161734632 -0.34267791488776467 -1.8422401522563498 1.3713621486508643
Ni 6.052990062537809 0.30989680104575196 5.411144154083296 -0.16691755989257703 -1.2912810269275568 1.4521876047393636
Ni 2.196150602873467 1.932560113549602 13.520529443173874 0.2211254133935482 -0.4823479519182983 -2.0415317576042584
Ni 4.962187152254588 1.3275343447397998 3.4419107427806446 1.4232688648224843 -0.23502068331840173 1.144774426591164
Ni 2.910554993390221 0.08081880315775793 10.066634357399677 2.4668058473277 0.8851495715708368 -1.9608214869373841
Ni 1.3729809808301214 4.23937188123441 2.876404959788199 -0.4313251810135281 1.0986282670524048 0.2601663293460939
Ni 7.743288936216979 0.9152757338987919 10.838475303274672 -0.26573405324185845 0.21654525022203355 -0.08398842719751341
Ni 4.30177039140014 5.259402576010924 12.25833509332835 0.3011342871180233 1.6046619926234171 0.3731028070365252
Ni 1.949790801343356 6.151560005763566 8.481750303731646 1.3153756059829154 0.20847610006065384 -0.5890443622362886
Ni 5.4029172906339795 7.801245014470404 3.9501379648552457 -1.5744767272892883 -0.5233269654338213 0.47465803947320834
Ni 0.7199499953746467 5.214792381075639 10.238092712254383 -1.2222731322992757 1.2431754296695816 -0.2187628266986426
Ni 0.4565751219929689 7.745119812967448 5.646112556460869 0.3138820737019949 -0.24803252219703734 0.5368196006036173
Ni 6.071596231342067 5.010040880113293 7.870567398641715 -0.7037536155564267 -0.05181749889192367 0.2852155590052378
Ni 7.123318752103857 9.330872836057654 13.37143287790954 0.39036699343361153 0.5250532040963086 -0.4102519052829967
Ni 3.1748332232193386 5.837234713491426 0.9085135718498517 -0.050989346563673474 -0.44111645607233707 -0.5682302537044149
Ni 0.09572604329863231 8.097084957216236 12.527798328939634 -0.7029390900749314 0.1255024872809 0.17554129700584606
Ni 5.308334383580564 6.01986699279836 1.8005771343173167 1.1362789875256432 0.647885086523581 -0.24129751746604894
Ni 0.5062671616346317 8.738291452876675 3.1811530008351703 1.6974860158346896 -0.39018161689568287 0.583734262877285
Ni 4.360758080411443 7.325579517182316 10.166026801094553 0.6106609120647999 0.6534083303346553 -0.7960387355450935
Ni 1.3110471601949674 0.9056343555184035 5.247861546829542 -1.236639685433593 -0.9124122639415319 -1.04752013552268
Ni 6.111011197325515 5.663162015337699 10.144236579626789 0.22632752641977794 -0.8796844346912076 0.7698391943315902
Ni 1.3209078720337877 0.6796874356874297 11.55213897867969 -1.780127184975689 0.3442344607416072 0.5611687188719432
Ni 4.611959946850154 0.25598166295021546 8.14785228843165 0.742599898999663 -1.1014469674481224 0.08796283846422916
P 5.689054515981387 2.1628788324842336 13.118796050200409 0.6389774996213059 0.24508758063610048 -0.44253236258325723
P 3.836272301041053 5.219578683240571 10.038436996684332 0.13178934873087625 -0.612384579624126 -0.5327724271174372
P 2.1540962003563497 3.8294692463134226 0.8860913726205041 0.18698450584578122 0.3769890294648088 -0.1717959710308009
P 4.27690950151433 8.05107139989861 5.995599046753565 2.431658867112922 0.42046818369436617 1.0349602965797982
P 3.0435119618785933 4.403249291087302 4.759058347133013 -0.1330928980336482 0.7703783546645119 1.1198702071503166
P 8.11096058659923 6.041084716764455 11.531517916070852 -1.3755718158568373 0.9293733172759026 -1.1204677315249993
P 8.332998538099 0.132306403145566 5.972610855675976 0.07670834859633241 -0.9334078923565926 0.18498804424104268
P 3.742693123373681 2.132413786859679 7.771093169589456 0.6750968710516825 1.6974639043475024 0.6985910975188807
Ni 3.6636494342227235 2.2183813500162173 1.8155401372018602 -0.40571776485806904 -0.9056415208766015 -2.0392691868223265
Ni 2.6275497754788955 2.556034056723267 3.940752165716674 -0.39997777705049825 0.48253564244907216 1.2451387240435394
Ni 7.586065880441934 1.8748177924802425 4.786971317855644 1.1065791464683652 0.03720052030969723 -1.6886532480344079
Ni 0.9226773087418046 4.2105518365480945 5.878005643525093 0.2845856387307228 0.16040032759934955 -1.5250701518317027
Ni 7.679626470528083 5.998677150204099 0.22780660733233843 -0.1214134048131909 0.3630893886645811 -1.3107247374744655
Ni 0.10679773605413334 1.525993949458149 9.110208506810269 0.2537573404959565 0.28269227836275185 0.3466572112504868
Ni 8.267821184540427 0.861725841774288 2.3069270106883915 -0.4419826607273743 -1.034302094170509 -0.20953436612183912
Ni 8.838766623177793 2.3349533656564843 12.42618838680485 -0.30070414155914016 -2.5130985597466524 -0.6275571735995062
Ni 8.898098182441723 6.212796792102856 2.805944086266978 -0.15484185967496558 -0.2540257636659948 -0.4201491097920506
Ni 7.524717568615306 7.220875672152958 8.841616099379285 -0.24903885197436462 -0.12951417954345437 -0.362695238549956
Ni 6.1739394535561 7.254035917054853 12.006527271741767 0.008159652992656913 0.34012172412481423 0.40524853853113435
Ni 3.4925507490646828 8.488632355679476 12.08087852601297 -0.04957703959717913 0.1423288148096194 0.7739383041016283
Ni 2.220946436224996 8.636347863658937 0.499636971412375 -1.5364827645440184 0.1671039648717703 0.1839737440439154
Ni 1.3183427858250087 1.782660564776433 2.0049262141461845 -1.3351047089807264 -0.5215495618184243 1.444888757085105
Ni 3.856969572732903 8.000615410668681 2.063402744673854 0.045228789930812426 0.5309281748198469 1.2760446695937766
Ni 4.710260370148178 3.302910951636664 11.080421483643374 -0.9111794199756952 0.7567491939168516 0.8043138310696921
Ni 7.758066063289292 8.099752275121741 4.278921607181724 -0.047336066081802346 0.3407786409825228 -0.4715763152240911
Ni 6.6392609618935685 4.06649808206957 12.419782176936328 0.25974286865543006 0.21051292798502452 0.0598586240288453
Ni 8.78222320109732 2.0881753435488544 6.820367200782092 -0.9811643338052651 0.6091881841740153 0.03792505718054759
Ni 5.173407131482551 3.7848590513781373 0.7577747937844626 0.06539292358351319 1.1904696146354334 -0.3159335569143849
Ni 4.275654839781775 4.077975913474794 2.891612389365826 0.9615519588909762 0.47204502733039344 1.6086083788656746
Ni 0.8126118759086616 5.91993086235271 0.6325223777130385 -0.9482755534970443 -0.4239512571469602 1.7149458631823498
Ni 7.1942582558415715 0.37320982020765514 7.81964021422778 -0.09967807001862834 0.1313185797420448 0.8357347685831348
Ni 2.7947729499519336 6.167238630525197 5.911141724571397 -1.5917848795504328 0.2734067392957678 -0.04839921723899406
P 6.34251952145842 8.814426185566228 2.3571469376367884 0.9245869516308528 1.1532606096853042 -0.7644375637000448
P 6.248484948051083 3.4703571770843786 4.470306778486586 -1.2504117995170208 0.753070973734316 -0.4500410122554766
P 0.07878718053008014 0.8459682197924597 0.3610089318928547 0.14968859760880027 -0.8485416905398161 -0.4078564084676266
P 0.8971862998525338 3.0746926293802352 10.602011529987704 -2.164098559295602 -1.0804274277736619 -0.023789389110113867
P 3.222417431150309 1.6528541913053654 11.53329953573108 1.000289227560174 0.7000280870757234 0.4596556525271051
P 4.6273690516840515 7.625583078122108 0.03671604918986183 0.6582779997221309 -2.7102525499262673 -0.38232895362048347
P 2.949551738796149 0.6171941288574624 3.535699960115837 0.03070771349650195 -0.48771050178179237 -1.8691395477503552
P 7.167761658808134 4.823700378352363 1.8420376636143587 -0.48036074628494047 -0.4322114402732234 0.33061789839943706
