# total energy = -381166.8722006319 ev
CRYSTAL
PRIMVEC
9.26509232829348 0.00000000000000 0.00000000000000
0.00000000000000 9.26509232829348 0.00000000000000
0.00000000000000 0.00000000000000 13.56039915234754
PRIMCOORD
 96 1
Ni 1.8119370354916875 1.0008337975306705 10.998107399644773 0.701750983304101 -0.574126821694508 1.652551617215844
Ni 2.9499961146800455 8.056220093722192 11.059658187143018 0.16654449282387446 1.2915826173283755 1.8466441948613164
Ni 7.141116194995018 4.714143804226804 2.6065530417526266 0.6432501588547309 1.1801818595561804 0.5752941025297318
Ni 1.868481893634748 3.5662359319520824 3.945425583887785 -3.663045274567376 0.9628678494889225 0.6557737452430383
Ni 7.005391858285581 1.979755651835331 8.1059319463138 -0.04204216467271469 0.7990078454757465 0.02372356886918495
Ni 7.9788751034259 6.428612069004909 8.760438447692419 -0.62636880971836 1.04103427068802 0.9657086613718271
Ni 7.576232723419161 2.4952561208213613 2.2911924635051384 -2.9955118176852475 -2.499547303424779 0.48945730926956993
Ni 5.199560518601902 7.641885167266733 10.995259310280005 0.7451218940905683 0.21281175132153024 -0.08953069717198128
Ni 5.292452333732546 3.3858909108551347 6.127781934969407 -0.46718229992145344 -0.4518528686532347 -0.6242900728124603
Ni 2.88077661030731 2.653077702602271 2.009813464187898 0.0011109736759916352 -1.183106232291827 0.28539193668210205
Ni 5.550262791325338 6.1317399823885 1.324352289524671 0.317509386041937 0.06959307770778982 0.1765391421427411
Ni 5.8565945371526364 3.80420982698805 13.214595424151469 -1.2924984442744256 1.1322402986798952 -0.5345171777226859
Ni 9.250963007437708 2.649093712924815 11.915333004502498 0.4937405100259561 1.3506927932269706 0.3024977431244532
Ni 6.242013110623581 8.93412464697265 9.120968203789989 1.8108377266856683 1.4818874457966413 1.0297730959519038
Ni 2.2434031175602085 8.097440489245455 8.835169755458455 0.5435780023733735 1.563348735696927 -0.6609522041201843
Ni 3.5104971368367863 7.369435863882359 1.8284705926531315 -0.43214407737039773 -0.019900338468352822 0.9201320011832926
Ni 4.153022020887762 0.41004055618685187 9.848266829121872 -0.6818128496192774 1.0791966406903544 -0.25472870327029035
Ni 7.710752598133089 0.8563650667338305 6.3674485623636805 3.56764526309881 0.1858910156712863 -0.9362705586163681
Ni 6.665715045367199 8.952321288197126 13.121395081448128 -0.5503821697794005 -0.6725797610567835 -1.1097215487520888
Ni 3.1310638129743 4.690953278267099 6.835295882261197 -0.6843651837274859 0.44555546568029714 0.22798614506912349
Ni 9.010700634610272 8.20548999533498 4.917014117658245 -0.34126097993558 -1.6988314741189905 2.4624946215468557
Ni 8.017686574958145 4.302180741393272 8.451803399926014 -1.5679006167336675 -2.603818906351361 0.12908763352899705
Ni 4.102175194492691 7.5676625130664945 13.131402307612362 1.2981224753294223 -0.1965263838979454 0.3555054056697361
Ni 4.324287251557019 2.939674801887752 10.983041433099396 0.7341419980402969 -0.5249146216359153 1.0037003101242519
P 5.822758420171078 0.6930835660763508 11.28377057762912 -1.442114793884394 -2.678891262006167 1.3122681707021853
Ni 5.694909411893821 1.8182280331451595 0.9587415568245032 -0.6460017534579391 -1.83953380906878 -0.28931698276812107
P 1.750463148259309 8.49108646465496 4.646809746131655 1.356936203033521 -1.7271467761239157 0.06767863429389634
Ni 3.499064012971714 2.3182372678504755 4.459459388766975 1.9050581160238351 -0.5238219027923688 1.0161174528416823
P 8.034289620311636 6.117916464716953 1.2017343523448383 -0.10474622857015507 1.0408877178078269 -1.8831227494033247
P 7.707370839453387 4.14567480271515 10.601100048758568 1.0269446253641734 -0.20287932269916673 0.9340259855565656
P 3.913148781935798 1.4990733996118142 7.856121895898879 1.4562610034777888 -0.13807980972527834 -0.7354265211796753
Ni 3.1571265175386825 3.2309415076789025 9.055783647102214 -0.2693225419240652 1.9213478543227942 -1.0050863918385011
Ni 3.650696513114157 0.38085366250796127 1.2972268788765573 0.4057427045587335 0.4643592286503615 0.27337948560225817
Ni 3.4176145867984147 3.335674110734639 13.257744811886003 2.3584521039119446 0.14188015730797499 -0.9276370513110863
Ni 8.858048974317782 8.689238993100911 8.84864861169744 0.43776168066749127 0.2595117264812305 1.1006609812117172
Ni 1.4504594604545737 1.2226586367345298 4.583143738067448 -0.997891930972591 1.0024016459174865 -0.24278412931390447
Ni 1.6484081568705147 6.626162366453104 5.974819894085767 0.5258152790733138 0.46621530802249384 -0.044330189375943005
Ni 1.4514415602355282 4.175665906403351 0.22583384463045333 -0.9020630594967238 -0.25927261388723094 -0.7896096920902982
Ni 2.905153068077979 6.2294867058702765 9.978134701005448 2.0711482949191105 -3.184778691807302 -1.5723905341842208
Ni 5.766037525274827 5.310519263665197 4.447444417107149 -0.4929090152635963 0.21653188048559482 0.7003420187717164
Ni 2.603240771264974 5.870325403901452 12.267808615887017 -2.6105148303142975 0.16553096395769556 0.4939294861083106
Ni 5.90286440796477 8.740391567540996 1.7462271480720228 -1.4037143397293246 -0.8377983359803828 1.3790744296934572
Ni 7.85107242061001 7.305173183875761 3.0717968707213865 -0.9292527325376384 -1.6383118194673785 0.49472601386767695
Ni 7.224372314161583 7.922515547128302 7.291005931280881 -1.0971748224353297 0.5854301625224692 -2.420679742393599
Ni 7.110272702817688 1.981877357965883 12.74593462915237 0.8636343232068804 -0.7067702908955634 0.03455999736305661
Ni 8.978902837928805 1.7441628855135642 9.608640968133601 0.6684171450386617 0.0978549007669605 -1.0346695048122567
Ni 6.865905894113244 2.1017676519804995 10.4055315545476 0.38912206528291693 2.2576959703377892 -1.2512787755030064
Ni 8.441703522839049 0.6641588745087905 3.723862020286029 -0.3119491183453402 1.4665194479810033 -0.9181959605028446
Ni 4.9490602188126305 7.321572397199244 5.944377580403864 1.0294583929249626 -0.5273664256105176 -0.6615006204244865
Ni 5.543786491826403 0.8402085988279041 6.515867001996566 -2.113863831509766 -0.5674442674680099 0.3911190411082877
Ni 0.5724502116614276 4.03393778990091 9.814175922102802 1.0845759027243966 0.5749688579798292 0.6477544744829877
Ni 7.651585718876726 3.9264441893477744 6.104308823695372 0.3272099011591526 -0.46790760812325227 -0.13624507050938472
Ni 0.9476706980673112 6.27899009388574 8.889275114805994 -0.575854345908576 -0.1313445478839738 -0.29707271545414
Ni 7.594874089072748 7.719776798007142 10.853228225260233 0.18422134127834724 -0.24604865899778913 -0.03555681405868715
Ni 0.23002259284714638 4.730394776073917 1.9477475375592648 0.10112225866432262 0.8394962925080961 2.613166666114848
Ni 8.612032979188715 3.058888744166428 4.212049923760028 0.9386912522427188 -0.4228960764095685 0.06141182744857811
P 6.177250115634233 3.1899805347392878 3.846718996846509 -0.014886687303845328 -0.5598008919901392 1.6418085197667271
Ni 8.842752306974804 7.7205180053889935 13.078258664842776 -0.9836423630321125 -0.6152976395058629 2.042729377456785
P 3.5136843285787513 5.421209321052572 0.5750175687303187 1.061198918561353 0.43959487722148816 -0.47689695610605615
Ni 4.598422801735107 5.2892373467137626 11.708713108228114 1.2750571088695266 -0.48121589519638414 -0.03643381734700177
P 4.409053580764107 5.658275237045769 8.21959517181163 -1.5539127870950076 1.258314085083233 1.6130430175982609
P 0.9068959534823866 8.218498184886489 10.709786066687258 -1.5489680414952225 -1.5358849830590193 -0.5881326490552968
P 2.0632989888623627 3.0780860153564036 11.075306927992376 0.7662627898342417 1.0468899581378488 0.546838161181884
Ni 1.89010661900029 8.461632736318604 13.131524606830368 -0.13860919986618708 1.4174609998914556 0.08559922332805903
Ni 3.2922022977889984 8.931567481505262 6.475008871581183 -0.021934595289562223 0.7159252179219542 -0.7948632271797537
Ni 5.138299728491806 1.2653985073905905 3.454403488687429 2.6160807544378493 0.9035684403976568 -1.7157609028844774
Ni 6.2401137667075846 5.595022452096946 10.098483617087584 0.12695336079481362 1.1729470323706381 0.6148366407090443
Ni 5.025895629033899 3.625977246929381 1.9829641532895241 -0.5631839495297591 1.349104365693928 0.5737421846615797
Ni 1.4983599875067815 9.056108851841 2.1094558255487628 -0.4839183817292118 0.034474379627785795 0.10478633777947113
Ni 0.18657672215987137 6.19583589073418 11.58977433918995 0.6425788438193191 -0.7068499950935634 -1.3572066830860883
Ni 2.3852887406312933 2.4345234409708354 6.567097403211745 -0.6733901727732209 -0.06610923292424743 0.04850103292418098
Ni 7.939813474402282 3.7108454921514746 0.5464922026397314 1.178529668664738 1.111278094605931 -1.8554458523133464
Ni 1.1766852488751385 9.307248442997121 7.190334218168467 -2.2593990690718253 0.10514063579509633 -2.4196901247868197
Ni 0.41188523605843685 2.3242688429202993 1.913887331337795 1.9614017849208865 -0.6171820010127694 0.40494849079221223
Ni 2.692899069192288 4.947216465450272 2.441088685355592 0.7489317547549619 1.0862370924769034 -0.6157239284100041
Ni 9.130609458809435 5.3636638329440105 4.521200110656821 -0.4471140684166687 0.20577052820403272 0.6859492403851541
Ni 6.187441717134703 5.267121571457743 7.324350998371962 1.313903649423079 2.379851395523327 -2.060332692360845
Ni 2.0358650506415534 1.32061845733859 8.796766874495457 -1.4393670559359275 -0.36123048107897143 -0.1302975946766982
Ni 1.3540469102601305 6.731441609952956 3.272070178788662 -0.8843090779474124 0.9396268766831108 -0.050127769894326574
Ni 4.608456896666933 7.885464443127959 8.079068737777018 -0.5337864702042484 -1.0485061535850329 1.202199244367536
Ni 4.052634746108136 0.7717377139108395 12.574178348592636 -0.03786000827056705 0.11120252571846011 -0.33433879889445
Ni 6.624049925414824 8.854861782575817 4.76577538393741 -0.417954416133577 -0.02060996294086773 -0.19044855313498169
Ni 1.8452450422136772 1.7412073210784278 13.682307473701798 0.05057179941028064 -1.1539954309687996 -1.0192786241784833
Ni 3.678482524841346 8.96701572454235 3.924895065919703 -0.34521585081826994 -0.24348604047693548 -0.21117935792442985
Ni 0.639472036146971 4.608410571205567 7.24183608658725 0.7436190842927967 -0.675178117911579 -1.2828069280182746
Ni 3.5400620462804215 6.5780672724631595 4.164520926907974 -0.28378242610313703 -0.4277415774273278 0.11909941196803359
Ni 8.14665665940045 8.938516300710127 1.593563443159578 1.1068277721440616 1.3959858607368152 -1.0565267098966642
Ni 8.87455010365627 0.33169864196196863 11.717743793666758 -1.0665491271296728 0.24976004641110533 -0.6744543523716772
P 3.6152668002616153 4.548159676153245 4.761286446731067 0.38880890491787234 -0.6438044886963041 0.21391886834277998
Ni 6.639059374897334 6.243847598893667 12.652774126345804 0.7898590890969428 0.2584143796519937 0.24685495694916837
P 5.4887518437238665 7.46578355843089 3.6545276287691064 -0.09668350616667866 -0.37017869141119475 -1.0395360888759386
Ni 5.44957903359297 3.885418360762247 8.871036780666289 -0.2815504514488248 -2.761378936288438 0.927252671388474
P 0.20786512467589793 2.3418910484238387 7.437580617551409 -0.5325171165735216 -0.30648706678950444 0.09630581111228574
P 9.152966126464555 0.9621520372902512 0.1907163653875167 -0.6117765137264819 -0.14261420726052215 0.13141679588280591
P 8.983952313217674 6.763239406634421 6.820026083685811 0.0019992898182159117 -0.6730921819168278 -0.15961716957642189
Ni 1.3927101403160034 6.601906354881986 0.7924980061672962 -0.4643116632418778 -0.5419306965779377 0.6017065310849895
