# total energy = -340864.11033469555 ev
CRYSTAL
PRIMVEC
9.30783647618596 0.00000000000000 0.00000000000000
0.00000000000000 9.30783647618596 0.00000000000000
0.00000000000000 0.00000000000000 13.62295953343019
PRIMCOORD
 96 1
Ni 7.412183952236595 2.937022672333346 1.1213439249366406 -1.3493383360816051 0.09034985063916696 0.5775227347499344
Ni 1.2683044256329132 7.16069551616362 10.870576712546372 0.4802491604077406 -1.169244129597754 0.8018753968315286
Ni 5.397912273166009 7.676452047909414 2.882536458665779 0.7600152662626329 -0.13661093848923567 -0.502641926280644
Ni 3.2315784681794306 5.605635261723712 10.917099141251356 -0.32810824460370586 1.262295181218168 -0.082865883557296
Ni 4.844784777623147 1.4040499140554406 11.054445577562573 0.13485976012608386 -0.5767596313316647 0.7690344390421078
Ni 0.9161331214670644 0.05104696805784875 11.729613702973843 -0.15470739097963032 1.9481374637118125 0.12384232596965769
Ni 9.30315472036826 4.522808095264941 6.539606851962154 -0.5128448349555749 -0.2082837815441897 -0.06978025401793145
Ni 0.020200797690853735 2.791252643933373 2.5058343512403605 1.1574934168197293 0.7408793167641305 -0.26235948034267076
Ni 2.680349771295248 6.864790084016023 13.1773387785299 -1.0889958861689633 -2.305191187705275 1.600078744128109
Ni 3.5783326114661027 3.600001254982809 4.513273147490666 -1.741771468015626 -0.18063928035404372 -0.7334200322726079
Ni 4.084837153669111 8.967895755235855 7.602155965686604 -1.0600306092848648 -0.5750655314586934 -0.9719070768730553
Ni 8.486010440739758 7.820714206786317 5.928685137637534 -0.585589570918469 -0.3358971445205054 -0.6165297121407511
Ni 0.2639367366912062 8.715830233296026 0.5513608681633646 1.0062184485604155 -1.2841963521666335 0.3589031184973755
Ni 8.119514376104746 4.85294775028816 11.688458172830599 1.3812534396226468 -1.2327025551627158 -1.5741206295014505
Ni 7.712184832471543 2.0797150779391265 6.218349665370204 0.8869624564098596 0.6039423623940438 0.5502209616111878
Ni 3.1570785443359095 8.388650470299574 11.79998932443667 1.751350627063629 1.8215124327906953 -2.1036701788062153
Ni 7.7927534657535915 8.075823391281972 3.647084015448834 -1.0972946358426459 2.6688205080337264 -1.4021881328927852
Ni 3.258887660652805 8.1378508141322 3.683838800465488 -0.0033468049850458492 1.0378880117495544 -0.5120295381431311
Ni 6.494710502304581 8.771658636995856 7.125216835539639 0.752364948806227 -0.8345104092577306 0.244846668269888
Ni 6.241667657525725 5.0793794903358025 10.060432856796268 2.239559922858711 -0.13189990616681155 -0.23658854202615381
Ni 1.4395034635207042 4.83738504755623 8.455266656574945 -0.6853226625447487 -0.42813701309353364 1.1590216805387974
Ni 5.873375180434216 0.5919597896801898 2.025488552911644 -0.9602011012900367 1.5131407473839682 0.802451838160289
Ni 7.309406820917235 2.625154300481645 10.047790953177547 -1.4425259132798833 0.5523930295618422 1.4945043632297035
Ni 5.096543140956424 8.421274437449942 5.206735825664856 0.08840352554607356 -0.16728085676926674 0.5753475814754866
P 2.852321359617699 0.8325636416773758 13.020089395297818 1.3497965066649462 -3.1546301932483796 2.0863759105021424
P 7.215797908611602 6.622153400513661 11.224773401948147 -2.0125867924351337 1.728760914688571 -0.5674422105854808
P 3.7064922130904705 7.9428050989721575 9.477493291528468 -2.1729850631519545 -0.519675484724163 1.6905291249008818
P 2.8244536969505947 9.391886326315324 5.4379173547101685 -0.4144325190232475 -0.09845396780354013 0.7405736125982536
P 5.4928428982634685 0.2592241790397851 9.109169167792649 1.1768661649193861 1.3549489974001632 0.7035127031902143
P 0.03833525566490817 8.447308456314301 9.687532069822835 1.1537059247528387 -0.30150298331135167 -0.640263308312265
P 6.106815721413164 6.531280992157303 5.185225415369707 1.4812729521410941 -0.7581378467342621 -0.3850011011360079
P 0.18629541800795668 2.0876267390169616 10.635049354610189 -0.3735532643103825 -0.04493516994979358 1.680857663249389
Ni 4.88950893230432 6.44181406712183 7.034161062803006 0.7873592054932246 -0.40644975792808713 -0.10481616257614207
Ni 0.5104948117372053 6.4972329260129245 1.2275686789186242 2.2809107178913557 -1.308086785630986 1.0610603361009598
Ni 9.315841301602484 0.7000433186236367 5.097698243473787 -0.06911690940231967 -0.4757199050788195 -1.312036257197037
Ni 6.31114134962568 3.371791718151794 7.642166631932701 0.739770399970668 2.329295022732014 2.494473231335981
Ni 3.7727174702302317 5.393314201904302 1.3895417892060034 -2.0507715310349712 0.6455962904894041 1.982241090263741
Ni 7.5199407761167105 0.1856336308283872 11.219229654491725 1.4371852177932605 2.079819340330547 -0.2887724231185607
Ni 5.075377120614074 6.660687843881 11.981829081082322 0.09777082569358647 -0.7148319848577754 -1.0048153975653018
Ni 0.29149910231907156 0.19519557132869317 7.448176425438808 0.8030416492254879 0.1198961968377161 -0.15888826183019733
Ni 1.2894145989558898 3.7407729751489023 4.3537889527000075 -1.4134832461906301 0.3410159538043095 0.9198895461551835
Ni 1.821683232762954 2.518886730451476 9.29994537832163 1.1026746692076363 2.1174260949397277 -0.34401463142131716
Ni 7.696268431950251 5.233591726497653 0.17557651342297437 -1.0571152354102824 0.14865501413796334 2.117591416872998
Ni 4.390059730215429 2.184335160897794 8.878000669718523 -0.2412239839156362 0.6806813071179955 1.2449065534280754
Ni 4.453027244558435 1.2916764032404946 4.701910417177662 -0.14349892385832058 0.3193785780401919 -0.8247880397636441
Ni 2.8029060553091965 1.672273840267177 7.294087052719577 -1.3770021205454606 0.06025328836410269 -1.8150453370091129
Ni 2.2255409533584722 0.1037088457592321 1.5387268628406319 0.5590195337394244 0.36833803865803016 0.3667683801780651
Ni 2.727754582906324 2.6721309516108622 1.2668998730956837 -0.03245452098427959 -0.08187626595051706 -1.0242652787597972
Ni 3.5550071730413326 4.187381589074417 12.910874033428412 -0.2848430061571675 -0.06426266663381192 -0.04249005084341069
Ni 0.5417132955666867 4.008475662513158 0.10234897083750066 0.8035810666687256 0.2805567200769878 0.885283783155856
Ni 2.797218967169717 7.094470259023859 5.964867490705614 -0.6340232409398242 1.3306824115433147 0.29468518905856994
Ni 2.0983865980828176 0.42498278645699417 9.617305373745003 0.5357176257886902 -2.8019679134543938 -0.08057271664774511
Ni 5.73513519181303 7.3426078739344565 9.186996643207141 0.6470103972281115 0.1170301881438307 0.5348637624288273
Ni 7.265166673737293 6.1009704000521285 7.7284409690273534 0.34812993914127144 -0.47353009651635225 -0.6743903319029612
Ni 1.985268460342899 1.5067898140285518 3.4723973312012024 0.3904248432547405 -0.31529052401374735 0.8165296564095937
Ni 1.9054816853320717 2.3615284455316154 12.330658871922356 -1.3114970968641153 2.2906243456346935 -1.5306335048520932
P 6.62615577023539 1.3208843943725497 13.325583760671751 -0.45436792176560453 1.4305409730038654 -1.1337261391968023
P 3.7014566735103425 3.447026961083725 10.849460954521458 -0.15389080861560592 -0.778994121357981 -0.4846616876531395
P 4.532786096059576 3.7091170230009993 6.39651096500649 0.4453932290708201 -0.595564936963626 0.4378287864600008
P 0.8711101852322449 6.439263719903798 5.048750192560706 -1.3368420033868074 -1.2846365250278458 2.152070167376158
P 4.216617503716158 1.9990626741280184 2.6528804840330045 0.24866552779534593 -0.10907853739692182 0.48670211512193595
P 3.0267874481388075 6.068346432901762 8.029508527332323 -0.3653650720726353 1.2603961644232422 0.09127030557090732
P 1.7103335839698455 4.242679446090204 2.247148165153868 -0.7245661814264037 -1.5301084855865583 -1.4942215418819622
P 0.3803703258145659 6.026740403468911 12.85387563467272 1.4032885650458156 -0.411036348857505 -2.301082307743224
Ni 8.117345650185763 5.953887966696892 4.0738371524199515 0.02287793303943802 -1.8733168190564966 0.5910464802679821
Ni 5.816029599374755 3.5549513260219596 11.830886687904755 -0.05570397843052341 -0.14648191774604452 1.3801059562817652
Ni 8.253044599425479 2.6610453182653306 12.575435427050357 0.11455421579951239 -1.3084979050264756 -1.2910378005684993
Ni 4.36212691269239 4.718970750812443 9.130802441530419 -1.2438554864557418 -1.126807300589782 -2.1583071494248056
Ni 8.903308677331033 6.066354555877459 9.654877386811814 -0.7258566181030531 -0.12288818958650449 -0.04388898807346635
Ni 7.574270618130033 1.7672789280571346 3.456553531805095 -0.9495737034831776 -1.696069337992821 0.7050203980839922
Ni 7.32292179960549 8.899092227368376 0.6303034223980039 -0.14873034746058902 -1.6954628147570734 0.4752113408735171
Ni 8.863219825257815 2.1365580358242315 8.555368715666342 2.057652574425521 1.5070575173043657 -2.4043894898740077
Ni 5.364813606350971 1.6007338084504228 6.88949866695393 -0.5914910240045684 -1.3605720000138954 -1.4765567776123474
Ni 0.4337582147677977 7.147850701707841 7.663704965737538 1.0361604875354864 -1.1150473318403764 0.7640999778549679
Ni 4.275703650212743 8.620769298486696 0.7607676443551622 -0.14188864194840725 -0.18092184459146904 -0.8108724581238163
Ni 4.173941073078659 6.030845159392822 4.250377026927109 1.2256042535550375 -0.9159678425032741 0.5567667331495056
Ni 2.50088537454026 4.716783409220336 6.2424765085229765 0.18837701531793366 -0.009570674407570612 0.3940914934730503
Ni 2.049427377765861 5.897184626360219 3.309861096801813 -0.2004113207746484 1.166071388296727 0.8271251725372529
Ni 0.6054189213490718 1.5460223451380521 0.6270857032984655 -0.48536539858838346 1.6396451935668213 -0.912198862379145
Ni 5.864709584594846 8.752168027234696 12.320046076674181 -1.74249446222458 0.01639026843256532 1.3833859125846177
Ni 5.722783692695045 6.779818844040073 0.5455928018457946 1.038690710156508 -0.03643767400174369 0.9221773137480958
Ni 7.754302792915312 9.598427219629633 8.977653160303966 -1.877934520334166 -0.9298181181228051 -0.9452663343570753
Ni 1.2738053570411494 4.17881837943723 10.902073500689063 -0.6135210072214142 0.8333873513968809 0.7195448169524125
Ni 5.605514259848404 3.4013999462560216 3.9929436756418832 1.1976656181632406 -2.2584603593076396 -0.17519702629254988
Ni 8.561152605306068 7.891975003506206 12.431032719841365 -1.0005926177332058 -2.08746657246316 -1.1448081080425767
Ni 5.886294457582493 5.207418090084862 2.671462648945699 0.7558598493333628 1.280044534781789 -1.3930689442003363
Ni 6.9698010961103005 4.324327788413463 5.698483723782217 -0.009389668745016087 1.7900107626379882 -0.8927163281745012
Ni 0.9125896280878505 8.192255118838018 3.843622707593447 0.28449565012007777 0.3038753401982702 -0.7751253824311941
P 2.568637116876216 7.314935675835158 1.7926586060111735 0.589572723935933 0.39612857850773714 -1.1912291185092774
P 5.364943916062841 4.579260124014436 0.4514254193464317 2.439970729412727 -0.8141989513938882 -1.4207736092044563
P 7.512857512492907 3.937503408726695 3.289099967349917 1.7769446734826493 0.0668977902638138 -0.09871313500219774
P 8.2088137600821 4.206388191334345 8.669379474932573 -0.4096790634986622 1.0391681640135586 -0.5429300843767295
P 0.864557468292485 2.2980396923411286 6.120646235760876 0.20891575870123377 1.3930843708193041 0.7941947403578195
P 6.999828176859826 0.39881473474614026 5.2028535270347795 -0.5980396237563635 -0.6871913403223713 -0.42096594926639114
P 7.892607936392433 6.975990807424137 1.6224536450682212 -2.827514137354614 0.17028827613702285 1.101887654529967
P 9.16730684574355 0.34174094251429354 2.4592979607805336 -0.11191883505919435 1.3150621885075544 0.9177524452075226
