# total energy = -340873.2658041205 ev
CRYSTAL
PRIMVEC
9.17347012481913 0.00000000000000 0.00000000000000
0.00000000000000 9.17347012481913 0.00000000000000
0.00000000000000 0.00000000000000 13.42630079624039
PRIMCOORD
 96 1
Ni 8.104247032555314 0.43188238096493714 1.6715475058247942 0.1137548598266686 -0.666206253430272 -1.135463433602883
Ni 3.432639087034309 4.112209744791561 7.616659672349486 -0.6402270557576909 -0.2609661995395699 0.288752882734535
Ni 2.4523529091374714 9.10254990553632 8.950925289259233 1.0988678938670364 -0.22990830179250082 0.10066485941192987
Ni 7.730143752398747 1.4247316260296814 11.157631936026862 2.441272736053602 -1.7388802625107602 -1.2665626982452702
Ni 3.9316575082097813 5.655490123658674 1.7076643745701516 -1.2265517050699717 0.5680430773942733 -1.4308914143647486
Ni 1.8423630213463205 6.6806529168058955 12.425356870929214 -0.4254288701337512 0.763976050682594 1.0346756754598438
Ni 5.1847626839697485 8.65462771227267 7.900397851556144 -1.0085962047639727 1.230627417801242 2.3522290058203685
Ni 5.7251534548547935 0.17565543829464647 3.574148117940054 2.0724878396661404 1.1453295277636855 -0.11114544722827956
Ni 7.411310629004969 8.514301141650199 7.273993873890194 -0.11682861365598589 0.7953525081113464 -1.6298382347787284
Ni 6.305155269209005 3.1200622701819785 10.511437114178335 0.384837321864634 0.6023709041418658 -0.3992316429130931
Ni 3.303953649844531 7.755994590864729 10.772458112271734 1.4472670275092947 0.17138073787025324 -0.3567032826325792
Ni 3.97776336844045 5.918851273949615 12.35391480389968 1.0444576945472723 -0.4757317321533613 0.8170934993328638
Ni 6.998146713579363 3.4174569941807955 1.4899430722337712 -0.022575571307670798 -0.7651104213973532 0.33660651188270413
Ni 0.1832850132954119 3.464177476901607 2.593021650191022 -1.007499372155368 0.07814302416032994 0.8214093530993983
Ni 4.983606833763202 7.590945518586536 2.539960465004744 -1.8248499818043602 -0.13961347276098537 -0.7555094079724796
Ni 5.710017229351291 4.3368588516735445 8.098811751579056 1.3404088948024593 0.6560321411107476 0.8398971274909407
Ni 8.644151609530248 5.089587932697724 0.49208694724186836 -0.8645545210283045 -2.179374511618066 -0.43008282396599473
Ni 2.355150820994979 2.3573432803254866 0.6757333952553639 -0.563011685617953 1.6928050654192526 0.4856885862557571
Ni 1.6657186829854453 0.156548017627225 0.16832124902794934 -0.49199061721438486 -1.0448325613881877 0.48474267740272
Ni 4.780001667066086 2.407852406157174 3.962302402098872 -0.7409356239233627 0.45423088196710804 1.3282090103021575
Ni 6.434831441159012 8.406898154865347 0.5466938621235043 -1.5106832869824112 -0.1181776714847126 -1.7850480193160743
Ni 2.265370070084204 6.213099497737703 3.336395626507038 -0.6892734196623806 -0.2773824361140642 0.11212863707715527
Ni 1.710393481895783 4.983065599033075 1.4493688144143821 -0.7644715022617737 -0.30783381062538595 -1.6842977992791897
Ni 1.1908081409755518 8.386000990200511 3.2880074069398413 0.5728153019719361 2.1034272095574744 -2.4632793222316804
P 4.649362280765858 2.3261534823182695 6.497859601502597 -0.7373419930348333 0.6451466045464954 0.041312742705857886
P 1.1086046762865298 3.5994586390229104 8.21987678723807 -0.4978172511984911 -0.7469944285229329 -0.6609120949108683
P 1.141289749904093 4.46320505401278 4.254727857397539 0.7036726258068462 0.21603025825882793 0.14817216096427385
P 7.10107304700318 6.532868315071698 12.630684815292726 -0.2104972442557407 -0.15214451534846055 0.338547694769475
P 4.301476777875357 6.73227203250784 8.6612390321032 -0.29443142117655097 0.8009647120918012 -0.6238146758379386
P 1.3753875308882633 8.739234626102249 7.117255048086925 -1.563029147573979 1.7347646976804898 -1.255497184459728
P 2.566397488203861 4.368333027250827 12.938321718548911 1.192165771390934 -0.7733749753989907 0.9494986272708681
P 7.20751281943781 8.042014212060913 4.857622066142048 -0.5931275311667269 0.11703790145331457 0.0053047000423650575
Ni -0.07559214485849194 7.126556946669076 6.682094986290229 0.5242852155820326 -1.7906761641361288 -0.6242751604141249
Ni 9.04987584078413 2.2904319901300036 0.6153059136573811 0.4640183003711751 0.781273661420777 -0.5111998431529841
Ni 0.8271451870284005 4.671396955710956 11.82897399119221 -1.205032085830641 -1.0443368526986918 -1.0495430794899796
Ni 3.55563697282277 7.940693235887467 0.5690927238276874 0.9381873160231068 -0.5562185739555194 -0.04647346097119093
Ni 6.618814555521586 5.978928328993517 4.208151398155762 1.2564718896681715 -0.36719184086872897 0.6194132043361331
Ni -0.06761306065064558 6.799018200243284 4.173444491749731 -0.9675822242454561 -1.4566944914707816 0.412945907175392
Ni 6.153325167203872 5.791642765430179 1.3510081170106216 1.3528599760816185 -0.39879069872093253 -0.8365348958869271
Ni 2.117163488729909 1.7088339919954223 7.245678124034641 -0.45281368990460724 0.9820328524531474 0.7672868602233819
Ni 0.5016356121670779 2.746573612515554 5.930289673695262 1.0412875243494066 -0.2442154624437923 -0.7040932582840326
Ni 6.853985632496004 3.3225299265988295 4.0694980684616775 2.0585414047883774 -0.5409727035400426 -1.3722136980178818
Ni 4.6393540249935405 3.3690852868596024 1.00497473771355 -0.18665129087607854 -0.43284958807785456 -0.08211152188977472
Ni 7.230042861763024 7.515585462519097 2.5458544194811075 0.8209920630563217 1.3924680773915437 2.2012970227227706
Ni 5.91234728371811 0.6669663099743353 5.834654414229132 -0.3217555629128007 0.17556263716208476 0.24633739388280157
Ni 4.445747940598741 6.117218389275518 4.258997190336527 -1.192664051183591 0.4809808963674426 -0.7551000883492028
Ni 8.697990704972705 7.232556392543605 0.901542946092616 0.7469640895056298 1.964361895990475 -1.3345413802780886
Ni 1.1397302600037322 1.832226336993975 11.864915646660528 0.1063184581532814 0.7161478754557214 -0.06857877751066253
Ni 5.989450299085952 4.550811692533053 12.640325214917958 1.188804568228185 0.31491951382757377 -0.23438510661693182
Ni 7.5244929018911595 5.492266571910904 10.678164931466915 0.8966575722104364 -0.6591863704690132 1.1184908103042865
Ni 0.4238207355270716 1.2532336043399968 9.429747398878032 0.07251950732596543 0.6428642362702218 -0.4793179068427229
Ni 3.773048211873079 0.9794789125366503 2.508328505743424 -1.507962031396506 -0.8391975303207548 -0.5796456946302082
Ni 7.951316114149925 3.5483257172310787 7.514324110393806 1.6373522837675865 1.2081580330541322 0.06319257349808471
Ni 6.732785746827958 1.8009906716367472 8.039601589450355 -1.5664366305936313 -1.1606347906621883 0.2903832192491063
Ni 2.066553454728198 7.552490332337637 5.293050910609806 0.07978261664628196 -1.0752224865339548 0.15836941321224984
Ni 2.9470597994119463 3.578038586567954 5.227140445991553 0.4304378933125683 -0.4998751621687842 0.5795461929378664
P 1.0107145778938782 1.3114943123234784 2.4566369196284628 0.5753434677104284 0.5010830664339564 0.049930309171539816
P 4.476809310025929 3.6857076039828685 9.709873982944854 -1.4688869197719154 0.941760635196662 0.5000214579386615
P 7.383047167928429 0.14867075893640225 9.224351570836504 -0.5521261490537007 -0.06601384499696374 1.4048515386575613
P 7.56391130249028 5.637464255104502 7.076492734132493 -1.5478768653135728 0.5011054350314595 0.9097084918571237
P 4.936739575522356 8.116906421158243 12.227050300505326 -0.11906778739914978 -0.4338399770155819 0.5427107692770717
P 3.444848975607134 5.71450305618233 5.960686883894296 -0.6790116327250565 -0.24714574871670983 2.1680688567972597
P 8.075506551038663 5.51091623642522 2.681970367372605 0.4242633890707403 -1.2973639998968431 -1.0095521409193389
P 0.7146830315373768 6.572525225890875 10.602978253982519 -0.42720293131503845 0.849173410586544 -0.11684044073052781
Ni 8.438280595742608 4.676974425472246 5.373259145573366 -0.38209395479154196 0.4202303566519472 -0.772845585258082
Ni 5.526639564008858 0.546489293742457 10.859285923188827 -1.2094302148983365 -0.22942004930217264 -0.7246291734538552
Ni 6.728767766967029 6.907228452388325 8.886545876784336 1.0627469797747633 0.17647306479149608 -1.0606541018014766
Ni 1.4195486154784818 4.965920383599109 6.59113177509618 -1.1429602562005605 0.20864039355266004 -0.803777498950248
Ni 5.335189245064557 6.9454634753571725 6.431332679700203 0.43623161717621 -1.2749465514335911 -0.09127801888039118
Ni 0.11233005752299305 8.353875498253078 8.820595966245076 -0.17314040087383728 -2.9738137638865236 0.31274744587691944
Ni 3.3393173767027142 9.134290111743663 6.424632377210653 3.4554258660800614 -0.473471732474591 1.2196930302769253
Ni 6.31542038214138 2.02619936018886 12.732026890447177 -0.7698129690793452 0.5272862071918855 2.1442092765708427
Ni 2.8174661886919585 5.291285017634397 10.141005974063617 -0.07369090192624729 0.7187817135341428 -0.3797012861896493
Ni 4.090587875996557 1.7670213122188867 8.68465523163062 1.1928771956356616 -0.20400957964886798 -0.3386381976007523
Ni 2.309109175054325 2.949169697512435 9.888497038785188 0.19311247312039 -0.21224482307446674 0.27358543096547727
Ni 8.084358949590712 1.1723511193312806 3.686351581577018 -0.12727449157965823 1.5210270921105804 1.0139302153823764
Ni 4.1105034793711654 1.0341894876293103 13.539081260823927 1.133031427122623 -0.8513305661388629 -1.3694615891940416
Ni 9.142968214365672 5.538023840281492 8.961639902221714 0.3832926030853334 0.0653075629585585 -1.9790873751261078
Ni 2.232483180126594 1.03176769154875 4.815906628654395 -0.9955216309682016 1.1919945359203923 -2.103924975129499
Ni 5.275112190020655 6.03520756745654 10.376140357158027 -0.8968342069976167 -1.1724109573615098 1.1865880201928403
Ni 1.1137234725477143 8.69022994935091 11.039399667904505 0.452277357785163 0.4209541221918492 0.8525310142048673
Ni 2.176130553903554 6.878350368821642 7.6680283523203725 1.8742007643233465 -0.7197715882512379 1.6117538664731919
Ni 4.159847574512584 3.0915694723553853 11.981939768783608 -0.9742429240950833 -0.1087023850044257 -0.6815236005136327
Ni 9.015117562946088 -0.04174754463266033 5.321192364535317 1.183877820350529 0.4475935791562485 1.385426082943098
Ni 9.00298106213328 3.302513415054198 9.965657847014043 -1.0687484487738368 1.364093897124225 0.905050424259822
Ni 2.8019997182683793 3.4555360681596072 2.8732821669198745 -0.013700380305228018 -0.39768178192746995 0.21380651113463178
Ni 5.777689917556951 4.266865275557348 5.733097679876632 -1.516581654744717 0.5588395565181343 1.4198444125219676
Ni 8.018383353335444 8.006678005612736 11.007217300443058 -1.0746144206363106 -0.14470399991001529 0.3610944697217394
P 1.6345105380382239 7.160728122426985 1.1266571479037073 0.47473928633310497 0.18911903569028074 1.6753732430960502
P 5.838739360421077 1.1911842532456387 1.4907494202469578 0.09569003190515778 0.8589364035105789 0.3538850964574938
P 3.0718281649108174 1.040225630890707 10.787428297968198 -0.0447644486998842 -0.6072277180135348 0.5274481866910464
P 3.7727913547130196 8.617383424064053 4.293247257936453 -0.2418112238776739 0.07961420938921772 -0.5114692947642869
P 4.960416301597834 4.425061765743955 2.988372521566506 1.2135866602688712 -1.9192809444914365 0.9743092585566445
P 7.752939825354021 1.9138793934828695 5.917252338128245 -0.5326032485294246 0.040047759950505225 -0.2937505930594425
P 8.789239211083821 0.399725699219496 12.935488951012257 -0.40823487485296783 -0.9741128262751223 -1.2027327482735028
P 8.253444348669838 3.2555360751733273 12.300773809524387 -0.5433319478008385 1.233592671077153 -0.8426062988919877
