# total energy = -340875.7404555334 ev
CRYSTAL
PRIMVEC
9.17660531859567 0.00000000000000 0.00000000000000
0.00000000000000 9.17660531859567 0.00000000000000
0.00000000000000 0.00000000000000 13.43088946924383
PRIMCOORD
 96 1
Ni 0.37033842788183186 8.117083696849686 4.098005839848986 0.4415144628417041 1.4413632604303501 -0.3378794650578568
Ni 6.5582353882339754 4.0422579621832115 12.318099685038035 0.1638216945760727 1.2948954837516924 0.340605091519136
Ni 0.050008828662947286 5.014712010597992 10.480553282817647 0.15907081015464863 -0.10530518639741863 0.23436196668848025
Ni 5.938364871617448 8.851689310495873 12.575973308060496 0.6401735768119362 -0.9824969365737595 0.5018610822505616
Ni 5.035359372696426 6.394249450145516 10.711926704832171 0.43740275466617573 1.1133902558529276 -1.2474897407742194
Ni 2.4393619477575053 0.3372742010476669 10.072227379316846 -0.36268598257857537 1.2519845433207792 0.8058454372228702
Ni 8.043753443281423 0.3439180633406745 6.24060921695918 0.17559091929685888 -0.08447565124657709 0.25684960626803505
Ni 3.0377225013701517 0.08803301070342519 3.034481324350966 -1.8563300546905126 0.6125097923480806 -1.2350823682488021
Ni 7.602790025096492 2.162457880504049 4.802160723872399 -0.30862133952368787 0.41762557203924844 0.4344878950122259
Ni 5.875312416071516 6.249956507196275 12.844765256160613 0.5007074282620925 0.6977362057177532 0.46233448491084894
Ni 0.8886459468269637 2.473315387652709 11.458818875417734 -0.3720759084339076 -0.9023723632070265 -0.6291206614318842
Ni 2.3970210905476477 6.991215159740846 6.614323717959239 0.0189297470249674 -0.6679692588679657 -1.5589390366650053
Ni 8.464491623215265 2.285690514112886 2.6606594570679936 -0.3020670833449378 1.2123350472499572 -0.5793906411966085
Ni 0.71123188209022 5.589782339763603 4.130455234122886 1.1041119158747954 0.5515998442365855 -1.0839056161302494
Ni 0.09812085299445168 7.130525205970331 1.8140698926841978 0.3553082020572655 -0.07823275566065882 -0.7186688421053623
Ni 0.49427307180201585 4.511439441902671 1.9534827168939062 -0.30330841195120667 -0.5981609798255763 0.19925766678617943
Ni 8.355409315097889 0.5627957018132265 11.869549049527329 -0.0803343753846939 -1.9822220641003478 2.9387050931088488
Ni 6.891979349193079 6.285937976879815 1.4623012434434293 1.2860953689615593 -0.08020093513062317 0.3706186071620907
Ni 8.964488143790968 5.40376337216477 13.207023683007924 -0.6226957317421469 0.21820541153327583 0.11514994040198234
Ni 7.451449449217651 3.393013131754644 8.862184594065642 -0.7140884218235315 -0.13553621736781818 0.46709308264175686
Ni 1.6349590736132313 -0.0018591802493968584 6.134451492975479 -1.0778000174531437 0.317837201695001 -0.21607242435067306
Ni 8.028061448086612 5.685650336137981 8.228985058138903 -1.4984278666538258 0.5252375521929729 -1.20847762117708
Ni 3.9337721334153453 4.266919615024938 6.436632519740108 -0.6179862420816196 -1.604305637725263 -0.3426917988448356
Ni 4.678490366187075 5.263627431451346 1.289506681853509 -0.936596060276587 -0.9099478615614394 0.8262042033848803
P 7.355865927609963 8.959064770013113 3.852436209316114 1.3247976706277635 0.13432239956537514 2.327517362006301
P 2.747512356319926 3.7526534730878733 1.669446591941382 -0.8639693379487958 0.5384064854747631 0.19217093514272712
P 8.3485176844597 2.485162385194522 7.085237740773893 0.0386922743638753 -0.646051375748952 -0.509495973088
P 1.0456925359292735 1.4825723647214042 3.791405359934754 0.7228335150060132 -0.5363586018067988 0.7229715832457743
P 5.007379902901703 2.977065139827638 4.546033408853195 -0.5118446758258346 -0.03427151958836033 0.4408092092445634
P 8.356051677474285 8.715086362852627 8.349272001421697 -0.5272725803451307 -0.9241249243927697 -0.9384269428377386
P 7.824313278899256 2.6000167780940835 11.55118324385914 0.4490935607405427 -0.26628992574532845 -0.8518915808486553
P 4.372101865857054 4.727364966425416 12.588302995045144 0.21567390336067374 -0.5018929639297615 -1.565228469218143
Ni 5.62863608693017 1.9277386681690398 11.95588255291492 1.808207231041357 -1.1959239528817853 0.049889428631275365
Ni 2.231410893307445 1.6176336426613 0.5965582683165874 0.7539939997692175 0.5605588532020862 -0.04338839428796398
Ni 2.108783915653495 3.4541568533821425 3.869304645320267 -0.31855813902142555 0.0882492593563964 -0.4132025032708883
Ni 2.335877368920149 8.330504008104489 0.7907324851140342 -0.07400869027698222 0.44494405734854336 0.6288213850239106
Ni 1.404552865805451 8.061418408632306 8.360782217546172 -0.1484282428391379 0.029163766048149773 -0.9487758901722305
Ni 0.6325379026790514 3.5796928149406275 8.444228760882131 0.5296899315373716 -1.1701067347083653 0.5026979763295601
Ni 6.031846950593785 3.6482237038966776 2.6191977186532607 1.0610410528272503 -0.055915580220697245 -0.028452084693105843
Ni 4.552367101884458 3.0362083614829327 0.5301719520371615 -0.6299128183158765 -0.6822288541107734 -0.33975842724812455
Ni 3.5748567439069054 2.666822465239242 11.712957620051725 -2.346203111341263 0.7776892865036285 -0.11686358065897937
Ni 4.657668648586476 6.473801442159442 6.409918503826884 0.11891737786421454 0.5838859579638008 -0.4353893237805727
Ni 5.321384985694702 3.594017495934253 10.091675359092497 1.2917659369837753 1.3228243489514766 0.5452057677847836
Ni 7.732271926967121 6.705125310504931 11.61363646707395 0.7008870926419091 0.1378422397931755 0.11514582663692427
Ni 5.546340289908496 1.25076213629093 5.884435797137412 -0.4087858622604314 0.5971021995437588 -0.09773431602869619
Ni 3.3271434583579476 4.79044495178748 10.500390350661286 -1.4525100210757889 -0.3953839870322287 0.10905822568194767
Ni 4.117992486360271 8.623320309081805 8.371648235973174 -1.9367893856888452 -0.6163571911186289 0.6048252792196294
Ni 5.412499500483752 0.08703643135947405 3.1101369297217825 -0.5580926510497808 0.2980867585409511 -0.7032360524900598
Ni 6.055586828704297 7.632568109545122 8.184354637887465 2.1668069593657004 -0.99607030438282 -1.3546576914119894
Ni 0.24148604114006955 8.411588493216387 10.211531919583106 0.5103408375867985 -0.8803755472209611 1.4007125767885233
Ni 3.571158571939941 0.19264539434162484 12.411485409657912 0.9367750090566125 0.42950046909996353 -0.84727362246067
Ni 1.5961695626843049 3.865158655010901 13.133046478760575 0.4819939110129893 0.08095889634257025 0.5494889685411698
Ni 5.252367736653667 5.315025598168384 8.28272234156656 1.472901183137631 -1.5071395354952108 1.159036850047449
Ni 8.756509559524776 4.375442150214313 6.013895675155137 -0.7854871852814924 1.1711961111178022 -0.06144396623809418
Ni 8.108815575404936 1.1774961189603057 9.805812172009393 -0.35147083058904627 1.9687633674922804 -1.138896370543832
Ni 7.565092530207438 0.003701842609114969 1.7526912499590455 -1.537177733728514 -1.1466790998130447 0.21843038305988835
P 2.2135715724543967 7.259704279863517 2.7093863139597625 -0.9111619364741985 -0.4536166454218768 0.8360312167776311
P 7.858899904565479 7.987289790396236 0.057462985210751175 0.6562601979611535 -1.4672815229580085 -0.9059490248146914
P 5.171228191909506 2.8478677127236973 8.032316639999966 -0.9481043180265025 0.6653858144115057 -0.24216397923140232
P 3.837638015485032 9.04027772760029 6.312384035916028 0.42507457211812594 -0.6160859397351132 -1.0897559042634395
P 1.7040772653134149 4.965378580090797 5.824171194305038 1.3876935388210359 -0.8848670073334115 1.028139931223855
P 4.534436014977639 0.6925510665240937 0.9022337464088095 0.2551351946800896 0.19813203782216846 0.8159660705966398
P 6.8699004366558185 5.472468616622985 9.96935946836083 0.13518320490377364 -0.5659298877060124 0.6996444784840595
P 5.332314322698807 6.487373641512146 2.970751635328205 -0.10310612186357082 0.34143041563390875 1.3816085089692205
Ni 1.0719559805184828 5.6689580909570685 8.119254881681906 2.1340621608345116 1.0810547769450156 -0.07717371826852515
Ni 6.581204431492813 1.828200029643829 0.9475010230734183 -1.226678460455823 0.6717174130564884 -0.3779303103321555
Ni 3.54603302641749 5.369929228139467 4.2965416971821595 -0.44532689460925884 -0.050177906405971646 -0.46702777662146017
Ni 3.1017752069021856 1.4842792133215414 5.0609336542218175 1.0483364607763879 0.8605726535624211 -1.4533993656592774
Ni 6.982735976372423 8.231580202139542 10.139501990996772 -1.0555666599762403 0.8826018654483186 0.4453605760606717
Ni 0.49832454307599766 0.5073286282719908 1.8959444835190629 2.7443186383720413 -0.8940741277539763 0.48959409195775033
Ni 4.569775122284783 1.5125248046722004 9.765693888621866 -1.7615617632686758 0.028836721726034204 -0.28663223684710637
Ni 3.574535562718707 6.842297207681556 12.6610441105482 -0.12749354956899978 0.14168706746056242 -1.4240455950875088
Ni 3.8930188289357233 2.212626382100557 2.712395322862908 0.6915601588140283 0.039549737268164145 0.17696594526751458
Ni 2.5758455995308487 7.072217055404351 10.329240236754938 -0.19296334913703542 0.28848394534386446 -0.35590058422562576
Ni 3.7608114752680994 7.674780494279701 4.470323661510654 0.5581469013264839 0.007898686021786398 0.3053136153066935
Ni 3.2109401044679555 1.7401046180238395 7.485303781774783 0.09874527379171381 0.3946098278703655 1.0354845445143845
Ni 1.2597185031389624 2.698261515261126 6.098725132921422 0.17886573339338874 -0.41581114453832907 0.3455246403079404
Ni 5.974410577538627 5.045435285400464 4.657537423129583 -0.09894556272797797 0.7328343349724669 -0.422443305142866
Ni 0.9021640042079436 7.553337298719394 12.508993265413173 -1.8455861859104474 1.0646048589191084 -0.07037392173787235
Ni 9.018308934327555 7.22692544545658 6.299785474393832 -0.2043718480842932 -0.30368096479927703 0.5419270970335118
Ni 6.096321779973165 8.055297612845793 5.5564932860977 0.019952017641894672 2.277093658138111 -1.5446735278849268
Ni 6.441591557285883 3.6545555616068643 6.50107431334013 -0.02575988257292338 -0.3172589605940278 0.27168127196422887
Ni 8.822984888876361 2.054054641184577 0.2836103304630278 0.9358581536692979 0.8985391055038653 -0.5115091468632867
Ni 0.7062214555543331 1.1889852288924123 8.189230168324308 0.7342088467224903 -0.12435577527096649 -0.4273224876120383
Ni 6.204697489476507 0.987035674358964 8.298234475295978 1.3680405404767988 -0.7766317917733916 -0.8741146539129139
Ni 2.351495951271943 5.892188193359971 0.9155893778746149 -1.3344475350127019 -0.49084441942508367 1.1811601643090497
Ni 7.824698696325093 6.480546247111597 3.833148820134563 -1.9414875624954628 0.74593667668238 0.35273555623408287
Ni 4.6937694141399176 7.6084336374033965 1.1566009885166895 0.3164138389849131 1.6352858881568613 0.8555662014867651
P 3.3734669623014586 6.217865918192619 8.372279586423117 -0.9722678026465835 0.5414149332837838 1.115572351105911
P 2.2721274913655582 2.8010762019059547 9.795120509084555 0.4494393741157356 -0.3897710117208255 -0.7752706497598068
P 8.077771119414267 4.2275703311680095 3.782622430928348 0.13732699071965382 -0.10834808698880051 0.10783849434223364
P 4.771899032320396 8.777267040887736 10.605487259063395 0.2633894642690819 -1.1588915827188364 0.5761831900029044
P 1.468633101153616 0.44405134589432027 12.242833167735206 -0.8414642148677444 0.4220249866585248 -0.09136029418155234
P 1.7402973267367583 5.748592672419388 12.012238839517194 -0.40786000801205236 -1.621292916311879 -0.9159179631019453
P 6.912268823681807 6.3690321385692945 6.268128938824511 1.328105651955074 -2.4248567565894237 1.3326094533626984
P 7.617775421677266 3.9416548374342586 0.8733063332786332 0.2144279467687146 0.012261333865856303 0.44973376542770294
