# total energy = -381170.8041182512 ev
CRYSTAL
PRIMVEC
9.17619265588542 0.00000000000000 0.00000000000000
0.00000000000000 9.17619265588542 0.00000000000000
0.00000000000000 0.00000000000000 13.43028549565331
PRIMCOORD
 96 1
Ni 8.294589913002762 1.136471455845775 13.224359001738073 0.38185741330070366 -1.679226041183237 0.3850401819040594
Ni 4.309883325418647 2.534124882202154 11.341553848287747 0.2753818607442677 0.15675681730949131 0.9526150614126625
Ni 3.149590473534312 6.234011627089482 5.090468079592353 -0.27986560754723416 0.287785376614943 -0.1023874985299914
Ni 1.31765537910516 7.129140040866628 3.455827549803517 -0.2427440201045884 -1.2148511288035917 0.6799572844677774
Ni 6.616567097369743 2.6367605966440997 11.160540602211073 0.2916353464886526 -0.3166521802479644 -0.1707068517316802
Ni 5.130124831233279 0.5250700002245094 10.384726550579913 -0.6535970493066937 -0.24757923670970267 -0.45234292091577577
Ni 7.840863892770625 4.458445883917985 6.668848454815697 1.2026707846873157 0.22799797214366538 0.23985924235762562
Ni 0.6814543453121642 8.97708759141569 2.22636547557748 -1.6745895708524903 0.45264245443406564 -0.22629230230646832
Ni 8.735717020769204 3.692885309919139 3.9405131263124247 -0.7714386776082263 0.23197932538891664 -0.18450004886103064
Ni 1.8508380512240032 4.457106159795632 0.6850871999699707 -0.9915932424480729 1.164525383965846 2.0319281730762233
Ni 0.9022353749604525 3.4427698277068797 5.760692600377556 -0.2698650446910965 -0.20457727922687993 0.1402323372919069
Ni 1.7564333815611746 6.859974782777616 1.3035809348663527 -0.4232156645325163 0.47839642346971806 -0.08387684132031362
Ni 2.6438262649606212 1.2247464288392054 5.529745266926833 0.383035749879521 0.2642996347881771 0.14550284166222682
Ni 8.1420265345216 8.860531592770934 6.756145245675957 0.06473266429169497 0.1700360509169007 0.3198881706867588
Ni 7.926468593711967 6.790483476074992 4.876025963805172 0.5145073102596622 -0.9945854923071774 1.0942728182971864
Ni 8.508064858087915 2.4811598984060956 1.7308547446361031 1.6663250168508528 0.7849043161948289 0.19806570336060728
Ni 7.75568129668975 3.669357552044383 12.864508184854657 -0.82737508376453 0.5039321058469773 2.2175209407808003
Ni 7.603273913483109 1.765233350282661 5.404078226630811 2.7839025713122503 0.2969598440253596 0.11579837261925864
Ni 2.7198877255783493 5.881131963738614 10.499824452217533 1.8271017539530146 -1.9397430690005304 -1.758223442924062
Ni 5.432810720958985 2.7541149240466964 9.280958127608493 -0.6843438435712472 -0.8614357728936649 -0.1986398306965224
Ni 5.378423427307003 1.8387438293523461 5.626470595702972 -1.3784473376324196 -0.6719372423767782 -2.9124716133336164
Ni 5.7426356885421646 1.1136961457657653 12.933928834874116 2.3910727181604434 1.6488304596105152 -0.8218572392700942
Ni 8.651782386884495 5.172830831681451 2.0818954989861527 0.7511639865195903 0.783447014923012 -1.1161107401078842
Ni 8.679934945839156 5.415697121724811 8.90449381398863 0.26955599809110997 1.8696846216205478 -2.007502178823375
P 6.797393149116993 5.595752373292077 3.2662189641007573 1.7640595899898652 -1.0759218265938246 2.175652068461156
Ni 6.601288736659342 3.9020566206660456 4.84606294204681 -0.4048654441601027 -0.1868531224742395 -0.680392315122667
P 1.0470219301971304 6.8932568334062205 10.237665217193019 -2.3989012130659266 0.7314091724901661 -0.9387719848819831
Ni 1.7267392222465447 4.23437243635805 3.1118240175728715 0.8728797530645483 0.51289497146722 0.4966090898230027
P 8.628777671989013 1.9248807494655824 11.394791365004586 1.1945702670673684 1.1227776106050986 -0.8900215549511575
P 6.431584230366151 6.459066927259636 10.335504535753088 -0.03420364246490239 0.8654564640172837 -0.19347525577644745
P 4.003921534928008 4.734796100827564 7.941690062028131 -1.0924491348248864 1.043795892593557 0.43615525541231986
Ni 1.367170114476527 9.16442873992233 7.922578805660833 1.751708781733996 0.8063061789093725 -1.6291342667331685
Ni 4.521697379639785 8.144861978040828 6.298132108252289 -0.45130856611399045 -0.3238412417972358 -0.008480012446553137
Ni 3.9026071922231775 5.776844534625273 -0.02372412839679989 0.9413795977081594 0.3028474131543881 0.23975716956212256
Ni 4.054858580155297 4.094224446490206 1.6921357998808246 -0.2477335028993798 -1.3482893259918005 -1.526782506537119
Ni 0.44646673425135724 8.783772741514174 4.872265560069964 -1.0495826744786634 1.6878181537276222 -1.2607504624388675
Ni 6.485476009616714 8.175987623404001 0.17299967706262398 -0.32322571970042396 -0.9551578824391744 1.1530520932189237
Ni 3.5730809390873066 6.249565273578449 2.457446781440438 -0.4200213259649347 0.2680922690613899 1.6021597950268536
Ni 3.213842174251568 3.924822754553437 6.021710317040283 1.648742527882399 1.0341272591555415 -1.5574585954647369
Ni 0.09625642533331458 8.777055768517167 11.046731955636403 1.5459837620559183 -0.8172428804265344 1.5791602488078866
Ni 7.767803047139264 3.1672821729034735 8.785596050987541 1.7693586336052756 -1.2056607205535754 -0.0803703708289519
Ni 1.9661827924430697 6.594406592195198 12.542516503478131 -1.4040812361504398 0.4621339388642686 -1.2770720824170263
Ni 1.6208826641953789 9.028428389118211 13.128990831850263 -0.0935022802252196 0.7873702612368182 -0.1380055048439172
Ni 3.7611103020403607 2.4302687341418996 3.6340879380945337 0.03829375337387598 -0.4102655321297515 0.4917450768624822
Ni 1.5158244349020542 4.865786250461787 7.808811451952948 0.802110138550154 -0.27036435292501826 0.03110572026586901
Ni 6.8495965089256865 8.375634046212532 11.380448058322047 -0.20984649804561925 0.3124800511481457 -0.384513362866312
Ni 8.364650143647756 6.515179345123963 11.564254537431902 1.06411197844309 2.410708747223816 0.36493775472722956
Ni 2.5442829274312317 7.035983333399964 8.12873390189392 -1.1464857528553158 0.012338981181327136 -0.35871439952533707
Ni 6.271046740499201 4.84507558372102 8.480056365357369 0.09992746702527307 4.164155594694841 2.6274388597631457
Ni 5.500861365420448 3.4325659015147076 7.161350312197349 -0.5522063674723328 -1.7149273512395886 -2.949859052843139
Ni 4.253743378976464 1.1238450148022239 7.3505294520855475 -0.18478132754687532 -0.46600344912200387 1.9698918246697688
Ni 0.8018074524626044 3.0094608360517054 12.544074620984812 0.22772954897362718 0.022381195908677584 0.4045674533037097
Ni 6.726809875492724 1.3867704619104113 7.560095339115065 -0.18451264726652095 -0.4657694787343269 0.7651968104635726
Ni 5.396261945758067 6.984101140332932 4.06947074928157 -0.8430552135039481 0.6247086484071177 0.07830860320391675
Ni 7.12131274856274 0.6529475853224147 1.7027856890342732 -2.078101329198176 -2.089978026031104 -4.0808274267891465
Ni 3.9407709773250152 9.221614772323065 13.017210123844363 -1.5569739425188345 -1.7174411188003778 -0.2576502477924595
P 0.1215148131359878 1.8856984069830511 7.454640698300605 -1.213875909374516 0.24268205651840138 -1.2357917356110009
Ni 6.209300140366894 5.822734673912191 12.78250238665843 1.0332520556394398 -0.29334435875995934 -0.6381413768732559
P 2.3137402640749998 8.265253625200268 5.759470331520724 1.76758842907873 -0.05675710228538612 0.9616195789041181
Ni 2.734991738628993 0.6545066204483589 1.7023957008479715 0.7546915400568744 0.13001683021148575 -0.062272118566344375
P 4.271884711783949 7.658734821671498 1.0754433515955246 0.24323021571238757 1.1760277281784908 -0.7151775411226522
P 0.021570475989153515 5.354326745489877 13.159624633289065 0.12315301321211693 0.04609550880648191 1.048194792992201
P 0.8735120568248979 5.591815786658586 4.859721704759983 -0.3512155200451306 -1.7026886430815515 0.42775469005345046
Ni 8.007274145913646 0.8736937454387513 9.826415792593584 -2.7193228876586524 -0.1492895623981687 -2.9067290544228843
Ni 2.233255878614982 1.4790187263078078 11.416897730642681 0.12100177119706902 -0.5394871201334516 -0.32048646639239
Ni 9.075171914318682 7.666048247188728 0.1975524156529069 -2.115886261256433 -0.44702176581317854 0.29542309566585895
Ni 1.023117948425001 1.7072581653167054 9.378032151704145 -0.12227292460000878 1.2108024126555148 1.5019896158631552
Ni 3.1189970473430337 3.4016421323891506 9.55900594015256 -0.5178204337932953 0.6571312877121973 -0.2564780818612293
Ni 4.542573217847691 7.152594389200433 8.877123066645096 1.4529733338654525 -1.1120381127004073 0.9219394867056767
Ni 6.598178007361549 3.894513790333343 1.830399917404017 -0.8399572913049147 0.4717380376129359 -1.3900476408755094
Ni 6.7079619758535864 2.1602684425245715 3.18714128896921 -2.512156250438041 2.5946747779582475 2.7895962792629185
Ni 8.916029205729798 7.9119518569889316 8.69656679496084 -0.5354826269597487 -1.4379416363433106 1.933784280313934
Ni 5.203571076954632 9.434502441080609 3.4608505976430806 -0.2005550454413643 0.23654894703747 -0.6192743647654239
Ni 4.7639488647776815 4.619744997772302 3.677386720585885 -0.051570930098756344 0.287985151330575 1.74474649148355
Ni 0.737408932663447 7.190134193204189 6.614187710623674 -1.1210143480570884 -2.2432422568063046 -0.44390790277454517
Ni 2.311923377936466 2.5370979686106643 7.434616410767729 -0.7954170428006947 -1.2781020663434375 1.5994441958679033
Ni 4.331493259036062 7.255982551437126 11.409148435976054 2.837223651332894 -0.24376166273582534 1.3345328956376565
Ni 6.5356147260861635 8.790104314421187 5.125278883911259 0.4615050470310181 0.1685052160946711 0.196057671791643
Ni 2.681916640521508 8.38224090489811 10.602887777235516 -1.1809945852654629 1.3252417001437176 -0.834289551496176
Ni 3.054350770343167 8.787938732963136 3.793263680976845 -0.2032567606432435 -0.5314886753090072 -0.07019317318563395
Ni 4.86262046400828 1.7767586482119488 1.6447939869216037 0.8248980829789472 0.42553762779747356 -0.34471217170897406
Ni 1.4178226977326325 1.795450552576566 3.6173936908630417 -0.8379893689452665 0.3670306327005163 -0.913808115847794
Ni 6.505278233288212 8.371880983431417 8.859408426794387 0.49359884224176925 -0.5376582944548288 -0.7138197415431771
Ni 0.8795610029992502 4.112044612556032 10.22533608479032 1.3415692336591476 -0.6643589158088881 0.1902150969679369
Ni 5.573922211051809 5.589576795659584 6.084617705538875 -0.487279842002277 1.1837880888502 0.7786269678265494
Ni 5.867982479715788 6.1689340690365295 1.5737473155700823 -0.8899536778276996 1.1281998100619344 -1.0428695241245458
Ni 7.9411505019021424 4.60357654637787 10.765125615594743 -2.5143458018901925 -2.25874523753791 0.33411562714005033
Ni 5.130574464671603 4.940654806039063 10.946004889259182 -1.1832029057706914 -1.740209265734829 -0.5031756872969271
P 7.907473874990928 0.6153380422547562 3.4791690309681105 3.6234433439050373 -2.7913060628651736 3.5454425017495264
Ni 3.231029183026692 2.3754226308589748 13.42922484290821 -0.04027273147711773 -0.49468847576152225 0.6479197964162583
P 1.4082060478680674 2.3752024022361224 1.2020683864009554 0.1106610513926933 -0.7414452165699296 1.3237895410782232
Ni 2.733918124092586 4.2021272954953774 12.160075735605606 0.9538448200547056 0.28986437063115883 -3.292886380650522
P 7.422943376137278 6.602298117847417 7.330921763697567 0.15752840536819324 0.6636122674508507 -0.46125359314184433
P 3.2057763009395903 0.9791731619732817 9.268226160349824 -0.40175440933494677 0.5120125688622666 0.364680644411101
P 5.343498838199624 3.3578716935971897 13.191320120213867 0.24385216556710262 0.5780829781287786 0.36883220468562933
Ni 7.582921118254479 7.63328006334678 2.592367094373318 0.6406967963052579 0.25231932249784933 -0.2326185016348123
