# total energy = -340861.1768650643 ev
CRYSTAL
PRIMVEC
9.31345951369535 0.00000000000000 0.00000000000000
0.00000000000000 9.31345951369535 0.00000000000000
0.00000000000000 0.00000000000000 13.63118941721029
PRIMCOORD
 96 1
Ni 4.2682002054887125 2.460522891506041 13.408128631373998 -1.5599402242360103 -1.1379108667021114 -1.2537082108801054
Ni 3.563851196381906 0.1429979273397729 0.18650295981943915 5.210143095623079 0.985279127304587 2.002650250047712
Ni 7.594716510904842 0.37501203883654055 11.578332782189245 -0.7260527932742593 -2.2559756452125725 1.3395234068737123
Ni 6.755704189453564 7.238821279241568 12.50476216678434 0.9051003036611509 0.14910161475707873 -2.2368204124403603
Ni 2.651048334526364 0.5984922273025841 2.4365891630280814 -0.4683107570989419 -0.26640562538758633 0.29015156285427446
Ni 8.37210167018838 5.367588916954126 2.7437675502199905 -0.6395187168367568 -0.45982020312942745 1.8321028067120317
Ni 5.140796862254616 6.007749562503419 6.511088035773152 2.034915280729005 0.8801300068690585 1.1629598392509388
Ni 7.95621844524682 6.253513134406449 6.241721363207934 0.6015059850384092 -0.398529731750062 2.2321268636194334
Ni 8.34546517573474 1.1087673652817829 4.406077592740859 -1.6352511782641836 1.178179741524487 1.1361337201970305
Ni 4.8921088640374455 8.309990208121482 3.07612301274635 -0.29145948303242064 -0.21408213339352164 -0.043287349933725454
Ni 7.024704843056535 7.436443578476463 8.152950377744032 -0.25221596415076564 0.26198332795017465 0.5685398145250338
Ni 0.714554698135583 4.537293993687676 7.454897267326269 1.1002256934465118 2.3383095675257985 0.5532998576468278
Ni 7.572876448144777 7.5716470714776865 2.2797756497188923 -0.5650181745250205 0.11782285924845516 0.24754786925113495
Ni 4.584988220295051 4.350195903799849 3.577982508631734 -1.2506887073274913 -0.7367570670656408 -0.32578191046337446
Ni 6.226178130482872 2.181994568733114 0.7554268155865626 2.672393570096965 0.40568665450981745 -2.1671486589758353
Ni 4.703660322507739 0.5889068146831133 8.580234208580944 0.014872803346774387 -0.5911655223443497 1.0755441315394316
Ni 1.3086621486588756 6.03969472892859 9.65405840479258 -1.9376239657749983 0.17846386996927976 -0.894335351835163
Ni 6.489143662265576 9.288732363939182 6.310055147633041 0.6221647989393414 0.9897973268899147 0.7315153590507273
Ni 6.637311491028852 7.47044701947305 5.058356911920598 -1.3130567280417516 -0.1605903321229686 -2.7924903129812617
Ni 6.502778567118769 4.714994802839935 4.9864523470851685 -0.457621909926528 0.4717264676487102 -0.3136218780620728
Ni 1.388776528130979 5.376539151628934 12.933899376081486 -0.7407757013067306 0.587620999526201 -1.6566345290359663
Ni 1.1982697120298544 2.279860402201245 5.66016100545665 0.1698445037313849 0.39750000493396703 3.80746439624712
Ni 6.272130740145201 9.133626007774522 0.7151162997494134 0.21642517970440148 0.06850087308487557 -0.28132805102537356
Ni 6.8534955152449015 3.153947212503016 11.718188348260256 -1.3463440293399718 2.1379005607439954 3.928976017201072
P 6.927779669007921 0.12637899003100506 9.208577005244843 0.17805583589758367 -0.3399445751170016 -0.3579410116944223
P 2.5586774422217466 1.1740919709103963 9.746095875243547 -0.13312015172715785 2.6471126840429897 0.9038607748270949
P 6.781819130169651 0.23994265965354533 2.933622424149173 1.1054884845073478 0.6922702975071754 0.2038889949106037
P 2.0753740832417584 4.503709658373051 4.776941416671927 4.108436189645349 -1.8386742892819623 -0.3173659184855373
P 3.1518330571740036 4.729300276784268 11.885457151315478 -0.20103224218809893 0.5092064668720392 0.04535194577223802
P 3.0062450567197 7.553634840612882 1.799671464111221 -0.40277179485586767 0.8081668862671952 -0.26533039004553655
P 8.156737230417058 3.241707942306042 0.04500543082109332 -1.4930637741284352 -0.27367541957612224 -1.1649537297525163
P 2.665847421829453 3.4125726721125065 7.633357123435859 0.10609502928856568 -0.3801329744104292 0.06276448482173061
Ni 0.20514198651526808 9.027685404833907 3.116062852891452 0.7447146313498206 -1.4991413477810827 -0.7336547739912332
Ni 5.101643078099685 1.4883839785441555 2.4547587913601117 -1.8934989504313262 0.07715906298050583 0.9424057249798286
Ni 0.6109964781604365 0.14158973224837765 10.85521156391434 0.7557516058902726 1.7450120864401106 -0.6558634767433672
Ni 1.729621209081986 8.651235367835254 0.19570000117362443 -2.637457934562045 -1.8747252693682486 0.009878949676608793
Ni 6.620323740719956 3.861639753605927 2.3393575761586547 0.30859460005081046 -0.13895784145485746 0.7137107267691386
Ni 2.9339446698513045 3.189813345419439 1.949655417496335 -0.526765301691409 0.19173976114257946 -1.2469837476720782
Ni 5.2087106096518 4.737552001989136 10.86029578150953 1.2058918627277748 0.8610197684021687 -3.106845212554617
Ni 0.48132238612324335 6.374802318766505 1.0509726917391025 -0.41776698271311924 1.7241509267203854 0.6615836670565961
Ni 5.529298515974602 1.9069960471482739 4.7151102897389645 1.1926982468556362 -0.33872150134317797 -0.39715496288972246
Ni 3.6249288644332953 6.665931752377117 10.099729798916142 1.376804659822674 1.7239745490435212 -0.8268991725693758
Ni 4.704600981927256 3.3180038033424837 8.720648582227904 -2.5427559776017694 -0.7980125714420128 -0.4751540052730204
Ni 0.26396859138153705 2.5360457353957515 8.328234344130307 0.1919019977520566 -1.7526539192560846 0.7349259273941731
Ni 3.185715423195802 0.2867884300914356 11.656603096660712 -0.8133227194365218 0.11858879088020222 -1.0693940527776358
Ni 5.0240526461789585 8.61998871088002 10.679341780919279 1.5925101877522314 -1.0196498914749728 0.06723563321920678
Ni 8.31565279155778 2.2306760220580015 10.47581474829851 2.9924218659060142 -0.5180415486651658 -1.5024729832574768
Ni 8.83043564398298 8.854501623587248 0.5046209366565395 -1.4545890150920044 -0.2295583746522498 -0.525393875265179
Ni 8.3617078492757 1.6907282017958314 1.764843781940106 0.2885513082466901 -0.4623409126687521 0.6018409997803248
Ni 1.9993576259932924 3.2425834075083646 13.240056076755364 -0.29575322531176806 -1.2381201266338613 0.016473572174990986
Ni 3.0856888671006626 4.690016104194947 9.69991322312912 -0.6213160777858009 -2.758893193752107 -1.5585708546923094
Ni 6.309691922708673 2.1613838826401395 7.399459830408138 -0.44555803678345846 -1.5312400280878402 0.07689372513426113
Ni 1.130328024253873 3.598031593110878 10.91334804142431 0.6391507919743766 -0.3358297816176797 -0.30629114872861446
Ni 3.173729000691664 2.484933469115479 4.032500758028552 0.17920126235593653 -0.8249870431483275 2.384169820393023
Ni 2.570859447377467 8.557094918206793 9.261534267871712 -0.18777794828135402 -2.4794405053725748 -0.7444577781440083
Ni 2.978537514412154 5.521773240618469 6.768594017538822 -1.3831383153501857 -0.8389535326307488 0.03203568827930611
P 1.2519152393211026 1.756965526465164 1.0941945950469538 0.5449689691836292 -0.27684816087714903 0.853486179029285
P 0.12540945888673094 6.70823348587657 7.920279667345523 -0.5449424868210679 1.2467186669361496 -0.9846479214784913
P 8.847525842347466 4.480621592026696 9.572434313519452 1.5050618270305756 -1.7934048759212018 -3.206856754653264
P 5.647737781697311 6.1326896230263515 3.2527974786507796 1.0350088904295467 0.9531087132196294 -0.1683956871000003
P 4.402267456418837 8.585789687231852 5.322338542145575 1.2370484908362374 -1.994335302424114 -1.5169899459267293
P 1.7325176950173296 0.3971315053845812 4.778876753576636 -0.3967057911674458 -0.0057479582273707456 -0.34550098615885655
P 8.08503290496301 3.5405209800859727 4.400243641647936 1.644198874375775 -1.4237236929717156 -1.5191964666597448
P 6.234495049904933 4.35617514486252 7.439712602795773 -0.42312130504649714 1.2989521703195694 -1.407060630493738
Ni 3.8473994738787884 6.530895901648678 4.652815352517963 1.2422745151218668 -1.2958437065975748 0.21839618738784322
Ni 0.12726283734696678 3.939034602875071 1.5131168018557244 1.6694345090141118 -1.545605809891209 -1.31035449861924
Ni 6.038651621453482 1.596606379086569 10.486351065143054 -2.5915637431330913 -0.26521597595485935 -1.7520437964759115
Ni 1.5927506068125106 7.5263370905277 11.35169998764888 -0.34958466930992693 -0.5855607745630624 1.4547630787760235
Ni 2.49519690159377 7.975841904622281 6.45162811565414 0.5593365507592108 0.7396922384345648 0.40567199922179814
Ni 1.6512763869337261 5.163260926807826 2.78080345366207 1.0089481887867526 1.0417271829899866 0.7945469814909154
Ni 9.121537137214792 8.87004578765827 8.577739132754324 -0.15778500146368957 0.3489861164939796 -0.38017771160543556
Ni 4.685424568612555 3.4883190390325964 6.089270274374998 -1.9464441351697894 0.7769164128933459 0.7142622283972344
Ni 4.229474840475343 0.8817806592766498 6.460338994417247 -1.214148189199296 2.126212582883106 -0.5959488026656059
Ni 5.76650301850599 6.889305767403729 0.7593105282394185 -2.222095961745992 -0.6033029290378319 2.587612214684511
Ni 3.74103976525621 7.026390579243986 12.257451629241887 0.3792246036635469 0.36869439355618444 2.000318259480426
Ni 8.476608000350723 4.860545549455842 11.446655364992269 -1.0220281618991625 1.5474868289640058 3.4417735654039503
Ni 7.547338941923839 5.392195077215147 0.5876327334099462 0.12264676299965972 -0.24222028639063445 -1.6455163076356176
Ni 2.0365276432535997 0.8919593392725881 7.64284474472954 -0.02039167628247456 0.8644563048875434 -0.2514495182983863
Ni 0.30293238096064556 5.260493445023213 5.154715827625583 -1.1555090393998488 -0.5218089861273981 -0.6684490267178617
Ni 8.455028714459434 7.526681688532869 10.496179559058064 0.3517796200787167 -0.6146864882844253 0.28990447984047496
Ni 8.144136119579374 3.520180384321374 6.648680431161564 -0.5214906835560309 1.510398922972773 -1.1426540378140515
Ni 0.11704690351263172 8.643281673337558 6.133462640173084 -0.5209273548533931 0.04108494296576795 -0.5436764756244508
Ni 2.223569852383831 7.716247845214477 3.904313094143387 -1.8285919653452958 0.9348659649593577 -1.1677158658786857
Ni 3.828390702836872 2.804031221902412 11.154552674853543 -0.6505932294833635 -1.3104012926967754 -1.1535696562852906
Ni 3.2751339488074813 5.6845818278716465 0.7335606751396195 -0.2323855596883998 -0.22277529029214535 0.9190369683469011
Ni 5.1052287600453665 5.0630946688186995 12.942460308145048 0.8481768510012295 -0.11472982214542822 2.120033193545271
Ni 0.8376665265391975 2.5692016515688145 3.6016871260035543 -1.0935253986082005 0.7358900910796552 -3.5128103175368017
Ni 6.780077513224605 3.580345333332045 9.291495667402257 2.6192339553548503 1.0789706407224773 1.5451034163334938
P 4.816008585652586 3.90438853316614 1.1214243568770617 0.19025109241219493 1.3368980534357233 1.5887309232154574
P 4.049631935615274 7.283553825696406 7.9646499202219525 -0.4190227094970912 -0.05038179488666162 0.7163047127485599
P 6.5156590817444275 6.654476197070132 10.281938322514403 -1.801489966922181 -0.4013895697963603 0.17654222746653467
P 8.198740933209336 1.450310555702728 6.652810950493799 1.3370106677541878 -2.319136079921141 0.3199190239246942
P 8.981770049009974 6.851753898299855 12.59021688399061 0.47926777033107776 0.4864210935464075 0.5546658847564189
P 9.269723592897266 1.1887234159407 12.641278857589045 0.38013246018979696 0.46345368611695664 0.03442218623361168
P 5.403352601814958 0.7362736859208592 12.466349734013503 -0.221548874084212 -0.06336355185831023 0.28837878722456783
P 8.845802852321619 6.888886661721767 4.022768192747414 0.29959985275136786 3.19607560487736 1.1034681116432092
