# total energy = -340869.04604393843 ev
CRYSTAL
PRIMVEC
9.28563951529284 0.00000000000000 0.00000000000000
0.00000000000000 9.28563951529284 0.00000000000000
0.00000000000000 0.00000000000000 13.59047203745312
PRIMCOORD
 96 1
Ni 7.588345472051588 4.940248172558537 8.675505381847637 0.41874425902472395 0.045819629437275924 0.7570173599765736
Ni 3.3032456081721855 7.201840005387848 9.719770279072739 0.32639640411892173 -0.025486317196562563 2.430435279118466
Ni 3.8855109308854403 6.338795509577866 0.47907772303884844 0.22682066400611262 0.09805776080638597 -0.2557049511406306
Ni 2.0121702649825237 2.521366888936001 12.133288177207454 1.362352488953086 0.016172753105120535 -0.43724026094638246
Ni 3.0595439943775027 -0.1322990086821299 5.210858641625294 -1.1814363007885718 0.7951349927839017 1.2514171008530834
Ni 5.814556149318525 8.260310074218326 2.5406299484832315 -0.18087325074172075 -0.05414846101794545 1.0222706169272715
Ni 2.6162289840598905 2.4698408742685714 9.132811065493673 0.025694319442310588 0.5788239700598611 0.08441882986671267
Ni 8.405518907768384 2.6682749945502393 1.2771329551876531 -2.1453904413631375 2.698900615248559 0.14231827328665814
Ni 4.637025608319048 3.425528197315343 2.749706340419313 0.24995622158231143 -0.06427449370835382 0.15915848477244848
Ni 6.673032110398578 1.3759739469208403 13.09872820762586 0.24737226290521913 -0.8973013764420225 -0.567896267403764
Ni 4.3556521542818425 4.655262604679984 12.127376010413663 -0.6332940760832835 0.1365039805977262 -0.9050000306378607
Ni 9.422881449669195 6.568800804822458 8.053414879046594 -1.8260445163330938 0.6818295617898257 0.4913159597448635
Ni 4.424105890113216 7.251416035719332 11.846610765776477 -0.5172560766493931 0.2399147781859094 0.550095234666601
Ni 8.579940363798839 3.5002404543011316 7.03062302361613 1.4763449187118576 -0.6201477685093126 -2.052747680924736
Ni 0.935463199791111 6.490532147833493 10.29557093943035 -0.1250880254513007 0.2651630112297369 -0.0720381968141727
Ni 7.05343691178272 3.497399048554468 12.016628042899606 1.851598196432482 0.3008362962616303 -0.894864999086388
Ni 5.297299590109808 8.532332889082689 9.696571036858808 -1.0659102079940932 2.080206548466637 -0.6823563808275733
Ni 3.5077339655349786 6.560016589671009 5.5102165226237325 1.4173776961490299 -0.4314953880428052 0.28089302037048397
Ni 5.1271588139787365 1.1002925900166554 4.352158896628592 -0.6340996027037143 0.6137310663496914 -0.39085961679931397
Ni 9.049143737586048 6.342147625507754 4.563667197600788 -1.116151877758465 0.9889550334942776 -0.7732142814514102
Ni 6.87613690744682 3.9811715910230974 4.970212003290258 1.1747753438286286 -1.3755597316719794 -0.4446247263359117
Ni 7.931050576274121 4.938047475950826 2.9200764718508503 0.10685041939735147 -0.7837604323983727 -0.8706092118628167
Ni 1.283033979213811 9.210713868278656 1.7273899097412306 -0.8977304935596411 -2.036072277151584 1.1027088648796814
Ni 3.003820870567943 0.19535407359484364 8.646244474040824 1.0401654949298216 -1.8266857494615185 -2.4337036654570925
P 3.386797794147592 8.03635901605486 2.183296247485232 -0.08524801063622738 -0.19899927091847017 -0.7236686093127989
P 7.626360880962827 2.865864121619664 9.990695531325157 -0.6065669445010844 -0.3850558656333433 0.2575805708967886
P -0.2172050409250645 1.548046136108467 5.38932863656276 -0.11804937343696444 1.1131202900209924 1.6355059745874672
P 7.000545908080128 2.4042935436617254 2.9843043130570397 -0.6425716447304676 -0.13178677762771496 0.13808186660780736
P 1.5358262342698765 0.6301355810327718 9.886036157759095 -2.289161645046238 1.0077120023868065 1.5865195173864355
P 4.897125661815061 8.225238213090396 4.543851642491705 0.8437167583473469 -0.5400825876256053 0.9755529011557585
P 3.9497025580968192 2.751650753371441 11.00141976940803 -0.16167636609829572 0.9391144558230665 1.1097038081402761
P 3.2230548237663603 2.5482766727720456 1.2212584754510654 1.510438775071773 -1.0295265271587366 -1.3599119978323935
Ni 7.751169164103018 0.518354121820664 1.4759385010571198 0.3053827779817321 -2.064465483582296 0.6276134807587385
Ni 1.629917621299083 3.2282826389146324 2.3218639915254418 -0.5317511849417745 0.7921913367745453 1.6084651684195914
Ni 4.272322823659115 1.42958923051964 13.105537367214188 -0.5796631781317049 0.7065761726068863 -0.2817340282145406
Ni 7.391155627489049 0.5815698283001007 4.266606583862886 0.1959990506395657 -0.3568860880673466 -0.17149258085776917
Ni 2.7942068400935227 4.492086058320146 4.631021513692276 -0.15909292164183567 -1.5806054658948456 -0.16372682086942122
Ni 7.925794904206764 7.098147266914036 1.4273662483766625 0.42989590476616923 1.1910357715515487 -1.5296832251236818
Ni 0.3550587192727299 3.7588455198062527 10.329356739460525 -0.556475427161332 0.40021123321754304 -0.15646808242447893
Ni 5.756028762321083 4.032985460521072 9.753419580199397 -0.7425322789865212 -0.07284089522112616 1.5329793793764501
Ni 3.2873300217349937 0.41017270511829895 11.029035261860892 1.5414097695319906 0.22178875800915998 0.7200757497552179
Ni 7.550190778544927 7.998705747091726 8.942775806316112 -1.3561890404548513 -2.0991144411147333 -0.7706022977498599
Ni 8.35529288265825 -0.0788592236735653 7.008158275502071 0.6088433992400869 1.5513715087303925 -0.24277230223936258
Ni 0.2700189738181876 8.757825363435522 4.8125492697812975 0.3748912663955156 0.3764089885916227 0.38202222101334204
Ni 4.378002689027653 1.2051553190920357 6.954462206837924 0.3828974245294438 0.448404247983002 0.09864500076842365
Ni 5.951732904532427 6.51425695725416 10.281314696806652 1.3582922028407833 -2.4210569232273595 0.7994953266351262
Ni 4.367175633143309 8.202256254845327 6.92483451626316 1.125967064076674 -0.9146128711372764 1.2570976961776286
Ni -0.08871778733772284 1.4062172754073816 11.38237428066211 0.395412526277319 0.6340322398008886 0.9529205084682233
Ni 2.34275760940311 6.850638540844412 7.907235696148413 0.3702527391822398 0.28787870765969775 -2.6487761877883416
Ni 6.631153875374231 2.336972655873139 7.060753067298392 -0.7061591396741257 -0.8526302587868928 0.37886927720665714
Ni 5.961547825690018 5.343328506077811 6.7546686689049125 -2.342513064084185 -1.3371039987989424 0.7545753261939843
Ni 6.784979782561227 7.444826624926018 6.766438217218296 -0.1270189239254264 0.7254737808423376 -0.25062907927961997
Ni 5.610207076551157 3.5317837723449697 0.08329125949997802 -0.41637704434412803 0.4190756742222137 2.324925432909409
Ni 1.1160967487775069 5.7650544041046015 6.135635927255425 1.326384041278277 -1.3745942824349164 0.5946683932912855
Ni 2.8890225070189373 0.8451232111986756 3.0384897349331106 0.5889659435898695 0.9650954532678605 -0.7682327690764189
Ni 9.03575384514589 1.9102417980507564 8.66187406277541 0.8740940850876238 -1.0271333443362116 0.47158942785021357
P 1.032980987867764 5.557473928723381 3.001401032863432 0.5617364184499551 -1.354262769966416 0.14612427729630964
P 5.426667122340234 9.122426006058811 11.778373385349997 1.355754266910278 1.5868128802571382 0.9299214764698889
P 1.22184161362391 8.484678986168065 6.849924475151869 0.688698263885201 -0.4712492709019755 0.03669786964166583
P 5.076877075030434 5.0087483365883845 4.305896911104245 -1.6228854576099792 0.15759808226386407 -0.31494419641792215
P 5.0004005465026005 6.5675751003827205 8.485184124967471 -0.7959317776535841 -0.2639106268798745 -2.5133453856501364
P 9.079749206020693 8.875335133775462 13.426666359041471 -0.17162396422931087 0.16719061104830563 0.07844255767861974
P 1.1677899049594465 3.743217788199606 8.125444514724503 0.7679262935795936 0.8448315886780805 0.11614804264919353
P 6.258140443187292 0.2397914309191276 7.943848044901738 0.013801424659466554 0.025977655010684293 -1.0204991268491457
Ni 4.651102638096634 3.1777223307754805 5.801568325077161 0.5208777325623803 1.0479937327249886 -0.805109330387794
Ni 3.125778462321777 8.531097899003258 13.590608042112176 0.1646472758011616 0.6225324666914053 0.41158527938243955
Ni 1.389670265470932 8.52845149169019 11.893878386079791 -0.4192484523546521 -0.30236250309816953 0.6350164580910289
Ni 1.8684471337836632 1.9896711600015935 6.6128658079949725 -0.7109156805225046 -0.06297222995716252 0.11881659062029214
Ni 5.8415216469927405 8.01182635598073 0.08502024561118283 -0.08456435430564146 0.928514311709717 0.5949715263540011
Ni 1.2478135478507617 6.852031386798659 1.271142789020423 0.9319606183871046 0.6962488225389493 -0.5336144634027584
Ni 0.42006748277726685 3.8638846760358376 4.4342857369108195 -0.4907300053344064 0.036208588710073125 0.5480419516819982
Ni 0.2439876114972879 4.832404753141068 0.8935478222079829 -1.7495081745382515 -0.6160810546391067 0.8418604218648985
Ni 9.179746259895905 8.699307262077774 10.047028721662675 1.8812026495624763 -0.7034687373261562 0.2605486523861771
Ni 2.4174141525507284 4.555116980569652 14.043985900167234 1.39515205198161 -0.5645985704890986 -1.088773485745512
Ni 6.69750905663454 6.36395030751156 4.5554039068362275 -0.8410111864907257 1.5570814146309764 -0.45381076371055395
Ni 0.1147352211990801 1.7153733634119603 3.3093611304752972 -0.11290253912870234 -0.8157966348983111 -0.7270341833509221
Ni 5.084491299580315 1.6787322291755793 9.484301313431622 0.17008747298012641 -0.9093518798486533 0.29397607880668725
Ni 8.996252733883457 5.62403339405698 12.267521384638048 -0.356614836683831 0.2763377968996338 0.4668681111151443
Ni 5.300029568180132 1.1002461618181805 1.7748478856582908 -0.06489541512180437 1.3421716431298367 -0.19465102125210348
Ni 2.0554692028802037 7.399540560133613 4.008564228123281 -1.3314894808256423 0.22906497995559905 -1.3036750297165356
Ni 3.3287439747745933 5.875423517519104 2.7867263287552486 0.7172791608466873 -0.6470386793628856 -0.6838777025681061
Ni 7.32493044518447 0.6637170969896575 10.239795816038498 -2.3462851295321077 1.5384465731386086 0.06325248020174268
Ni 6.383979432333627 6.0323879709230015 12.526188663929126 0.40465924168656764 -1.6114787584349344 0.945495419648746
Ni 7.509203964931297 8.0096628019318 11.785657969690707 0.7216307529471636 0.49569454842853344 0.15576257171702207
Ni 0.8625579282899654 1.6682858845187296 0.5622473406588223 1.1651496478134062 0.2942257329236481 -2.2451852394652883
Ni 2.5265854184445784 4.764331728537189 10.294483591022068 1.189714481636964 -0.8158686257868272 -0.39495024192891987
Ni 3.1830151454016176 4.576520380066576 7.078420853946025 -0.6428621793876927 -0.03119699442809466 1.4211176228074363
Ni 5.80049769082033 5.991243301434556 2.025388373088324 -0.9410432974146633 -0.8173063866746183 0.6101639178237234
P 7.310574846216034 5.252784233412086 0.7251193180366654 -0.17078449904715104 -2.7369130899365897 -0.9623795969985943
P 4.683017381728272 3.2123763381171364 8.118812710854352 -0.5944323660210795 0.7755025632649548 -2.715749054264465
P 8.505042394019151 8.147851691872454 3.0572578698845994 0.14835728039188642 1.1278046315060446 1.546747122584504
P 3.016960050736336 2.146719184162747 4.748388285180912 0.31648968652817105 0.5087125579547562 0.055963145629181046
P 2.529668250823311 6.331691995211209 11.83128110320404 -0.6084505346770425 -0.33682659831331024 0.6206447627503892
P 8.080363662569358 5.482176676436809 6.611547247158286 0.5452867575343641 1.7081491519754906 -1.8255112695374434
P 8.056536711112047 6.150872733430913 10.438678432717433 0.6096617813763242 0.8961664915066307 -0.2009615368511636
P 0.2471605145810617 3.56471065070336 12.651411086599714 -0.6268642612975397 -0.6206966990342472 0.4555274892913445
