# total energy = -340854.15536909783 ev
CRYSTAL
PRIMVEC
9.40863109240010 0.00000000000000 0.00000000000000
0.00000000000000 9.40863109240010 0.00000000000000
0.00000000000000 0.00000000000000 13.77048264273237
PRIMCOORD
 96 1
Ni 7.845829216494268 6.235316203131479 9.884961826505819 -0.10252145300469441 1.1670486646083322 0.16167456632608285
Ni 3.928009381967068 2.972186552404601 3.2256663635652303 0.19988578728848155 1.1985706464760133 1.0702237477677827
Ni 6.555350788696665 5.23602549806376 8.445381999683459 -0.7897274486150851 -2.25861308283542 -1.8507085947386772
Ni 1.4448082031033722 7.225433492913999 3.400855073934884 -1.1398085979454564 1.5634145559378558 1.1941758598424272
Ni 2.478835574051047 0.20893652912501973 3.8684311074947932 1.2018246346369366 0.3583673005985635 -2.3129124676089328
Ni 2.870705057772641 3.757148641885816 9.082224951222761 -0.1548320894829527 -0.04265254456320396 0.16647404459725523
Ni 8.822049958198594 4.484407597065362 6.303631332407688 0.19198607282543065 -0.12329802343041348 -0.16941435817250178
Ni 2.870479250627159 2.9670306225827656 11.363319326249155 -0.9337663041372757 1.1191628966706468 -0.929277929348619
Ni 4.340041562053977 2.4724471135601234 12.97873517725822 -0.15781816869447016 0.40328370149527965 0.9881772747879883
Ni 7.468740692170672 3.2604105563500347 12.971973194114144 -0.16759787378905328 0.80431331684906 -1.398562877435372
Ni 1.8405164082981575 5.049518204526828 7.16620051520169 -0.975118127611185 -0.14854831335676996 0.6822944172413862
Ni 2.51496471732814 6.451554770823518 8.974251501158198 -1.2209359015450907 -0.17881636821269206 0.8362585022970886
Ni 3.903688070672463 6.802882463300061 10.76278898629265 -0.6202650108134673 0.6622583245261175 0.2584981976150516
Ni 7.579405010718893 8.772391203454715 11.34216778275925 1.6673760838231866 0.8306501549713758 -0.5431236884447743
Ni 0.7005694914466992 6.993124983368504 5.805126305958512 -0.26746826232414583 -0.3375917586141089 1.063126731711685
Ni 3.51123525182504 8.741041644756987 8.862297259291411 0.3012368741341586 -0.6594622498382191 0.4862053779911755
Ni 2.915142022277253 7.649800388322853 1.856426403423565 1.5043599158675447 1.1567267138570339 -2.1155383909987115
Ni 7.767681126895431 2.6306062017080225 8.802643715770643 0.15645214158487894 0.7072279472582723 0.633907027076934
Ni 5.903840722195214 7.387694744204818 11.271621867058302 1.1015708946204965 -0.6704064075545486 1.039066605438688
Ni 9.484088282858137 1.4060352344979294 7.665587130381351 -0.518275776163159 0.11777426539870685 0.9640639266795525
Ni 5.391474900465876 2.1948830886076443 8.527302950338054 -1.1137898052841915 -0.7957919096416101 -1.7714427698278137
Ni 5.80190761327229 8.446946655029025 7.928823691953009 -0.19781270680953678 -1.9568990119545266 -1.2354744614808981
Ni 6.659109172045567 1.7241410506954589 2.5643120463838756 -0.057783229557055324 0.5909346372804661 2.602182142078886
Ni 8.109129756757145 3.4333317866338082 3.563125733856765 -0.27438941492401137 0.6939898513014435 0.09672181560378182
P 8.233643580228252 1.3812905348055455 11.910530953978762 -0.5668760536693657 0.672006662162133 1.5845220273404323
P 1.2368962739009763 8.188134031782601 10.604882990320311 0.25341332689297646 -0.6564324618729598 -0.3716704454653728
P 4.610097499419186 4.782849374343848 12.86216788358186 0.9280417429486727 0.1059379348854111 -0.7525043025975685
P 8.611193127473872 7.17987690131304 1.2348781225382324 -1.1815859389925585 0.02067938272622245 0.6677568857468436
P 8.950741213861114 3.5988296070098666 1.4188827202127396 -0.8135296932410054 -1.2989084615658275 -1.3438163778221115
P 4.432001522051453 9.181008050466211 2.3460496821504564 0.8477922139683013 -0.5724147240994077 1.3027476328062597
P 4.8763899843596965 6.4061110827953 8.908992295250842 -1.0337459645567229 1.0829666492557477 -1.8280846866915743
P 7.1445757175693805 7.079185731690267 5.041511459493285 -0.36384272189083794 0.396602175710046 -1.035767622972442
Ni 4.281294069704455 1.6196582027548034 5.339132804143188 -0.44348187098072006 0.48486814723699073 -0.04669868960811957
Ni 6.366199669831385 7.041645293753912 1.4692828750842843 0.4808713673727718 0.5014911005056524 -0.3387127595924295
Ni 9.322118699130232 5.5240048776015875 2.05889355783053 0.7400159403225707 -0.5187200627894292 0.8796337839589303
Ni 2.137321083771901 3.536638555691746 5.332040578048847 -0.30094685369756563 -2.929602616586948 0.6221989946113865
Ni 8.684834482794134 9.053586959997027 6.27136725477076 0.13694029680419642 -2.801503315113149 2.337469845233323
Ni 6.326579924430385 3.718488576853114 6.434216545502937 1.5072729757492815 -0.5115376861083771 -0.4295009833205958
Ni 7.13782972909811 5.891967029795293 12.6745588393476 -1.328715517624931 -0.6879516155271636 0.8982223455943951
Ni 8.29366123777111 1.6301958695439556 0.5045575988111958 1.8992906174124384 -0.558071310893542 0.8052736238798003
Ni 3.120118458588385 1.4474802543249075 1.7672485756310465 -0.49204641015298484 -1.0012269088830952 -1.918750011688631
Ni 4.5240179338352995 8.457757172118969 5.676550776458051 0.3491784350104438 1.3595931810403938 -1.0446425568645685
Ni 4.227015677109259 7.068497526804126 13.50891247845054 0.6524436524285409 0.8688899151788649 -1.049823586844876
Ni 6.2572100876121555 0.8387126578738464 6.45158111499049 0.3279717190258416 0.012639543140881459 0.6439849801382264
Ni 1.4380245801078557 0.9949439175171944 5.771539374794302 -0.5240679573649039 1.7520980467526146 1.347626238486505
Ni 8.85603393359361 8.25668531769846 9.300198470482584 -0.5166639515913489 1.1491381028764984 0.28770361553441415
Ni 4.670265695059032 5.467854167425106 1.2863602699818775 -1.2680714215803128 -1.7048920784907735 1.0038998277295679
Ni 3.283753370014219 7.092386041069892 6.984113396537566 -0.38061145670874447 -0.0899166197564903 0.09608135380630549
Ni 0.6162973238897738 4.810049726743347 13.333283444147197 -0.8142645145245009 1.105393610800696 2.841915400381609
Ni 7.755064152641634 6.7575987219998925 7.094015615969787 -0.593365615319462 0.4120408788626194 -0.2850692632353607
Ni 4.1657090371109415 8.896970887343253 11.855394494230737 -1.0308102789671667 0.0978214764258638 0.5468353329684067
Ni 4.431766306274909 4.219037157968901 7.422331678595518 -1.4267449962965428 0.9821323541454892 -0.15474441486515284
Ni 8.25782376205693 8.622483484747965 13.602152012272414 1.3373541671365354 0.4594862168287764 -2.01375124505688
Ni 0.6847150072445561 5.246365583600615 4.230787597301911 -1.141763407678982 -2.2249959090016067 0.24991405549046639
Ni 7.924824082888661 -0.38575387353146134 2.062942091776398 -0.22016433503185953 1.1157551565406785 0.6221897386400059
Ni 0.3171602487758243 4.186360982291467 11.334360500704216 -1.773312733157017 -1.7798117106177995 0.1366477052644421
P 0.8883949341953802 2.9465009896060423 9.172394448729186 -1.1363694903569204 -2.1305628894320012 -0.05601868145746482
P 4.243951213020397 4.17341470595051 5.167813863729229 2.1559797868432096 -0.4018371988567402 -0.016358386753365376
P 7.268120452041128 0.42735884008648867 8.72797964225397 0.6192178004958755 1.0791033096455998 -0.8882310387096379
P 2.5647834188000687 5.674552383220537 13.593366232586957 0.03502536703524936 -0.21430581936855347 -0.16461282301880037
P 4.90123817899376 2.979158348021352 1.2996330258206785 -0.3425532163844423 1.2588730429104964 0.8275738300388973
P 2.2498106767460997 8.484195425402467 5.5724734405161565 0.585997604990165 -1.747643867636003 1.2163932764797307
P 6.515881581392654 2.288235526002258 4.822450302482724 -1.7542423467891273 0.7115422583629101 -0.7247626137079259
P 2.827265408160574 0.5486003416743208 13.16981412462805 0.7274666429026504 1.0305575395264124 0.27059061000321144
Ni 6.404840917601964 9.094316923863312 4.025842209473283 -0.8761059733113298 -0.7461361942876956 -0.21209595620142827
Ni 5.818777288765994 1.0709374306028923 12.066081969596345 2.5235878893137507 -1.6765703487279449 0.4493578701455229
Ni 0.5002061069451397 0.8416660271641275 10.725250430082507 -0.41500047571157567 0.17532352456808517 0.1141217562477841
Ni 5.603131464830846 9.298615938738 9.994395496111165 -0.25568978163197903 1.3446219044425423 -0.05239471155163235
Ni 6.684107904776618 4.29573631838423 1.8418430252778633 0.398937508711442 -0.37828255146525175 -0.738304871168735
Ni 1.9354777216043293 6.214560763009274 11.388133649811396 -1.510587384834495 -0.42527588949565465 0.9711655707213404
Ni 0.47873655172534846 4.907410240970263 9.439349301296444 0.2628230502426506 2.387023744902051 -3.2481088193245156
Ni 8.130515575160487 1.0851726893993094 4.933578466542288 1.6456967990775397 1.6424132432302618 -2.578289908842321
Ni 6.038393555009199 1.4204304400223962 0.5373890169011478 -0.7399442065443708 -1.8434655400230187 -1.2369947547801663
Ni 2.066605812711841 1.11421713348691 8.999478863624049 1.2790227783854942 0.8819107529185649 -0.4357924727562624
Ni 8.880505782985203 8.153557312630696 4.0374637505607485 -1.2472040912130002 0.037839182334960635 0.29212874118530335
Ni 5.797664320663443 2.756286695430785 10.62752109751797 0.27495994271550067 0.9396854978351882 0.5352640831910395
Ni 1.1163152582136786 2.8152411776636663 2.8288018376129567 1.0776637489855956 -0.12229375053561517 -2.133736659174293
Ni 1.172701184166704 8.549895896106618 7.748623003816765 1.3686943720107139 -0.06504068245041703 -0.6601986137836113
Ni 1.053343290517433 2.6392527336537643 12.710885563876989 -3.813006666221588 -4.463276450927261 -1.8568702434646986
Ni 2.398862210026232 3.3081687676194416 0.20398664832343674 3.1434980878909604 2.1393799735029995 3.7313764548436055
Ni 1.0303485962025332 7.179359426604644 0.18222918899315615 0.23205902958691646 -0.17081535228508646 -0.7477439050944477
Ni 1.0662801582273296 0.11755143648541652 0.3399846468685065 -0.8323524823744632 0.8421846379735365 1.1905287500081432
Ni 5.464438834349694 6.4003812264786974 6.271380426854246 0.08075989295788673 -0.9270032743818294 0.2261624615968234
Ni 9.011097582122195 6.47963953454282 11.708228450615376 1.6298480049707416 1.687147867133475 0.8874998169705683
Ni 5.4556417643069635 5.124025153904771 10.586003631231817 -0.5164698333026718 -0.6393940183334343 1.3396517049214607
Ni 4.515757155763089 6.854178319848684 3.601257033823797 1.1433940013038697 0.9648779379404157 0.050527576435906524
Ni 2.7625340264557825 5.6168774748120525 5.096441870221059 1.4275536082407674 3.1832344872486336 0.3059319656169828
Ni 6.20309164174501 5.0382184386216755 4.306222237702542 -0.0707719285072394 0.12769795227032202 -0.4099240896299327
P 0.13089287533096805 6.537389711999799 8.096754584321635 1.6665330190966008 -0.15975292382333778 -0.5419191266137119
P 0.6407268344415894 9.52134646186264 2.5561735805154675 0.5015669480489103 0.04837196354548444 -0.1594598180629512
P 0.2766843179482061 2.6674974441011168 4.651338351952123 0.04186424433395371 -0.07609565471299796 3.2548641357704784
P 6.230019143843718 8.486124194770124 13.48391845003502 -2.6169888680744156 -0.10199257708441789 -1.054406578229868
P 3.965634497582978 1.3685512483479456 10.661685718629373 0.5977071801176094 -0.9710593841607792 -1.485673909422267
P 7.41458461177928 4.291652972503433 10.578774039123974 1.3016731687951584 -1.1766972434416896 0.520979034026935
P 3.193148252889634 2.260197805438264 7.235369948178306 0.1834754642512582 0.07823609809476849 0.17677491230263104
P 2.8279992813833896 5.74371523015541 2.9546356920220256 0.3435245791587761 -1.5677221821742742 -1.1366754516331135
