# total energy = -340856.4741365608 ev
CRYSTAL
PRIMVEC
9.40840607178046 0.00000000000000 0.00000000000000
0.00000000000000 9.40840607178046 0.00000000000000
0.00000000000000 0.00000000000000 13.77015330230415
PRIMCOORD
 96 1
Ni 1.757057484271588 6.386633087313835 9.592798691265417 -0.29503511619882095 -1.9053229396494478 -0.1498498057770129
Ni 7.039068420984319 3.3179591084835343 11.223887025441625 -0.7169652291506943 0.27733255671273527 0.3111561901303996
Ni 5.987133344887219 1.6818749106356057 2.9082013808191123 -0.08904193046102085 -0.2549166509113803 0.14115382066491175
Ni 3.38513512847614 0.0038179312203080545 4.226900523536149 0.37532295461629556 0.5613250419441494 -0.3969472177542906
Ni 6.036678011733307 4.676006087448901 9.37876874118029 -0.04319401888897077 -0.7975351175849619 0.47538231923374263
Ni 8.234858027289674 5.9707250845416855 10.873904665483229 -0.06520626149400384 -1.5403152509162312 -0.14322047338595334
Ni 2.9025309344256187 5.230706897914456 0.5461984338174714 -1.2950618341262277 -1.7552178233285192 0.8051062450640004
Ni 3.7447902708091023 1.3008156442853915 6.3564951398569285 -1.8667985583220044 1.1434014575030373 -1.3525699556450255
Ni 3.0865499505370164 2.729397444242995 12.08934090553488 0.19293275300941612 0.2528638821474097 -0.6806738509188278
Ni 4.7876744601789065 3.0619940104556855 8.149080647475305 -2.4760301941394456 1.8180183035945074 2.507396881376185
Ni 2.8989181064596297 4.0222535769158165 3.046054288736992 -5.164133461662184 -1.1014066011284902 0.8020137221816059
Ni 7.917192601655171 0.550145260202191 1.98317723627415 1.3111574541365096 -0.4577954593899148 1.1213277655324494
Ni 3.6986984890242596 5.61992325240663 5.09291890799909 2.1156592328472916 0.8572644151247946 -0.16051165636623324
Ni 0.44135115555450205 6.981780635867375 4.309934412113844 0.7955129449486106 0.20339148644889485 1.281730150014328
Ni 8.981518548666873 4.776591357720743 3.357067030374748 -0.3116251593470182 -0.2515096821123604 0.29806438994344797
Ni 1.1217078161902598 4.394704151628323 12.590601969003517 0.002678061052795388 0.8727020898361034 0.9358486405876012
Ni 6.021549294625728 1.5730478765663516 7.290607804753831 2.099613749348655 -2.4563224312978726 0.8034674239089968
Ni 9.188851595246293 2.35715385446604 0.46469717460347293 1.7510732050325262 -0.9244265147935886 -0.8572255914670591
Ni 4.904028219177304 3.043751110908674 4.786904852554901 -1.1668653449529323 0.8593899461082297 -0.4283463008908623
Ni 7.348322731510503 3.356627657807009 1.2657128808970985 -1.7594192630043761 -0.4660939519532811 2.0294766262119373
Ni 8.65785996830754 1.9593193999299974 3.6333514631894355 0.7967519595620343 2.3531790284384635 -0.8291108355087141
Ni 9.486778184754117 2.7803251467948122 11.333056525495156 0.13364799920616982 -0.5376012159646484 -0.6630075439873162
Ni 5.716519358466026 8.114072908989243 13.280018924772731 0.07278844471663592 -1.5345112426399443 -2.5222123491224626
Ni 4.577424807689443 6.777749939850616 1.2171438657699514 -1.349236006175786 0.2304176373287516 -1.2605447741859643
P 9.202625501866626 4.0025053323829765 5.421543245130426 0.04454796181370392 -1.1656440709513216 1.2591772044144767
P 2.4985057486353552 7.334492374453203 4.636989427097453 0.6371052222992576 0.674663897279322 -0.18435503864273411
P 6.428895647790975 6.705869716777296 9.785057589492995 -0.866607032681959 -2.893098093903011 -3.413799963009159
P 4.237489684670837 5.923504294017472 13.027722164307225 0.8736320578495406 0.4605267422781488 -2.351284896739544
P 4.693524539721483 2.891626591684522 10.564475358602444 0.4928269970727513 0.24003484870354144 -0.24043491235543754
P 6.195106163085616 3.835910684482546 6.7885479676020895 0.6939124610962888 1.6377310072632438 0.2645369476099638
P 0.7463641565831143 4.00996619846899 9.490857669665711 0.06573745140712549 0.5040652889907319 0.5952934284697942
P 7.580983207476491 0.19586419946863745 8.466124177462538 2.6509474844080474 1.0719168191994894 -0.6952905723907381
Ni 0.4722257812138488 8.833119758282647 8.244961714666433 0.3983068171059786 0.07270925473926834 1.2247725016823616
Ni 5.897734669541317 8.487078579665274 8.511166921960381 -1.7438314358684484 -0.5267725007802605 0.8655528803858319
Ni 4.249259600778786 9.35858865080464 11.734429481588512 -0.14381491243684266 0.7604179010176904 0.1412440663858729
Ni 3.845911820232146 8.118231424512595 6.356770806157458 -0.170506562795416 -0.31974573157162356 0.39161140736367395
Ni 1.577874388927165 5.95060991216855 2.389906397995208 2.3876636924788945 1.131543786833503 2.2879539978913823
Ni 1.619817063594817 1.6907188124273491 2.7530388872454346 1.3747786305315806 1.069324118771649 -0.9888889561430324
Ni 1.1186783094062795 6.8164749396110595 0.056027999531928274 1.489578900903628 3.311382125461864 -1.4427190031272958
Ni 1.429786075946266 9.066034261214993 5.864281199753122 -0.17164067639985925 0.08767230380700385 -0.5678052503518544
Ni 2.188442315179288 2.3148536603642533 9.610727350046636 0.15748083995970943 0.20239158442947078 -0.2492296278289321
Ni 4.717177272811316 4.491479017404786 2.463067105147099 4.551654779662354 0.9163005432523443 -1.0623214622015702
Ni 6.058467880403177 5.805400571473049 5.103219231064623 0.0699337488766602 -0.3078348390666505 -0.6398976974427302
Ni 1.7949075022590184 8.933921421896201 12.253412218902817 -0.30603018175774394 -0.5358443811745417 -0.45434349628557236
Ni 6.199020060048771 1.004949495726921 10.09575326784311 -2.2915381156982146 1.3509722721406023 -1.1259457239204351
Ni 8.726212039070324 7.826410890603539 6.6246554139512215 -1.229912136901772 -0.17681090774688907 -1.4506680827710436
Ni 9.29098925253477 1.353427451540105 7.059860998601078 -0.8490957632710733 -1.2428190747714272 -0.536214877140083
Ni 6.668254908943902 5.646078621535404 1.8229756003604107 1.1934718917968672 0.10833163192856826 -0.3787348085113219
Ni 5.45846559427034 2.9931244773540224 13.259831307672153 -0.043371939227731755 -0.20576178645328436 -0.008794201252862274
Ni 3.998262141204172 0.8250306630206741 8.50852315982902 0.9452786756522494 -0.9311229529771576 2.261210411248951
Ni 6.97444207906146 5.957205204887712 7.548797990838857 1.6992202249169768 -1.231195631599886 -0.31929321741523725
Ni 4.747933352553028 6.037073164792087 7.657141432831414 -0.3939025173906958 -0.7002350608802069 -0.556861349745841
Ni 2.5996649316830442 2.651608742100296 0.6814546216347968 -0.21399317322414113 0.05002852531230094 0.31367304301498233
Ni 4.152879888061102 7.664906190436442 10.103698666846435 0.45359067727994784 -0.6890016540582328 -0.05790509984690028
Ni 3.2676147271137252 8.66727778287513 0.2891165579782612 -1.0198067287678114 -0.7381197517411223 0.03772476824428341
Ni 0.18254565970651798 0.25078388875474933 10.494481520964488 -0.918112913870735 0.3915345313791515 -0.2464518079734788
P 0.5851765197036572 0.3096438185412679 3.7966926842392437 2.607376027575 -1.8304647568879766 -0.2640921467630613
P 2.0385852218400404 0.7784712834496084 7.668089054240853 -0.8702191755132496 0.8080954095993115 0.7250788593967642
P 8.158442952446544 6.006881589420059 5.549151339579125 0.4498306960168834 0.9642117651113266 -0.2553606804273344
P 3.451605518006639 3.563612593358456 6.512456407113711 -0.496399544915358 -0.37058466860036177 -2.176550669016026
P 1.3787925145513187 1.5079981563662288 12.742445176883443 -0.27577601085889275 0.8195679290152853 0.651716030233897
P 0.4183588925772008 7.383218509963244 10.740994934162565 -0.7378837244709163 2.5850837918357024 1.9149560918638375
P 3.885643519451862 2.2165452243834776 2.635566468754443 -0.16960050604137888 -0.7722902269752442 -0.12027029234768319
P 7.195784242415248 3.497678482979159 3.525310971875277 -2.165579771826819 1.6764317662675512 -2.1349597329481163
Ni 0.5912919837085865 9.381893272866503 0.9014946615758431 0.4325130306740422 0.19799242692051064 -0.8171888872601474
Ni 1.8938933434834173 4.551777492493387 5.023021036103983 -2.6123966207180427 -0.672792391288222 1.0804472252680037
Ni 5.948445978751422 6.200534813440761 11.805923960009215 -0.5283874106758641 -1.1202013652374903 0.08522435648714355
Ni 8.715514681264779 9.063559850394537 12.567413070337441 -0.04338170941974464 -1.0262298586853358 0.14746922135997828
Ni 7.882579075387272 7.039115463015126 3.3512563987294492 -0.9759282822173064 0.03910262242841653 -0.7631882646739759
Ni 2.47201167688477 6.627083723581486 11.892276193440047 0.09582192949733175 -0.13788774831913025 0.09500431869204283
Ni 8.241048758543895 -0.03584226411258148 4.5982813624681 -0.05195659557294923 -0.9016503974393375 2.4373834283015245
Ni 6.350617708527883 8.542588176017706 4.193575948912366 -3.4205460234837415 0.11193143346468465 -0.8347328096811818
Ni 1.1671410095438026 2.2630415676332616 5.278925920332398 0.6756054352569848 -0.9170343360945754 -0.5727834202927361
Ni 7.125588124044824 2.5589923918471853 5.3327260092853 1.4253347462125776 -1.0672741782211557 1.8268040202069378
Ni 3.934332021337259 5.169533441052843 10.663372760808922 0.05912714517945946 -0.7467373182068043 -0.04094816027758754
Ni 8.754023287683511 6.909185373925785 8.778885941805703 0.013851561171111628 -0.31148194890093456 0.46789732371060705
Ni 2.026796488919769 8.372455967400578 2.4201459562386587 -0.20550081948241383 -0.33311855333410373 0.8339661067184864
Ni 0.7679884373045437 3.396613383993084 7.4618671404290975 -0.6054634270242605 0.17530295574279486 -0.6853062074845165
Ni 6.898666775837308 8.258143832539211 10.784784478959706 1.2635115701237722 3.1709592694257065 2.8795848899079246
Ni 7.87005648678641 6.559126805877481 13.056584331888642 0.25861749680173524 -1.258206098750459 0.7379315469897162
Ni 2.353569251718535 9.277375288819183 9.877606199221743 0.272967337765504 -0.7943986288385093 -0.1453228644409368
Ni 6.398901648948339 8.265783458342293 1.6314185692324759 -0.006795425655278619 -0.29663074282071494 1.695239385892358
Ni 2.544484629546261 4.735721241355493 7.924420139268381 0.7334753109905755 1.0773315624571576 1.69700779064669
Ni 6.269827724819688 7.7764804791048325 6.472027544997433 -0.06944858171012555 1.1990079911237481 -1.9932502968900512
Ni 7.013816258847043 0.6940825843846672 0.0028488653856808253 -0.35387944003053895 1.8243884687869094 -1.4733657814788754
Ni 1.4106305610015957 6.667248209484628 6.808101458127388 0.5717390381886218 0.2498279235345633 -0.08298029764797323
Ni 9.359868194042596 5.545079381392458 1.1386391839183683 -5.7183715148525645 -0.8295278684414746 -1.452990560256633
Ni 7.81930754395166 2.4214038601424415 8.538817286828206 0.24790139593581179 0.9874869335891833 1.0515883920547824
P 4.964317285859743 0.3966452319972379 0.4900123730620311 0.0347011509266112 1.9446821581733604 0.3060749189527503
P 5.523091936193198 0.7311488821388507 5.504935593982871 0.8715042128732604 -1.865030667788304 -3.011647032684213
P 7.947280684559423 3.9974247930558047 13.197122398924993 0.27583077535622824 1.414824333599557 -2.169574751918825
P 5.282838876454936 6.890039267387277 3.0591498492730858 1.2702038945422833 -0.760157191157136 3.354687216007403
P 3.0862676983521737 7.070332554658749 8.234482631883832 0.30563577453280266 1.1320554363625985 -1.0526160619883485
P 0.7895647351545498 3.8483015553971485 1.768142468410984 2.412634246381303 -2.716051673106548 0.5827189342388932
P 7.755424466115554 1.2912943372500252 11.345036249060504 1.5357571992319035 -0.6894479975670319 1.8315888431900909
P 8.390454248387394 7.843844667220667 0.8094663367078214 0.6275430325321192 1.2150637590350302 0.9053455869027376
