# total energy = -381173.95543963654 ev
CRYSTAL
PRIMVEC
9.20774381572083 0.00000000000000 0.00000000000000
0.00000000000000 9.20774381572083 0.00000000000000
0.00000000000000 0.00000000000000 13.47646380731550
PRIMCOORD
 96 1
Ni 0.8678850950464146 1.1623763634523459 0.08187986131068835 -0.31647168880604204 0.04420369110040774 -0.8520499608033906
Ni 4.844147948973471 2.2834467884352234 1.8001323189161873 -0.5830976577345506 0.5471672623865286 -0.36599062147177613
Ni 6.037646486306068 8.639625962082528 4.377182749259693 -0.18041019506237316 0.8703644428418623 0.842829213536071
Ni 2.5269731951763075 7.4217821502708246 2.9294326252642033 0.7569224862699222 -0.026232708444283857 -1.1256209935911647
Ni 6.1332504896784465 0.49953575168614806 1.5242959393509028 4.620065921246901 0.5665068432554049 -0.4222275895876341
Ni 7.181119351836474 2.273318270308515 8.115337953643454 -0.8590420758505075 1.71082361348386 -0.7628586492486991
Ni 8.923574363892932 2.55556323952488 11.733957307870176 0.9392322123478534 -0.1391617299355474 0.35276512392043763
Ni 9.200423595270886 5.649355932303061 10.979517140489149 -0.7567643634255031 0.9823526976864114 1.8668913751461267
Ni 5.3520378865654035 5.332821325355911 11.90235865411671 0.3291999350059879 -0.4771520095396557 -0.5265197613395062
Ni 4.374037383994162 0.3651192668522216 0.2816280503850114 -2.7339162120917946 -0.6665237846706907 -1.2736954526353097
Ni 8.474871803135983 1.1934340831263357 1.7505661135272004 -0.2283782383012196 -0.38573078021318086 0.307100017783155
Ni 0.7185750846943506 6.148866823081081 8.923979504618 0.052989664823153905 0.27086520382083673 -0.7974253314799751
Ni 0.18184465212380269 8.204514031102873 7.589647605831019 0.005529157348345317 1.404158883465911 -0.5985332755633305
Ni 2.3572100236289177 9.139311799991827 12.171079289310795 -0.11635578778462542 -0.23228888620953544 -0.44284346606577274
Ni 2.003724741006784 4.94876633347862 1.9008825302713093 0.3388282021243713 -0.1244017980175535 2.353809977154243
Ni 8.055155219708928 5.613436523928252 4.839088293781992 -1.0802842173275782 -1.548837172344313 0.10227848375595289
Ni 5.43482471063562 8.576875188415691 7.23509514570808 1.160024153661383 1.2540522244830852 -0.5355327634713938
Ni 6.586409598411144 4.7542527467270554 7.2503109422575225 2.2054362417021243 -0.3317183305524674 -0.37959947050446236
Ni 1.0733282736310734 7.8478244536552 0.7926569078218484 -0.5263361845737903 1.7300279543264527 1.0269811350290636
Ni 3.9350950316138613 3.9316145044757738 3.151821735449221 1.277234833247136 0.05003161063609448 -0.9328921290624386
Ni 1.4500723169696312 7.080819399150803 5.215634370629892 0.4389132777734312 0.3623802784126985 0.1998150819515462
Ni 6.163636044058572 4.832352829227731 0.8627296793199198 -0.08501378313823423 -0.4865252232244395 -0.11828385804527371
Ni 7.26668691451966 5.63275437031901 2.7669472543780413 -0.7667212175278989 -0.8372982564155128 -0.20780581346650664
Ni 7.750167123426224 4.05185843012731 9.889864457960947 -0.5544439985535999 -0.08228250025000022 0.914266029320819
P 5.970614111794759 2.866499538271086 10.490672500072929 -1.3769972354494544 -0.2688656568923047 -0.255529859015347
Ni 2.4962469542773733 2.6291239043560406 1.3218415943879984 -0.11781540304928742 -0.9703757278301934 0.809296371885948
P 7.934110220351006 7.9758673382643 0.5036506923687173 0.013946949098395335 2.2735923298530714 1.0419346710151023
Ni 7.6712475517316605 3.0665285635298316 5.377405220600933 -0.4634595996542276 0.11593592663838742 -0.37966709051760417
P 7.139555596541962 6.304440861507326 10.196777893462098 -0.13997059899008796 -0.7066039405210283 0.0388110593299267
P 7.404222982936613 0.19404583336898606 8.229106073114522 -0.3504642437014029 -0.47979638914103817 -0.6927336102968392
P 8.930876104687913 4.063055046529199 8.129340169566442 0.4680423339289036 0.1314743885936187 -1.195261379597122
Ni 8.658639952929486 6.058870335653398 0.9568236127170437 -0.38737268669197805 -1.2732151705647814 0.2595860313625916
Ni 0.36482185672904643 6.440107757942714 3.3134986664339965 -0.5323073145555607 -1.0669479052299882 -1.2178744890109476
Ni 1.3542289122597122 0.21820879452181244 5.256198164952984 1.407598762385395 -0.2965286700252119 1.4356384421314308
Ni 5.239261441096378 6.660163625861088 3.3760431866407976 -0.21764876769885738 -0.19918876122145696 -0.33123650582004244
Ni 7.442628482124342 1.1323499110785304 10.40789948761834 -0.8403175028578109 1.6406954892082068 0.05967813258692302
Ni 0.09179291823361072 7.931062457169242 12.085356115758207 -0.40179117611015314 1.2355009438434592 -0.030210205034793134
Ni 3.3400998381322338 7.102485220198209 0.17351072325427172 1.2291973702229346 1.0350361441230562 0.5554999506219401
Ni 4.3942575892725735 4.840575344397869 6.755441675104661 -0.4657036584933979 -0.31106620151975456 -1.170057626637985
Ni 5.734555185236186 7.445271104581037 1.0384115885508078 0.18984871476745369 -0.9366125153368192 -0.5319872122119805
Ni 5.047998187889111 1.9117577964162689 4.2688987619670495 1.5851923139345796 -0.7505181254054751 -1.1761364858422132
Ni 6.536420757583962 0.08576184607634325 12.358213790219866 0.8144416635323135 0.508428193945118 1.2946849104027833
Ni 3.0236757241101024 5.33891685171944 8.561381318004953 -1.682038828041684 -0.9716936753106685 1.7113787146563817
Ni 8.196448047576514 7.915749979310409 5.362352401115893 0.30985161238636316 0.3787407220485929 -0.11973910243456153
Ni 7.196091143176501 6.815645586849818 12.425124622513653 -0.7029925690206861 -1.2158502594920673 -1.0872773608159596
Ni 3.617805389679084 3.770451365592335 10.781696132182025 0.3041910716664761 0.10421683842924631 -0.20386328387899086
Ni 0.7997017525661618 3.5765178666971185 5.4418225958868005 -0.5214053229310762 1.889903519770584 -0.08898202375736287
Ni 4.623410708017482 6.793648287027357 8.07601352162932 1.3861130817077936 -0.417234764358733 0.5301848688959191
Ni 4.718324130608495 1.9882557315041742 8.442438446545513 0.18132447934652643 0.7595640376578273 0.8185942522481063
Ni 0.13292575112054994 1.6191080767606478 8.705364648596744 0.14127209141033087 -0.008274581303966395 3.3785843343399753
Ni 5.351107904446497 4.691658504703996 9.283464553068645 0.21958660815151862 0.09633820701211797 0.5073079642977457
Ni 0.32364943054397555 1.9394454818771898 3.8411023833980042 -0.04917080529769596 -1.18078092659276 0.38537442531502664
Ni 2.6981359437739325 2.305582204413958 12.406244143951092 0.14957675462128434 -0.016797016952680748 0.1356287770816245
Ni 0.6368747743868175 8.712984056551154 3.267381681854341 -0.6475690979450589 1.052163290721646 -0.6931812393572191
Ni 3.2703051404954593 5.794046417614971 4.383907164521452 -0.011598503470876799 -1.2333723275362307 1.3794528960787984
Ni 3.0544572114715454 3.0571550803907503 5.60978012888451 1.112233259430349 -0.049630775653250005 -1.232758862321948
P 2.0312927257989344 0.3763628427472434 1.681094607696105 1.036151488674422 -0.04294950697833248 1.0835302350687015
Ni 0.34019942916301754 3.633955772219308 0.5862634900820292 0.32226027046336114 -0.7104346271210281 -0.5638678629706612
P 0.46325908285377804 0.743889013816121 10.964693593823524 0.663177236795961 -1.2925910039882318 -0.22435111941969751
Ni 8.996269500811445 3.9729020274577396 2.841565888966255 1.0336153525161293 1.3319970165896802 0.47700185711503656
P 7.252626689811038 2.335746772944047 0.3187214460881442 2.3318656116726677 0.9468992419748079 1.1041368555754596
P 1.8025447477790941 0.8243711396253237 7.677339394997688 1.9221736926581996 -1.0049830334914176 -0.5500980628800785
P 1.7410462272624692 4.236621016245979 12.227303614206528 -0.2452233348830164 -0.9004432645051137 -1.5264770594815582
Ni 4.927524068643787 7.715352644301601 11.967975798413406 -1.9208747713411176 -1.0148167317523877 0.7770894481361004
Ni 1.1762892642609433 3.947405785009688 9.977556247127616 0.5250912564230957 -0.5788586799525386 0.0871449705486241
Ni 5.845305927079869 8.481040991449525 10.129503355290124 -0.17877728744464047 -0.0723241034857077 -2.145004004557996
Ni 7.164895307346237 7.139113624841888 8.039128220934971 -0.19802739392350413 -1.1856068872264935 -0.5566181233867834
Ni 1.5432454759915997 5.8362547149720925 0.01616327338147679 -1.0235217157255536 -1.0197151974952696 -1.9667859320509355
Ni 6.975132916370474 0.743817193414859 6.115997019436786 -0.1710740052631118 0.7115096053527618 0.3300941646854831
Ni 2.6479353248404642 7.769844071823294 7.249677449487415 -0.783992860124153 -0.3151272589630057 -0.7370064640722855
Ni 3.85352362971885 8.071425302917921 4.891996910152793 -0.5117552014358219 0.10374401255788586 0.40590622671979126
Ni 6.961155561355616 2.8831103079988885 2.740614028022974 -0.7856100840126018 0.26035042033244193 -0.021220085721040872
Ni 4.488066082613399 8.932450628869429 2.5942597034151587 -1.8213900482802179 -1.0063588307930218 0.6911675513612999
Ni 1.6418419960832331 8.30081782300037 9.537401234895235 -0.9443885597378122 0.5504598170948714 1.0725840204698431
Ni 4.3621593945546575 0.8192792573307147 11.308909440810968 0.3102084815051496 0.753616818935457 -1.0352168926752945
Ni 5.4579913939145275 2.3325424781185062 12.907163819523099 -1.3347892346228367 1.0022190975930352 -1.7624068848777905
Ni 7.932314710319453 4.3625921585109815 12.616948627315388 -2.006914424640705 0.8988432670078456 0.2605167707069771
Ni 2.4630990767717815 1.8082351334175542 9.721745789447585 -0.4685784089380317 -0.38860090267212427 0.24186547415437698
Ni 0.016311518055876797 1.5136241643428525 6.526220419055991 -0.4655236812721079 0.5702010042775405 -1.6666659451300392
Ni 5.906942563752767 6.53967109112826 5.698482007540725 -0.033288329739484604 0.3683472946294108 0.596658941358753
Ni 2.092054626815435 6.913431825491315 11.509129066365372 1.5658846147449033 -0.9445752218273217 -1.3853229817063304
Ni 3.0602949210100303 1.1368893287480464 3.655733006966107 -2.3538819680427587 0.5284434607247803 -0.308935528329997
Ni 5.319378019478643 2.757240450915154 6.200655777811693 0.8152639023232928 -0.19428283927940732 2.6566540478745213
Ni 9.157800949444946 6.091972174440232 6.643074974232579 0.22176227564659873 -1.6696491961280795 1.698856928040287
Ni 7.549300193486087 7.933115784025838 2.866888105057402 0.8287583372653018 0.44121750042657565 -1.3147233171108972
Ni 3.8370417684035694 0.6799283426203308 6.398113080240629 -1.391252716927204 1.6346194582174556 -0.22067984121569734
Ni 1.7938434299338761 3.2048933288844244 7.559069609606485 -0.23590694257809697 0.1508239967648241 1.1034799387177512
Ni 3.9417614380899857 4.267844475307497 0.13335759430249777 -0.8983357312438076 -0.2132712074564521 -0.4223242630664985
P 2.0199948242157784 3.371498244325031 3.579187191610693 -1.4381658365389747 -0.49952189259442364 0.09261499252425986
Ni 8.176909215335717 8.289123988435897 9.827711266863588 2.5625113058518254 -1.633768680181386 1.411879134928304
P 4.13484782456006 5.764775000228783 1.7040716114537315 0.31955546993768835 0.2248558269702579 0.1169383997609728
Ni 3.6609989156176206 9.116623919388 8.84624681109301 1.2089237075755632 -0.14355394546597214 0.5167824794470841
P 7.39199509923455 1.1538407849946561 4.008870236874432 0.33619590670784677 -0.18223310720372488 -0.6461961288569322
P 2.312552466433884 5.419153130770476 6.496262103985937 -0.9893003326488381 0.08986211236947103 -0.678099148213116
P 3.897748422957561 6.875219688922368 10.093669578932204 -0.3593407202554263 0.2426458039638273 0.6867663369698108
Ni 5.702355705337003 4.371901187443801 4.611308970404815 0.6155809750742367 0.8799911672983489 -0.23966718095147754
