# total energy = -340878.3734936632 ev
CRYSTAL
PRIMVEC
9.19999848754454 0.00000000000000 0.00000000000000
0.00000000000000 9.19999848754454 0.00000000000000
0.00000000000000 0.00000000000000 13.46512773661631
PRIMCOORD
 96 1
Ni 6.4542955265074 8.972243029692914 12.407603311864346 -0.5385414683907307 0.26289067025579244 -0.7395986502794939
Ni 4.942275824842965 7.670213286595505 5.793128456961819 -0.14788625429273886 -0.1180491163266483 0.15562450347726103
Ni 5.354168943572618 6.779239462392936 3.3713310548049944 0.5199387656878788 0.8549460514042632 0.5355016531231424
Ni 3.040332600114071 6.227929571171511 5.414987371572575 0.6148438397978959 1.0142220355911824 0.9659431459801364
Ni 5.242747765557054 2.051084395301952 9.313236362411756 0.5080114181226734 0.6930899651949934 0.5675867065831451
Ni 3.6662728766102264 5.831704049350495 10.738425561208656 -0.7495490766239865 -0.10121507548844504 -0.1430520661288891
Ni 0.04757687061264046 2.5278835012250496 1.2690597096027036 0.6889638588417619 0.8486877291993772 -1.8210249516313155
Ni 7.902421240778714 0.8269574768335904 8.943873915290405 0.7033887760178401 0.60083981220932 -0.8350068892781748
Ni 4.14300758254603 5.065583400513232 7.38008858383981 0.16510030417818017 -0.2997034682087677 -1.084734796899764
Ni 1.1374693755667018 5.349430944507469 4.477733876501416 -3.0236301731880184 -0.34256864300341 0.23051713902109333
Ni 7.819980057045127 6.7860198610551 9.484969968527116 0.768193174087735 1.862693277904379 0.418452438815918
Ni 2.6077302854705353 0.8366064349297612 13.111869612906048 0.36759627539599915 0.23104858604453113 -0.8613732950868455
Ni 6.737508270626889 2.7561262561906283 1.5845221273590313 0.47673960459258546 0.6075550194459666 -0.5763078885062268
Ni 1.1101085809652411 0.8738645875783807 7.156055748043575 0.36344831466589667 0.37483495923628346 0.7421167887156574
Ni 6.089119998559932 7.023113014274413 0.14244725189383095 1.5818691630986175 -0.6390692880041638 0.02631215553196759
Ni 4.534219105356355 3.064445795356313 2.9453757388499433 0.2647341512224344 2.0279301076604237 -1.3383733524296693
Ni 7.174002184502576 2.261313553821782 5.38211945805772 1.4822175754425506 -1.352085302699123 -1.6770354612898213
Ni 8.18911158421204 1.2641257505762198 3.0562872369660723 0.25319838266869293 0.20187839223847814 0.995026693609654
Ni 1.3370633361849549 8.157454390458298 8.891548925614611 -0.979050887006688 0.28798258022741374 0.2385135269630086
Ni 2.6453490780479973 4.498228712457594 12.53536000665676 -0.304664668868785 1.8387488512736396 0.46731342618267907
Ni 4.69153907431566 3.298880149100232 0.08618742299441899 -0.2278907571418398 0.7370476017228661 1.3637467981974514
Ni 8.024772016637765 5.787682058036443 3.3302622629082492 -0.14314951093870185 1.8848505307277088 -0.8122356570199301
Ni 1.038560195082404 7.373577745124458 6.55094610743734 -0.0010780635555271755 -0.28030140953307214 -1.2849070050804128
Ni 3.8718192360540162 5.824693650733711 1.759353372863199 -1.3036194938882517 0.1464675195683413 -0.5010997786045047
P 6.549303907761361 3.7910248519955 3.545636980412812 0.15235226048389244 0.20288780733959896 -0.34333714573831836
P 5.617325691649341 1.3466497342934693 0.28280242420044865 -0.00888958918014598 -0.6216474929832907 0.24951887693457672
P 2.290753548012997 2.9642026151352256 0.4498716312361386 0.09562755409833854 -1.0728262183876363 0.8445024874734359
P 6.737213870684976 0.323633856144027 4.356776900367354 -0.2965181285022506 -1.127445191284097 1.6606613908071723
P 3.795348851142335 3.786737652841405 9.038709336578492 0.08028063932862303 -0.09596693971562827 0.435767790165914
P 4.152639980645469 8.624464698312817 3.1729496539474917 -1.2056465794861881 -0.10565228532419224 -0.2515199665250056
P 0.44083907301834646 2.24056755791516 4.729531386819422 0.06842142599719184 -0.8608130517080013 1.2644461661228996
P 0.6592893499160729 2.330414740187474 9.190124746702823 0.48604494115391134 -0.19915430843909573 0.1979662016682655
Ni 5.954487225124231 0.5731046869211094 2.3814425301192164 -0.7213242774503384 -0.6544699388299503 0.0360581791751379
Ni 5.0415898052473915 4.785296255816495 4.837724285471957 0.4849334532572875 0.4890844993111834 0.01973347387318537
Ni 3.030313802090873 1.0532433921852724 8.81343726102677 -0.21754283824861242 0.7706766026312211 -0.5654382927815745
Ni 6.323167952380091 2.256097154851026 11.857297140444876 -0.5095324827528903 -0.07160393749023153 0.28940697137876603
Ni 1.7704568506723795 0.5121160589547334 3.852574679851146 -1.5324744147155738 -0.41794516016219635 -0.10495603058811602
Ni 2.7630170548310096 8.855642252699333 5.738554067729853 0.7345875702181478 -0.6064178205177297 -0.17526490341600784
Ni 8.03590401444132 2.943861419148733 10.319834843800502 0.14578874833376182 0.4108933955217375 -0.5925253788063538
Ni 8.723760278720874 0.15532172935357666 5.539876426930802 0.1935829849989053 0.12587555434960257 -1.4135539515275655
Ni 0.5427428529117819 8.725839478310629 12.739706686337257 1.065993768846835 0.02328031068417926 2.035255437677243
Ni 3.7630384575174762 2.6329198805003937 11.578151715522868 -0.5436484505999927 -1.4444922929776347 -1.6807224232231055
Ni 5.792199257145158 6.818633854620056 11.251864579902357 0.9381760031691971 -0.4704907954693962 0.05398750996004895
Ni 7.271834965199257 7.352012949379393 5.270506920079914 -0.02739124752875928 0.7067592351519699 -1.5564982884339966
Ni 1.4284101181613844 4.918723829489992 1.8866261477510955 0.6196145217136619 -0.023080278858231218 -0.41645931964528926
Ni 7.926359636055445 0.13541109328213055 0.8638623495519154 -0.034057089584709085 -0.5023629615876445 0.2638954573712229
Ni 1.9309784189999795 0.3187044971166354 10.843291740517582 0.09992926679748595 0.24150654815306147 0.21930018725935133
Ni -0.11893941653214574 4.75792626121685 11.829720145886073 1.1447356029334286 -0.9942463638002039 -0.6177126767052588
Ni 3.697341270480143 7.899753241305135 12.113996409795721 -0.4711412845692015 0.39820628697237226 -0.37116008148785756
Ni 8.327323156941608 6.824218253518201 12.254221862127933 -1.2872323107794799 1.3686331797554752 -0.049975817697494575
Ni 4.055607599790861 1.3842869268673008 4.188731573524262 -0.1336433712204795 -1.6109694228986837 1.9445276348733669
Ni 9.1261957993166 4.654159481691002 8.866719050513778 -0.16039724227555602 -0.1805472348608697 0.21898445579114542
Ni 2.4166739231677346 7.867111647745625 0.9576811710405885 -0.5271226850308276 -0.15328582804175536 -0.696272219577717
Ni 5.400012534527249 0.584520044668753 7.445649610904009 -2.3892914578903044 0.4327292604499064 -0.3472099984301633
Ni 2.012748002866079 5.947835626436653 8.210388420013922 -0.3454945584009534 -1.7667697898321768 1.0894928804100399
Ni 0.2402809525903309 7.180506583219197 1.750938134523604 -1.1025890514723657 0.9367256438759157 0.9198993163471963
P 0.967821409039825 6.345643547945447 13.415777752942141 0.493886034464885 -0.6684428560702746 -0.6629682061089486
P 3.3802265330498336 1.4941441051914568 6.587827060160385 0.017480930393582797 1.108230308918543 0.04680127662425489
P 8.219701578176348 2.9980494084569385 12.8080286328567 0.04446851472602019 -0.2503683694190656 -0.08814384412678368
P 0.6950046628691091 0.6159141184744099 1.9073353436649785 1.181378708077759 -1.9286047929955232 -0.7295860032384983
P 7.062893806425293 7.281872163218824 1.966877731916711 0.846162391674362 0.08311116679888267 0.4850100721314937
P 6.175544781507518 5.819836051692161 6.636907210476414 -2.045005832195788 0.015157424466728736 -0.6779345976107937
P 0.004953279022671931 8.327405956925272 10.769745115029018 -0.7721701564576121 -0.6675733089811277 -1.586406388847339
P 0.6521473913252479 4.926746227907098 6.663648845200041 0.7674904915937556 -0.4614374270178763 -0.40458750790836767
Ni 8.305068361332687 0.9324014160285194 11.34896136074426 -0.008292064805463139 -0.14074552948289953 0.9130103025368469
Ni 1.8895968271649528 3.18606977135877 7.469523606193448 1.2581546766872331 0.4847033395243524 1.7805223635315788
Ni 8.84126265553656 3.58044609354465 3.2800376328180363 -0.6491205015925788 0.6047789993627262 0.22011574118211122
Ni 6.0287036104806475 5.138162186192761 1.6486838346993293 0.8074117532687255 -0.6324908634556978 0.6282567707696922
Ni 1.9840900085205684 4.17752597573523 10.157324235865358 -0.41205836236411614 -0.4047610573717545 -0.1219250543422868
Ni 7.667858087060207 4.581424296042331 5.218464370348393 -0.0009405095363983802 0.38901330761919456 1.921750746188168
Ni 5.1790377781276264 2.788933449717464 6.194295297807865 -2.158692300678366 0.5395732520893546 0.4062152733197778
Ni 4.619769888476388 8.624630298280142 0.6593399499060891 -0.43486996094199304 1.3523717235912904 0.8981878928120337
Ni 3.5829760930454575 7.978266025813831 9.636143418699186 0.6734174264667305 -0.5246803941379221 -0.9306123318893263
Ni 6.1325071899992345 8.829597057838292 9.870598012439112 -0.6264338586283406 -0.37264309379128724 0.2277596308806142
Ni 5.362973341835428 6.342892748488205 8.977280948698885 0.20998996560201902 0.4466859797403146 -0.447386605351765
Ni 3.032512601657029 1.008402601032778 1.8700505110216232 0.48742048134519933 0.36324853995026474 0.4302388899278848
Ni 8.820792659575481 2.8873550302979694 7.096041399884964 -0.865312996460884 -0.24524364659799053 -0.31351492017056326
Ni 6.623225893175865 8.039896813653503 7.4954032010871625 1.5558876514331916 -1.4527362781539819 0.7510588284002937
Ni 5.3226957497825715 4.210001969327414 10.624160663754184 -0.07740383200146024 -0.10512726605865766 0.4877475256673148
Ni 2.220042361964972 7.204684178448732 3.2938937500840955 0.5324885773284314 0.42917933831511895 -0.017076495866312526
Ni 8.147058392509525 6.134291989647077 7.095960439900938 1.3718128630350375 0.26408083390915166 1.4268558108427942
Ni 1.424785318876591 6.740093470116805 11.134071483144032 0.5298657949936035 -0.6073220774995541 0.35908978058688484
Ni 1.9906588072244833 2.843057039038376 3.185903251391626 0.2295609457554111 0.5655627341745809 -0.35666368764389544
Ni 1.1435597743650092 2.4308603203686263 11.933617565386147 -0.5160988231164981 0.6881251649905503 0.32944521824757456
Ni 8.376313147275427 5.031065007324032 1.0109399605321334 0.42235254520127263 -0.3351173289316874 -0.30711184485769694
Ni 2.8462586384066704 3.820345246210313 5.494929835799182 0.6222452744682896 -1.4485957736230473 -0.1865150224085304
Ni 6.839168250568428 4.8061158517085945 12.734227167418418 -1.4596854557783057 -0.5604022730195639 -1.093014263299737
Ni 6.391983938802056 4.210084769311077 8.352715151931532 0.4794487759936323 -0.34629031482937134 -0.8042192144733569
P 0.2679269471355188 7.507814918638215 4.3891066139884005 0.00043040266919925875 -0.33340548844690326 -0.36909728542155784
P 7.244676570557861 4.973739818634826 10.287357010208682 0.750741811380507 0.49332759085825356 0.8503252648028
P 3.258795757009256 7.415778136797928 7.349495829876044 0.9890105693225613 0.5711775092581969 0.637881952564282
P 8.765859470414311 8.48705352542532 7.587639622888058 -1.0219345737440917 -0.23074185343738973 0.473049814445824
P 6.766525064901605 2.145669576639415 7.545251551251618 0.712144153612967 0.7078167298822068 0.48074435487660433
P 4.283215554881692 0.5764737262563665 10.683258692093593 -0.4223797988947822 -0.039580847616415706 0.4883401649459912
P 4.453203921341404 5.9419660275947805 12.935624327680882 -1.2073345087115723 -1.3434394540986672 -0.5594478795260945
P 3.013174205472675 4.916258229976478 3.6601180778246256 1.559167607736044 -0.4761855318613282 -2.178899114643544
