# total energy = -381167.32727987005 ev
CRYSTAL
PRIMVEC
9.24134978727963 0.00000000000000 0.00000000000000

0.00000000000000 9.24134978727963 0.00000000000000

0.00000000000000 0.00000000000000 13.52564954364057

PRIMCOORD
 96 1
Ni 0.29042419983296863 4.08036084797115 6.930637060713322 -0.2942437306457771 -1.3954742112077194 -0.9684386587084804
Ni 7.367582859712337 3.071039118692222 6.361612967962109 1.0550082163696088 -1.1727439152208965 -0.07038831991557556
Ni 7.5828416177933695 7.501563947363512 11.621467606477621 0.13762369602446622 0.44499290830860777 -0.9037371047650371
Ni 3.2883309737027093 7.176970781226125 8.101755416043291 0.5259901140882812 1.4767588663208244 -0.3351448397355131
Ni 7.14506040078334 3.3070539481530665 2.7999173259345054 1.0562153493038327 3.476284711806942 0.33840474143370747
Ni 1.4736441025680425 6.117699556930326 0.08524683011713706 0.40983332968833935 1.3857289588954973 0.11606628156866462
Ni 7.270326895686889 3.76516613445766 0.18190395468336393 -0.41529332436164607 -0.005334267728719845 0.8601427651138542
Ni 1.095931658473769 7.348517955323845 3.6988594505083445 -1.0140487432381116 1.9949623944851513 -0.2248802524502901
Ni 2.590775417206234 3.0268562258752634 12.498592752728458 -0.22018104720240791 -1.000116449427736 -0.8616761710392451
Ni 0.39881321781712664 5.009033318598416 2.9672975754618074 0.33490649847246196 -1.051271375034996 -0.20727050978832692
Ni 1.0889359567665033 0.6762126594120236 4.912299490829851 1.4300990003704404 -0.036826681910046254 -1.9072024160603473
Ni 6.072906735034531 3.657689237686853 9.167482647225082 1.618810259099341 0.6724645756351579 -0.6091802137542154
Ni 3.6199660482957583 8.36227553244886 10.323911877239729 0.16627375566099106 2.9398181236673695 -2.1806451508003732
Ni 3.8942031000303827 0.038066043464198514 4.448207227147753 -0.073698358125415 -2.106916710767971 0.2653879827563494
Ni 2.9267539261485758 4.315137336574963 0.8572377617408815 -0.7343805964136643 -0.17993505519816755 -0.8901670793900862
Ni 9.157549120454751 1.6968042146249156 8.252418064000654 1.3175319902042857 0.12176590305660319 -1.1413607729239246
Ni 7.397201385434645 8.80229315608129 9.458473341793393 0.8244445403812962 -0.8498678655504074 0.28607585012300407
Ni 0.8326631646735618 8.898569537040729 0.3896106818064328 3.181231340775676 -0.6179510179683099 2.443991934756978
Ni 1.0258637452049595 5.881315073482307 8.106206050048863 0.06937144861528698 2.0037002885787816 0.5694404719624322
Ni 0.5232673980838616 2.2063075464963577 2.713029232114316 0.38358725150761686 1.3729449197569517 0.2630207680757535
Ni 7.403125090579107 1.455762090938506 4.203176536939737 1.5417239583382996 -0.24747073615629633 2.0168388828432686
Ni 2.166699121770676 8.00913583715197 5.946916642451089 0.4710417828768597 0.28145763462470236 -0.38702713042710124
Ni 3.4257036366862037 5.227212343178122 12.122078911687595 -0.34679142283550596 0.1480150665611193 0.9678653027035138
Ni 6.336386855742395 5.914066416745913 12.775570788777975 -0.4611358366170574 -0.1733941687558562 0.04083143219406516
P 0.7494808520747909 6.559121865714018 10.735253592817145 -1.8441440541472818 -1.142769223235677 -0.6582165503565761
Ni 7.456253609885673 5.329523325478173 7.62517993721433 0.7330845033100601 -2.0576631159484817 -2.1219782330867845
P 8.371664743723077 3.9073073338756967 4.5334864019887675 0.9311211532049448 0.1297257813336282 -0.023791703102959024
Ni 2.298148079609709 0.4133091989241504 2.376686613994608 -0.39840143370231385 -0.7837146667621019 0.3676952628677087
P 2.3911068160342612 2.1018987778190947 10.458194232890449 0.15431529774753425 0.0928034543859821 -0.9409481665976956
P 8.0104203847574 5.547314213371346 1.1491267154980267 2.028558742383358 -1.92014406382268 0.902229409871259
P 1.8503584808969464 2.1319331642769725 0.8400959822206607 -1.3331756102788137 -0.3521570580227935 0.08566967155467826
Ni 3.05903460545875 3.8515912366589133 3.0096460603674156 -1.6842036969034864 0.13011838878635654 1.4426719519394446
Ni 3.5778347351076154 0.689863981158355 13.20308948696909 0.9696398781054333 0.46480145839410275 1.1409815352076351
Ni 6.718655285228587 1.3678306487395187 2.079811952085455 -1.8945759855455886 -1.055109003613531 -1.9163547719835772
Ni 1.8487874514514577 3.698508279220529 8.812123179735213 1.4247642184210882 -1.7477230576133709 -0.12228398034360231
Ni 2.7286101476736953 5.731235554689711 9.991288902365957 -0.4643671990701615 1.8885356928887798 -0.3380563569553533
Ni 5.0126559276727205 1.5849931248544955 9.736209168516618 -0.4227909182902718 0.801088382153859 1.8785662403808936
Ni 4.576806152745675 6.116858594109505 5.995095494869397 1.78160479796248 1.2247928133973358 0.6344451589685912
Ni 2.483658933072922 6.065088553205803 2.528268776245066 0.302097422362241 0.37358797420305984 -2.1903585214333954
Ni 3.819468305173503 2.0947552145169595 1.6459361294499177 1.0610793622643533 -1.2495597359293706 -0.45126460024993253
Ni 3.1432233010376014 2.095660866785535 4.467629771768837 -0.0634514835864262 -2.174343376952062 -1.312124188925153
Ni 6.284274884900557 6.539585652491879 1.656121020931526 0.8169209783107415 1.3711405195583612 0.08548969433338825
Ni 5.20331421290733 3.9058656833257186 1.2763902660672832 1.3059486562420608 -0.11892740516654358 -0.3707998699349614
Ni 0.46034766879202704 4.048921776362011 0.605749216376938 0.6106966503987419 0.06216541778515101 2.111628257311028
Ni 5.392706433235869 7.322475831927444 10.095869560147257 2.424607359582779 -2.1531250910032336 0.7776792592012993
Ni 8.610442736738046 1.685529768016112 0.631846787871414 -0.43836923234450303 -0.9719081053143197 2.3398458016646675
Ni 2.789279608318609 6.196565235093874 4.700974775307317 -0.41958320998625165 -1.2508630281218263 0.3744374666875487
Ni 4.789098437579636 5.358892334759138 2.82458803303849 -0.2608057627023057 0.8556423061403393 3.2816776564188967
Ni 3.981968197935142 3.7932690788325543 9.96976949550263 -0.8592541918613137 -1.4761729119103673 1.692746187156859
Ni 0.053561938606527686 2.7518059353688566 12.416153444643905 1.6613206216577259 -0.006645273230659524 -3.108166502469202
Ni 5.385710731528603 1.6834412229885798 5.3429020274089645 -0.43580198583795915 0.8455388991577503 0.2664997277632894
Ni 8.359641747790246 7.397876003961238 0.3290816896766454 -0.5568472086784538 1.0782149935033754 0.26399804438735824
Ni 0.5713908024040935 0.23813479507728705 10.090066916683595 -0.08491068190146667 -0.19550694149449555 -0.619144781166095
Ni 4.295397813659877 7.871180969138678 12.5802742701393 0.8987211396076844 -0.7987180821494696 -0.4921780506348427
Ni 6.147891046332753 8.97499549888893 0.2725773053322136 1.435634842587005 -0.11959332088531661 -1.3475295650076407
Ni 1.2990010763277415 3.2458854546254687 4.811736047754164 -1.4438315194651845 1.3673165178265807 -0.0707395326074072
P 2.270784443209162 4.947023862249997 6.530413612935126 -1.0052383440353334 0.21517793756086165 -0.7439888089273896
Ni 1.0410195586790887 4.3340543793685855 11.086285336252176 1.7102687694216545 0.18735628736290313 -0.15180487262085468
P 5.201595321866971 5.2711919263021345 11.018237582023271 1.3309873443782434 -0.03513309625770723 -0.8492204617743955
Ni 4.368561579071268 6.149942625961568 0.6615189134218616 0.72978114996844 -2.208558075160558 -1.1754656850274339
P 6.79958178437063 6.883622618354611 5.592883308640206 0.42826351136906887 -1.1047999430807554 -0.36767906491779256
P 5.661195365469939 4.208298092932031 6.9833062849408245 -0.6925389777875299 0.07777484218763381 -0.00456062278748892
P 8.812227606986589 1.0824762533406398 6.149652447581636 -2.1792127892292212 0.09992181059831824 1.3165112622492554
Ni 2.81403718410958 0.7865848710373694 8.488927305669344 0.1519506541700996 -0.2573430009646858 0.9726984624260991
Ni 4.995457775919456 2.762341074003312 12.92910102754084 0.8718939921125114 -0.7898364633891236 -1.4544082665397662
Ni 7.317245228008934 4.076322378161275 11.287573946022938 -1.0056990857218358 0.8140079184290046 -1.5545877016748453
Ni 8.77756330433936 5.42751859747797 12.400179771723154 0.09343337466049716 1.2423403353627958 0.10616444907392039
Ni 3.835760804658192 4.947088551697753 7.970597560719157 0.4755124170537036 -0.3767380897962673 -0.1532266926690458
Ni 0.11209941988041584 6.245572112443451 5.532531750424262 0.2720062594038154 -0.9682828498569066 0.4642090762257424
Ni 6.133825712120787 0.29172538186782077 11.457023333743447 -0.049583467355082345 0.5288314401918183 0.07694231898400943
Ni 4.598902219828993 8.840284344613087 1.8543396543388093 -1.1389511350411676 -0.22661703263573876 0.7334377728844207
Ni 6.324585652201868 8.814565668455465 6.28664067041847 -1.0392730650225392 1.357931734177571 -0.5028265314876244
Ni 8.995742328919064 4.177237916659745 9.270669709474735 -3.091323205659618 -0.5276965552564268 0.09009582564683193
Ni 7.65303890995769 1.9770481436511154 10.004692555940883 0.11108399786272481 -0.021688797827343294 1.5440204676819602
Ni 2.1538813697654215 2.1821783824835825 6.746039252598427 -0.2885939885591675 0.14372492382619764 -0.31889598197681857
Ni 4.46110445476025 2.5134715271384955 7.67688806107518 -0.13485950301576774 -0.27457222035877876 -0.7451488906737618
Ni 5.5976426037250695 7.591861175080411 3.7291433534075646 0.12826950850307586 -0.2653476164367172 1.3918453562058806
Ni 1.1572664962955956 8.326899645876319 7.9220943369271035 -0.19072854626924574 0.8161974698811556 1.168902172877303
Ni 8.754783377379768 0.16425020439090723 12.401883876604026 -3.012160996206154 0.6562185460899409 -2.838730060675092
Ni 6.257678280523397 4.648278751165745 4.88321973579385 0.19609341012558487 0.731126865363057 -0.6518091041683355
Ni 6.053592314204696 7.059827432690722 7.822113098881216 -0.6791957237114045 -0.5390474614928716 0.09575430948418993
Ni 7.944973146328264 6.3888130324733305 3.537173720653456 -1.2526756558505328 0.3863257334847024 0.0749761963965741
Ni 8.405968633732812 7.576206328723598 7.286713656938308 -0.9066429655579223 0.22063741801353612 0.3253725908400977
Ni 8.978830659005858 0.08080266505633905 2.6528939214808687 -0.5328467319987985 -1.3174977945322406 -0.12175947529869999
Ni 1.7176249754524846 0.7401720405427846 12.025939302703412 -0.28536853964333436 1.7884236206565265 -0.4013767142805539
Ni 5.2367678987465665 9.062012047469661 8.513110993645226 -1.5957837162971809 -0.8485645733579514 -0.7853020658538798
Ni 7.82048292479778 6.361541809569578 9.48613270138368 0.9832600399920294 0.8143141368155136 1.725731383833628
Ni 2.1125910193980992 7.853123371865233 11.559560729110643 -2.1966816354379457 -1.5550566708914637 2.6965747953288592
P 3.0391749449978334 7.517191069671288 0.9695525050688262 -3.0305644384140065 3.593505161584708 0.3359238839933828
Ni 3.8085265471531558 3.945492590750759 5.350368113814908 0.8045388025963047 0.8527374737887184 1.2973400886374433
P 6.919525261858874 8.56126951509424 2.314021945953923 0.8017278155100709 -0.880788980609296 0.1945090963576005
Ni 6.879732010139606 1.2261515168054486 7.956449978495044 -0.09755459591772232 1.3336589776731353 -1.3149061225456644
P 3.992142923932103 9.108662380651005 6.728158165103859 -0.37681393733952523 0.34579434902955924 -0.5086968742254723
P 7.339378260490971 2.1896453930244952 12.262989163328342 -2.4951437750404444 -2.886445364473184 -0.64001725373973
P 5.021407485819063 2.9102119102225448 3.25588089843865 0.8066933870454623 -0.19327033885449296 1.487037365428697
Ni 8.271580926695748 8.41337095482597 4.861794590697252 0.4821481772026664 0.4788571651562205 0.14309140400725678
