# total energy = -340859.76485030085 ev
CRYSTAL
PRIMVEC
9.31533784897613 0.00000000000000 0.00000000000000

0.00000000000000 9.31533784897613 0.00000000000000

0.00000000000000 0.00000000000000 13.63393855075633

PRIMCOORD
 96 1
Ni 2.456007401857201 8.465657756101225 0.9325146699631927 -0.6712060206377085 -0.3632814500707292 0.045604428102676293
Ni 2.075531750917874 9.178225194230519 7.767445253289174 0.6581270759665634 -1.977052089863634 0.19003100598158884
Ni 6.324369036718442 6.305123549135428 7.3059364116742005 -0.7766880989326236 -0.21604645620874405 0.29702129339091426
Ni 4.795694182490247 9.27805766781579 4.518055201528021 -0.9847787906294007 0.0815376516641757 -0.582388804592984
Ni 1.2667648208864533 3.2273453052145884 11.099579723252113 1.7947336220349543 -0.1559237798852347 0.5459184775810921
Ni 7.614319733013475 5.539533209107528 5.182069236762742 -0.2353947788283688 -0.18630881993499526 0.8046015375134401
Ni 2.4765011446851934 5.413124077209412 13.52965229356049 4.330958740496741 -4.246598017561474 -1.5847680819129673
Ni 5.242774497620549 3.930262053539428 4.341332067919653 -0.2785821128491202 -0.077207399719938 0.31350103621349235
Ni 0.8279369633794774 8.964400933833367 5.433111065669293 0.5922710967037026 -0.14025830543383586 0.5249030516716895
Ni 6.774402313883506 4.514687706967876 9.07991670988464 0.4955508237618175 0.24386142153848328 0.5167662814971681
Ni 6.573694048896268 9.147577733365022 8.001212720059259 -0.052339947054296954 0.2896288575815851 0.7270511526317865
Ni 7.247220906938238 7.980589494037944 11.273453295073622 0.3350612788827713 0.37353243837477607 1.6606302804589208
Ni 8.288899224209791 3.5900379765818076 3.9049504180793275 -0.690853876775623 -0.7935298530803108 -0.05872348198313758
Ni 3.6964284478720355 7.19778441003453 7.179454620142422 0.144619410616009 0.6655123126870409 0.685197192710478
Ni 1.9747491128923969 1.8328951511720932 8.907460932453318 -1.6840448027281192 0.7049489214161084 0.03564217468364184
Ni 2.512178887881198 7.1317014047519045 5.038313083094494 -1.554731426341561 1.3041535120148506 0.39649573203916877
Ni 8.21285812298029 1.1419299810510326 2.345500482859842 3.5439427772755483 0.8243406678135803 0.5382943853769311
Ni 9.052747596097312 7.324240118620892 4.08161952272933 2.4146787876151574 0.12631958386555664 2.9795113284919332
Ni 4.238040809465277 5.228158732849132 8.344597491081215 0.40809912060605197 0.7830513221464901 -0.0011783365788173255
Ni 5.643054556401837 5.589854663087898 2.825906418429754 0.18474198966850763 -1.5006927514286026 -0.919782331153358
Ni 6.410256449843029 2.6088348313281293 10.766366369409194 -0.31302898167308024 0.5386826219542851 0.23383977563642305
Ni 0.3177256734675445 2.3198078500898935 13.577016127837274 1.5444143606862692 -0.41465003435069236 0.09290372740927226
Ni 0.989093236242455 6.95994520917803 8.526978760777638 0.5184773506510039 -0.43378392696666584 -0.9618049554420468
Ni 0.3539455693147263 8.944382273225477 11.855063853464516 0.486741967220936 -0.06460410913363068 1.7975890892058783
P 6.007284258481156 8.82084226532328 6.020855773902111 0.3603773890500568 -2.1257022189055905 1.1752350570738663
P 7.421454982326768 3.711174627370541 1.7866864187637952 -0.16262998826081668 0.16579630180394025 -0.7561154169875945
P 6.274559926308773 2.0156154991589434 3.722910089740861 0.31078080906885186 -0.1800173304993287 0.42246593085068535
P 5.934605994142975 1.7892155329355222 12.893411005992757 -3.1771054915327603 -0.3436829591135113 -1.5631541031876177
P 8.856426855142795 4.412694075048018 10.526981754036711 -0.5358446382848578 -0.008310833858540525 -0.5753640365357188
P 3.405230992961562 5.650497511183458 3.7671803003843842 0.4945753472224257 -2.341024395353801 -0.23423932506768694
P -0.13559684942141145 0.2948052851819649 0.521368269814245 1.8415642092352476 -1.429264677394603 1.5802233999650785
P 5.450944348064707 4.519401267818314 6.468894637276505 -0.0743007675961043 0.6582281203208018 -0.02513227629125349
Ni 4.819336509443631 9.143665291552406 13.42683891192751 0.4102737596598676 -0.1661310594355397 0.9459307074139516
Ni 8.274656072944337 5.602057755408204 2.654786460417313 -0.05403301848600372 0.19232880087683005 0.6857067853570448
Ni 4.643490880641807 4.286135897747515 1.1139653374284721 -0.7599219352178784 -0.29813818060417685 2.484644161060702
Ni 4.145204154454472 6.715920624122535 0.9969833272312321 0.035840149627060856 -0.9151767140605465 -2.644709216807819
Ni 9.265901152183732 0.4139177130995512 7.597553056778883 -1.9545958177426463 1.1730498764970894 -1.2129870790116595
Ni 9.214182397555998 1.7937893637212243 5.055341520317026 -0.928170298106737 0.12947561299603508 0.7877294443484498
Ni 7.578306637662103 9.465314585237746 4.214523308036391 -0.4434471610880428 -2.2063726374734647 -0.05835247179696402
Ni 7.384845705365855 5.463687729968658 12.033231795942257 -0.2898160338917267 -0.41423223008698346 -2.0416963082065807
Ni 5.112751014714588 2.8105770987944165 8.213657378950582 2.840187619057225 0.209120161402556 3.34170905858018
Ni 1.403961113782213 3.6298796757069542 6.681352337640536 -1.2880828317052335 -0.34641527044300985 1.2489583548999457
Ni 1.5659082588115982 4.737557160222293 8.947053912063236 -0.32839903637124734 -0.6788180286570116 0.14694343076349534
Ni 4.376140690112998 0.2887801247905351 7.718704612107854 0.020937007262983295 0.26160666133704624 0.3330717592565683
Ni 4.055804859036179 1.8504266166276757 3.549023476446641 1.3117624347103602 2.18312523690975 -1.2650622024403437
Ni 0.3195132867624044 6.504741919617723 10.925147231171655 -0.08262394274981899 -0.2668766514867339 0.15610684243031825
Ni 2.7488070948433174 8.027240704984575 12.00661880781258 -1.090350857534961 0.3769106108183896 -0.5265966373240285
Ni 7.798437381647688 7.608702584411075 9.16515577550885 2.067966554757019 -1.014069312063402 -1.624884747428195
Ni 2.070883397430979 2.2932032457641 5.028087636957092 2.166291967402495 0.6222925827664573 -0.20663673285906992
Ni 7.001882859274221 1.3924846177985375 5.953667969574303 0.16241530114684932 2.339872026916912 1.153138225174827
Ni 8.797581867213509 4.850533575230425 7.708356203513483 0.11611770363189035 3.291681304598828 -0.6059195407250726
Ni 0.9118141266393905 5.1758624272871545 3.9721251809344267 0.8812751762170952 -0.4278667901512825 1.6564069864061928
Ni 2.4187367359232024 0.38502991951596616 3.6199607041782063 -0.39314121374463906 -1.632178967096763 1.1882165569351988
Ni 4.736579049769139 2.427372053923906 6.236081992615452 -1.9230468392917721 -1.1351261048681227 -4.096424509896455
Ni 3.7947984134463986 7.656797672693314 2.9729210772076526 -0.8175151602513148 0.23593239649939368 1.1866592397504079
Ni 5.9056352940543135 6.71720614071811 9.8138041612914 -1.9026837022543879 -0.5865131111740027 0.03488575613359153
P 7.132483893114427 7.210602314639675 3.58250838916005 -1.5897974168067588 -0.1866050110191754 0.964996465796151
P 7.980505655999102 0.602541190554628 9.377368482492711 0.39292524107909105 1.3556552794385686 0.9899806465453144
P 8.145824953257458 3.453204981854362 6.350347650354218 0.44010524119900335 -1.3132948121944865 -1.1075834193631635
P 3.0486584984297926 0.6850592460515392 6.095502369085544 -0.3863846117470958 -0.051165981350853824 -1.799340010458714
P 3.3952542663393896 7.844837078477792 9.680096462345224 -1.0468891868069004 -0.6792139785438496 -1.765730549934385
P 1.04896291131314 6.602869686413211 0.155874476415945 -2.786444363897498 3.515045120404591 -1.0949970980577206
P 1.5325593500278651 7.894487828147429 3.016249507214853 -0.8003561319735248 0.29319806299008216 -0.14890081160018226
P 1.0661776552886535 2.0941531108783997 3.1076245857485163 -1.0359511997381579 0.6471009000593888 -0.07158182600304447
Ni 4.194174884475724 6.148085587047112 12.242458937209586 2.304923021645553 1.3597343346039485 -1.0154055143763223
Ni 2.598802212680062 3.7443465447389412 2.4671979169750498 1.1184280753871514 0.0457887761993405 0.7193717817096579
Ni 7.812736424939038 0.738795702814065 12.751876560353818 -1.831389582695091 -0.8276157390204263 -1.052597035824955
Ni 0.40774816497456057 4.011435905813576 1.8631047911680838 -0.6324319851933043 -1.4028489064052356 -0.8998264568567214
Ni 6.473190871000264 1.6934631772405526 1.3244211717317151 -2.8377625545554994 0.6454641357869142 -0.22585572898968198
Ni 7.5126707685866325 3.054126601629807 13.057972966300241 0.6751385229228953 2.918447114190761 0.5546491725858704
Ni 2.4265057275225415 1.4356984691526542 1.5645901385342524 0.41711186562762353 0.8989134581241487 -1.86772595523228
Ni 5.297101546790028 6.8314587569841665 4.6927746060080695 -0.16303339434682246 0.4044162724378261 2.326677382603509
Ni 5.990488704699851 7.586457558105055 1.901811882167572 0.954347470722737 2.7608467179340517 -1.7702330657904286
Ni 0.25304090036604626 4.698153281966652 13.03011824366194 -0.723500973386683 -0.027968717298784092 -1.0031773477412465
Ni 5.16540130310723 4.109125851739556 12.768455998301663 0.9219369156025156 -1.385268731429627 -3.392259774944538
Ni 3.590736626905489 1.6105753028389724 12.386991990037767 -0.7073739859178334 -0.014143124269601449 0.9024656942517812
Ni 8.530157153983508 7.333452987555839 13.312491279217433 -0.3809315590523246 1.3902301891999607 -1.7416046034204586
Ni 1.829122439424213 6.014550221847444 1.9554067457978317 0.41810893943357025 0.5936980589582161 2.293419391881328
Ni 0.4256475862672821 8.83707889884564 9.633236587835254 1.8877337658127746 0.5254362984673403 0.791924970487036
Ni 8.748993066035869 2.839035455312378 8.684600794536552 -0.0795419613903856 -1.1031348966735066 0.6724756313787515
Ni 2.7131293516473125 4.898339888045541 10.956164510941822 1.4887800591514164 1.094506274464231 0.3023861572472534
Ni 3.874397973657851 2.170343257510286 10.224253774184197 -0.5692751500291615 1.0111811918823295 -0.0786166213626388
Ni 7.303466915663427 5.664703401098317 0.6429501937426044 -1.895132115159375 -1.044005437501202 0.20581449406809071
Ni 7.864436548891473 7.782778299059572 6.538210064723365 1.4628497124389 0.5920618089063738 -0.817360122730689
Ni 4.847254576377947 8.498960088196712 10.977638227290498 1.0457216488613603 1.2471138454920394 0.4393814756591013
Ni 8.534116172484369 7.9147859488847905 1.9338240399986608 0.4630747055109832 0.9853801716588255 -0.5249994680402377
Ni 2.9830505753672703 5.078917708373101 5.946959994933195 1.6028233967527816 -0.8240827861665033 -0.04694680106318366
Ni 8.839854869465068 1.9781212651213667 11.024689066222274 -1.8403416496820562 -1.5485558936584687 -0.6185459712398316
P 4.603891380295537 0.09821905710444813 2.038192151485272 -0.8743208563864491 1.3167555170495775 -0.4694335578494754
P 5.515481007297584 1.0736485560832216 9.546783733715369 0.2795676166908411 -1.595642819843942 0.1605247689923558
P 6.237354467738317 7.47329483634394 13.27597888176807 -0.3094507774035187 -1.1278941058960577 -0.9564786581331268
P 1.871656271129946 0.8967922131464721 10.880196069345985 0.23128152799094362 0.22759096651323382 0.6942844997237269
P 0.46171284750948904 6.792399546221543 6.389954602970608 0.7686636859662505 -0.3642643828092888 -0.5640128731889577
P 3.195766310584182 3.4465165694223177 8.089561245390735 -3.275982405806332 -0.3470660166531313 -0.7424952551009987
P 4.965093597638902 4.831670016491023 10.35947521549835 0.08744681805975908 -0.7254115601458345 2.076531927828527
P 2.751629642150991 3.177377834064883 0.1047043951757428 -0.22010442832820157 0.05048361057184854 0.3132110157768993
