# total energy = -381163.5834461115 ev
CRYSTAL
PRIMVEC
9.29287188130535 0.00000000000000 0.00000000000000

0.00000000000000 9.29287188130535 0.00000000000000

0.00000000000000 0.00000000000000 13.60105733618403

PRIMCOORD
 96 1
Ni 6.672663074947066 0.8786856495924394 4.796738891021163 1.0172988747442933 2.327978617913436 1.6664767119373685
Ni 1.727740047653593 2.2891689071099846 0.6922743552259504 -0.41386301967302275 -1.4662456254943266 1.4101991761227197
Ni 4.82420862053458 7.558980030992961 7.134271620959168 -0.9208079442043948 -1.7980184634338128 0.13959007572221765
Ni 0.9839106973685979 1.082749683533924 12.466131250918291 0.45486491600668116 -1.3439598453785113 1.1180825191222745
Ni 4.262789053950148 7.557595393070939 11.846249297547033 0.7684757383251604 -0.35243422294358007 -0.18575808963784782
Ni 3.4675608288550346 5.480852246091943 1.9766551988222616 0.1654782563428892 0.25927852742450186 0.7105366999165311
Ni 1.2209161038334795 5.069902862281952 6.423221947225468 0.7309314615227992 1.833070312831624 0.320418589268932
Ni 4.041841730231946 0.3548548207985424 7.026646224355771 -1.3645939766890949 0.9964731962481935 1.3712857868869737
Ni 3.4831078036439207 4.9477387674973174 5.849433568062429 0.8543130458059545 0.5238378436319688 0.8257563172141844
Ni 4.890717705151469 2.3535870955359 5.852847769220491 1.055626052459266 -1.0334235482202976 -1.1136494230515852
Ni 9.092229561398142 7.450253429062319 6.975805851150442 0.86444524914395 0.5437695495588893 -0.20645238476240577
Ni 3.856941456846134 2.981385646529784 1.7716330697817129 -0.2819145196564629 0.7473788084455452 -1.1538033695626517
Ni 0.6334634857406285 5.452508986614297 8.873384285317266 2.4674283114030473 1.985350839537316 0.8871478329477882
Ni 4.453850501445363 5.162664310185515 13.344323449009659 -0.7244129436779911 0.4673468505237758 0.11834350763861554
Ni 4.324949074489812 2.800732215629639 10.656768191692253 -0.057694012277358694 0.31226819224765573 -0.3811994680017306
Ni 1.0866155182692359 6.3535644375885685 1.8714784739802945 -0.16035199085991741 0.6447707092643153 -0.3806096569365316
Ni 1.6038196000685396 8.973150700104188 3.5623211735171676 -0.6224656180092117 -2.4744965311037386 -0.7550748915382222
Ni 6.727435262278622 8.132080737630968 0.09158125316465679 -1.282183949722295 1.1738705726261718 -1.128302911298702
Ni 3.8757037653331396 8.477459616892016 9.366042175121732 0.500608183680067 0.5938343274257644 0.07012041096616957
Ni 7.057137066543347 4.183901863882693 0.057007123037908385 -2.3034778045585944 -0.07551150007475382 -4.214376695633923
Ni 4.826085780670477 2.0025302715073625 3.526685797412601 3.127701744288652 -1.5038140706664038 0.10255076358073306
Ni 1.9047506727454633 3.23644710321272 11.39518351477342 -0.5745132584996493 -1.2490342024432037 -0.43840059980307083
Ni 1.5548833363277905 0.8414704852546919 7.608077990705813 0.3665313244665946 -0.8750132544677834 -1.0269235423182508
Ni 4.874204271678756 4.028822416616149 4.205038501155449 -0.8868434143334919 1.7895451358554793 -0.02069352379360952
P 3.405094143540695 7.759483036399419 3.040720633993643 0.5932866824524105 -2.23901073522346 0.46941118925197217
Ni 7.764148058123281 8.956990395765951 11.724247828021696 0.28206647185329486 1.192897764460952 0.8912137754870457
P 8.853412044901082 2.1434287961631235 8.543708501094029 -1.0077983914530257 0.3846277769569892 0.39776071479452146
Ni 9.139009878844199 7.349908997639492 12.917386608279886 -1.5486654226531393 0.7727406842491015 1.1604314164021308
P 3.075652539690847 5.803630860746554 7.922955805620131 0.2817119167273535 0.24513000383826172 -0.32240708045387056
P 8.395942544059915 5.155322941337206 3.9596351263004204 2.762817468507177 -0.7963002167365962 -1.84747543251336
P 2.0093791181417973 0.4928130807661963 5.598779720550067 -0.06297402972937542 -0.6990284421666155 0.3218905458287682
Ni 8.392597110154355 2.221182255851473 1.1050256269089622 0.5603621638102478 -0.3885620790143889 1.0635278238048458
Ni 2.666942738023189 2.7579850046141727 6.269448148469286 -0.13036958556521416 -0.8336125800338094 -0.8119649198570468
Ni 4.437244139253051 9.145710039527275 4.965664717507934 -0.46445435946732916 0.054063357503306896 -1.774016958312893
Ni 8.951962952035654 1.6437882423680006 10.73954444867492 -1.0637551093243036 1.4480864380867964 -0.08574089111224588
Ni 8.48673390310798 7.22104474217178 9.8612017060578 1.1357771081885601 -0.5538631863494655 -0.2448171005835332
Ni 8.837288912050685 9.23586948328207 5.081626749546542 0.5430974631925292 0.4150382709280465 -0.13003225683045347
Ni 7.638666408048967 5.777499304795359 11.823331216719566 -1.341301838930374 0.3956274705016025 0.3238859789922422
Ni 3.4807009498063106 0.28126177988663303 12.852318848103975 -0.3484724100823547 0.4151477999227173 -0.13714469950551864
Ni 5.581484756545527 4.8253795224015255 11.416169607520425 0.32993192807600596 -0.9892126580310383 -0.5635014807701779
Ni 8.609158198307492 4.033338752388652 10.073093126051095 -0.8870663289775755 -0.4316432264745792 0.2977072637143453
Ni 2.0020656279093685 7.5450871874129355 12.543874488447484 -0.05374222671846229 0.4271124284837612 -0.6955757077313246
Ni 8.444730121849306 9.015070845515226 1.8535924833191058 0.64884282245116 0.910665199343438 0.012987670508919566
Ni 0.5866078960316974 3.5659444642943265 4.845770871343099 0.3161688128536426 -0.29267072973170244 0.5814932893619081
Ni 6.381749718242897 7.575428414361957 10.635468929160199 -1.5811952769600446 -0.9001550438407336 0.5518217304394045
Ni 0.14314182394687716 0.11035843024679841 9.086907533626716 -1.1663141004351527 -2.0953223210621528 -1.2707646521417597
Ni 4.806431356475322 3.492270575396366 7.683713604874504 -0.8742966880167329 1.4741350555447321 1.7261908399685497
Ni 5.985678222440681 5.293489361636762 6.071009089925121 -1.8213208856051792 -0.9111341685600566 1.1877463021669996
Ni 0.7219483539682521 3.9072158941491066 2.5965641015222034 -0.6512280348538849 1.337609477680451 -2.1442342162715073
Ni 6.442785301275416 5.487979878885175 3.4165587596776037 -0.9199283698129189 1.3531376552230372 -0.24199145820928
Ni 1.7990628399457025 7.529400819544652 8.319780024051097 0.07778461237964669 0.7262271140685944 -0.6002250614434567
Ni 2.8731887383008545 4.213350975123565 9.472293155962262 0.3964417388727817 1.195714665084457 -0.3932234890458002
Ni 9.156591992592299 7.22827459655657 4.257470743327506 0.31633130657343583 -1.5505191880324265 -0.8559528954022225
Ni 7.1870049521827255 0.09664772695718556 9.530179384687576 -0.9194185200560359 1.1108903722492092 -0.5320486615775354
Ni 3.234504892973104 1.7957638703999437 8.759910884389516 0.672568448202874 1.313127690489003 0.41318527687970774
Ni 5.353642121833091 0.7100163063717609 11.062488476450417 -0.5577334679381492 -1.6850974123623497 -0.7654310379615656
P 1.5496142779265365 9.27188865499858 1.238323511588734 -0.14421600453000324 0.39584832826315697 -0.5573611722003949
Ni 5.980279063831989 2.4295749095518717 12.329412660070085 1.1183666260215965 0.93311118705178 0.39617742946780155
P 9.036788287285473 5.4057658406560805 0.3411747839863971 0.923183643525423 -1.0799234915540497 -1.57668684756673
Ni 6.474241672859622 2.9078418578392617 9.443799351958866 0.12854924452702376 -0.04837093510421992 1.2297113337448757
P 5.246736922806586 1.082749683533924 8.735986385528793 0.32290356047431484 0.4163603321735797 1.1209369578519341
P 2.720469680512121 5.141560197964618 11.80932221224004 1.7135821500656037 -0.002782704951459724 0.2415903661161194
P 6.802995604184439 5.204965463346907 8.854737208442563 0.00017380657370292646 -0.009112246713913339 0.21931895631242876
Ni 3.470190711619682 7.639800138428074 0.6079926529857825 0.1961494601745009 0.04883193390103848 1.6814988963778137
Ni 7.8897226369171936 6.805365286534209 1.3784126270967894 -0.309823330251589 -0.671712785070798 1.985668627888051
Ni 1.7771595407362557 4.462381357904537 0.021308555404014006 0.6698096545108142 1.39768304593358 1.1586403859399788
Ni 4.815575542483848 6.226633099488513 9.757330629726196 -0.5678397031342156 -0.7818431607710018 -1.8388336976779625
Ni 6.541810144879939 0.1956911563056292 7.278578771049815 -0.22954757601897244 2.7409774898139507 -1.5576570846287883
Ni 8.717866214494215 4.3132586415642775 7.560556102077359 -3.137204027352132 -1.2484958134412305 -0.4291839663008092
Ni 7.536993095935876 3.316059137293046 4.90025683821829 -1.244135993810638 -0.20856917399509242 -0.7796708357100315
Ni 2.519018802165755 7.520340269383764 5.860980890759782 -0.1044027291878073 0.7962027719267837 0.7587266293581966
Ni 5.4639670977408334 7.355205934656626 1.9527585785774197 -1.080105782768185 -2.459154244319713 -1.1684566006994521
Ni 4.016407139677743 0.35344787998381594 2.2856989487201638 -1.582195950310417 -1.1753504996058082 -0.612938395245067
Ni 1.376525244801737 3.182102387991318 8.014491523712184 -0.41114022142522094 0.3521789123996645 1.1804358845485154
Ni 6.991854641025161 7.518825531254303 7.865260080769994 0.5056377756841742 -3.608330656633315 2.339293785815939
Ni 6.994995631747602 2.6899518889958616 7.20505170952882 -0.820139485248039 -0.1855948245871062 -0.48423925540374024
Ni 4.948528661613908 6.8399440630969375 4.715173495254869 -1.6664515151263881 -0.2848329788548385 -1.2262994798498494
Ni 8.038501516994936 5.683566955024852 5.8541534177308545 1.6277540985561902 1.0351965809603205 1.124422088187057
Ni 6.175522303709152 8.740633750795931 3.3023094039412015 1.0460096124154241 0.44599255321771575 -0.20029819223555181
Ni 0.47660909992974654 1.719859692231611 3.1806480535295965 -1.6092969202922673 -0.584902057933141 -0.4055712119778757
Ni 6.810783030886822 7.915408135014313 5.6403997061968 0.49342940654344053 -0.6086271694642229 -1.5024318456068964
Ni 3.6305578030313996 2.618424653520634 12.896345687588317 0.5992225883208712 0.43209676907223005 0.3993645689465315
Ni 1.990393780727754 0.6405911185338595 10.284684386280086 1.2578001215612917 -0.21771407371915408 1.1141824127369198
Ni 8.891670798759925 1.7683406052463257 6.364710308217254 0.8541464383211033 0.6903512261075917 0.0011438837964560945
Ni 2.2008587448752066 6.069788006549592 4.072483116945271 0.018593189621155075 -0.3349733471546554 -0.5704853682871788
Ni 5.2892053476632555 1.1695358147672807 0.6492669437956073 0.5018214872618777 0.2006262649989319 -0.47765800264179675
Ni 7.916709137088697 4.3880105036095856 1.8851743086747714 0.29828730458753144 0.3229326139400374 4.137202977365397
Ni 9.211327008436015 3.301376399596429 12.79329052541479 -0.9065321510116712 0.03833540524508882 -0.9170914145847562
P 5.522475019600263 4.5743604650211385 1.6103246104404585 -0.3847663594173825 0.11138301716038237 0.09421601846279258
Ni 2.4363029488508277 6.658593666799802 10.415935051267095 -0.020148192813100787 0.319788668994417 -0.8283551882896121
P 7.326955603898578 0.9759652918428972 13.459606172108002 -0.5285141660617156 -0.9176241471597745 -0.9307298313037969
Ni 2.6328564836743347 1.6312056937343178 3.927754070467646 0.7904951800190451 1.6598859460937285 0.5305695059288476
P 7.077572091983131 1.9934139641147164 2.8326374329295083 -0.004430524967527854 -0.8263962647910285 1.2761891655914408
P 2.5396489779166975 3.7588923647973984 3.4079080251701477 2.3806445808485837 0.8123117616735043 1.1846383526656372
P 0.46800575906928593 8.56686633801806 11.081855750902012 1.239886731615981 -0.3693639088193832 0.5368098304116046
Ni 0.5037935382739952 5.484606566363737 11.562653148224076 1.7667091117975702 -0.35909003769720094 -0.36475880594720406
