# total energy = -381162.37007186515 ev
CRYSTAL
PRIMVEC
9.32626973140267 0.00000000000000 0.00000000000000
0.00000000000000 9.32626973140267 0.00000000000000
0.00000000000000 0.00000000000000 13.64993846569682
PRIMCOORD
 96 1
Ni 7.185620512329614 6.901747508473157 3.634992042390656 1.5071215377730818 2.843999793714463 3.459261437776068
Ni 3.198556184657942 4.954114582053694 4.576223451123283 -0.20957396111052293 0.6059627352581822 -1.002750544616473
Ni 7.220659308422943 0.7453610878510549 6.827440452877313 -0.40545088434992754 -0.3400204226602596 -1.02361890342505
Ni 4.312448558946656 7.029517406391334 5.488395135408959 -0.20636419592397365 0.8544541993695092 0.7192540251848709
Ni 6.704161153926114 7.068473235851496 6.465074763484449 0.8058269252801089 0.936286242345652 -1.5722984886910472
Ni -0.2953984082248725 6.068902278254827 7.318210226542983 2.9628073854736914 1.1799820848405485 -2.891081577693615
Ni 6.709943441277154 2.969997287703142 4.572156264810721 -1.7426387011119278 1.514262262582921 -0.2800576689533822
Ni 2.7769528266076424 3.2486196015940565 11.557048402256894 -0.6852606989585618 -0.7894489981427179 -0.45106225443113934
Ni 1.3068808777646876 0.5499197753858495 2.8296593084393784 -0.8245263014618253 0.3056712557564284 -0.26128630188315
Ni 6.090455288042339 0.3812523186099506 13.360450564347556 -0.29297900500074064 0.26033653637537096 1.245433629576139
Ni 9.410392875722549 7.31139458848469 4.9965323229085445 -1.4271147209311357 -1.7624256539308678 -0.1280530216168956
Ni 5.4266020687931595 0.32513055673313146 4.989120736202297 1.1361717725238174 0.42998409360460144 0.9121703231340549
Ni 2.2954375105846148 7.67685380161036 3.615076725601278 -0.26769889027771315 -1.291561277172137 -0.43060115836331003
Ni 8.114703521863103 4.17062397225748 10.287166702522937 0.24694237445665215 0.2067706873337729 -0.0414765219772318
Ni 6.46151958939055 2.0880305938107218 11.760610097942346 -0.9131861659930789 1.537371852017191 0.3287253093624145
Ni 3.101376452080759 0.35610776227584867 4.2244244255509535 0.9817374326999155 0.8728036484109741 1.3695940010068477
Ni 0.38362678693184604 5.673291234474451 12.58099822942715 -1.8492919168968085 0.35031589104899663 1.0086661387699596
Ni 5.493769864764452 6.584197343931842 8.298084102066426 0.8398822150926053 0.3282794800742475 0.8793627896857307
Ni 3.950561307200742 6.109853929478091 2.2397913884737686 1.2654774356008915 1.6295117046772454 3.4857402007928875
Ni 4.816244333811036 0.32329607943966393 11.445678749994856 -0.301961411005009 0.5489282109416933 -0.7569636239205029
Ni 9.124309545894805 3.5098204432724787 3.6175472545033602 -0.2586825457117158 -0.7346868148001734 1.8497968815576853
Ni 7.191719892857971 8.917881887462622 11.599567799453885 1.0093896471995454 1.2583333683569426 -0.8944520799186852
Ni 7.255865977374849 1.9691206523175275 2.408722778688433 1.571954732198383 -0.4207962564577463 1.562229534490819
Ni 3.2525552875007335 4.565255757696147 9.593272635231113 0.6073850695270054 0.3768656165130671 -0.12267581646538227
P 7.645041894909711 8.800417517807187 5.104967930653424 0.07062383296514933 -0.8563578441501252 -0.14644823629463166
Ni 8.76366268804839 1.195534541177453 13.245736511691835 -3.424951865860921 -0.6360055614771757 1.413301212086811
P 8.737250691632019 0.5283686308523221 1.7437382828978318 -0.1639487070722402 0.9325095489120391 -1.2908709359733317
Ni 1.5283518095795012 2.9691206183305647 9.209176736922238 0.08670634034930874 -0.4213989230387517 0.3147397937165999
P 1.905207724548676 5.2840313805103 8.034736353052182 -0.8864451504538088 1.0768101427360488 0.40856397605761247
P 5.304101513380367 8.394482293224225 9.812094906388353 -0.23990140844947067 -0.21163804272840325 -1.4298115510370084
P 0.361590676362425 6.0613386733488674 1.4031587600405064 -1.1386590577220455 0.13519683175052846 -1.764380977885026
Ni 4.394389166472868 6.425576145114882 10.46042548198096 0.1465680497019476 -0.6097209167490337 -0.7178951971641314
Ni 8.444480426270895 7.199320802843614 11.075286872707952 1.1587074917324882 -1.4141962130972547 -1.6546465520716602
Ni 4.630465036984022 4.978073769480832 6.426377271701099 -1.021505456626473 -0.7651453884003468 0.8868588409524598
Ni 2.427376251157494 2.8233510194647904 4.068282149279004 -1.3487595807599997 0.06627918284320843 -1.081125739392267
Ni 2.505521066825845 4.472617918570508 2.11765175970692 -1.3968456376339493 -0.9719271314777134 -0.17262129514557367
Ni 1.9855908449980753 6.38517474381696 6.081593466363372 0.29187445908265214 0.41874271636282717 0.602167272771492
Ni 7.7529188590863205 4.890612010161368 2.5257031149349642 1.5237182657894983 -2.1315795036219742 0.19358581321238272
Ni 3.0358500796155687 8.57187727339223 12.804789537198316 -0.05885075158962123 0.3133048610422862 0.4658841499353202
Ni 3.868117081098794 5.231319302916611 0.320016030308436 0.9854472774513352 -1.593804481083623 -2.694691462263217
Ni 0.613941820512777 0.04835484428658131 5.377584126715193 1.706424970195532 1.54895827130321 0.6984867107305325
Ni 0.6476991871189547 4.287892490244571 5.65238546781946 1.2361162088299549 0.907739798166527 -0.24118181782379106
Ni 0.0034647092756644334 2.8032902128646446 11.759750215855625 1.3989714257277004 3.174817209719216 0.1881044783828373
Ni 4.29175356599188 2.8720994323420395 7.887234865862071 1.437600193843492 1.0893429850957368 2.2385232540640803
Ni 4.9902725305375455 0.7840557817534284 7.682881369860325 -0.22629281652710057 -2.1088062144812008 0.0806202820562289
Ni 4.868891127515278 7.9887056152299225 3.5572016249793044 0.20519742930938212 -0.813915101604882 -2.106276248970495
Ni 5.887879379087542 4.459514509331454 9.352760258118522 -0.7483591700809434 0.9086605102085835 1.1810755750150435
Ni 0.4543059235284084 2.846032507912747 1.704959652566169 0.718440271034324 -1.2329997746881605 -2.193670102305132
Ni 2.419253070056273 3.5686319013945247 6.9401745384287965 0.20382831687599734 0.6901414240896309 -0.3139792614014915
Ni 4.008608011189263 2.367566882153898 5.568123551709902 1.7974584771652848 -0.44434524742227993 0.3033906872523678
Ni 2.524714530323335 7.658527681215527 10.600556418052477 -0.7580707409417525 0.9140976220637548 0.27478639325211385
Ni 8.376025605050499 1.5215343062672249 4.409161978027788 0.7793203943491481 -2.527319588442041 -0.4432625558810624
Ni 0.6476059244197444 8.405338071412311 -0.0071485858944731855 -0.8398511047443535 -0.13344179673263468 1.9278733141461375
Ni 9.073630595143902 7.981589671280172 2.6048318520799842 0.5253663644613533 -1.422730218710195 -0.12032762794817987
Ni 9.123759295969464 1.5479556289535163 8.25197502357683 0.3690098679140742 -0.8725341967996716 0.6536680117539452
Ni 5.739367856864983 5.4193648833344366 4.386353652308904 -0.9465608847987826 -1.213928359879006 -0.33422284214187603
P 1.2318696887898046 2.160495711097162 5.746392403369506 -0.2639628202740486 -0.8215952438579592 -0.41054835347749297
Ni 6.7082740389612905 4.764315662890714 7.247298865825386 1.4403659295140872 -0.792574431145577 -0.6124511711960033
P 5.131360341902961 3.00134288090774 2.79306395789623 0.12246164357204714 1.0127302815370043 0.23813017548166085
Ni 2.45762134451141 1.2355815442183762 7.379771069037749 -0.3082271894090627 -1.552733422074926 -0.15385352761976728
P 7.715100834556524 6.148194225123465 8.71462609343058 -2.475399245423666 0.2070041435008177 3.671593678358019
P 3.1263988342788958 9.187205910242264 1.65465934837406 0.37516457466156033 -0.8242437372243998 0.03562854783688703
P 6.25277901601795 2.6899853595939924 6.721448327851744 -1.886532289305506 -0.22611798151213314 -0.1786011668780924
Ni 6.774285377462374 5.75574478684632 11.443385420221276 0.7986926282281729 -1.1178745168765265 -0.7614306585529208
Ni 0.711699781825064 8.792051853688019 9.37234822283367 0.30635594052827886 0.14034366605879053 -1.1939819986640665
Ni 4.895097945993386 4.361896442067983 11.751095437368905 -0.237538564644249 0.491850749202411 1.025392450385705
Ni 2.465558000214211 5.707873043341649 12.032339365734625 2.1954012260636255 -0.22142700379436706 0.01061222829820753
Ni 5.544719277343066 7.541315120847962 11.986953073163907 -0.9484614442556053 0.14545116248868498 1.3015654395727003
Ni 9.033686181072111 4.02255078472121 8.089322078273007 0.4514319790657322 -0.5968263201745528 1.078204194870098
Ni 3.1783088526593755 0.6834672975201075 9.788630011267028 -0.40497703003730257 0.4027782226137708 -0.5235460234231629
Ni 8.76691755625083 8.382022396609724 7.343830422643058 0.6403874925949552 0.008702412870004367 -0.6187534592649473
Ni 6.786885168125692 2.320189430955041 8.948995256546185 -0.35797109360140933 -0.12877781559806206 -0.531154174787724
Ni 8.204095819056223 1.3969166875823575 10.586756336450323 0.7362179067327191 -1.3959244113712603 -2.059251029260892
Ni 8.339289427831542 3.850938091904248 13.587408140756914 -0.9665933779696256 0.6447696808230509 0.5159514989053565
Ni 2.22266462639078 6.857382442458794 0.7161847850300898 0.19190508307585014 0.14656085061309598 0.25791455719743966
Ni 6.521478178712883 8.842506973960818 1.7282053803443485 2.250796929225111 -1.215829433556461 0.6275085797497579
Ni 8.455009785011743 2.6541538305573766 6.384690710408059 -0.13216370135115948 1.1617107973351863 -0.6467221765637313
Ni 3.9616036107872477 1.6433913490554657 13.030886298893963 0.20591425287074858 0.9504761606927891 1.2921639437531425
Ni 4.807617534134078 7.534432333646238 0.5639427548391174 -0.49664842770137047 0.6206673884582085 0.3284134345489505
Ni 2.899891716706723 2.0481607898982976 1.7928243067462224 0.61231258873561 0.3861758381703994 -0.6100582454837945
Ni 0.6874095118157288 5.582537301872861 3.3662387873301793 0.6914573146875769 0.7468216503904945 1.3795174307681466
Ni 7.982419709303144 5.221713244897945 5.286362015363566 -0.7761414824005343 -0.046598416584829425 -1.3877873840864228
Ni 1.5567409752191315 1.4527344130597508 12.949996761987853 2.269791982270375 -0.1931332990559964 0.48133133772832587
Ni 0.4563474440141229 8.990570835227166 11.56634389548719 0.030428234582870174 -0.34063440209517465 0.6331853184195612
Ni 7.476171125449533 7.254019375930484 13.532057661402563 0.7938108746558392 0.2096796334504518 -0.4860248865492533
Ni 6.27315691579541 2.6693556505286637 0.7299895297672054 -1.8779702586681075 1.353148710966631 -2.299756389842949
Ni 7.24766818611426 9.189668045501419 8.889767846785661 -0.7249549322243902 -1.014820845517446 1.9308529655997522
Ni 6.521776619350357 6.3543700742677816 1.7850844353387554 -3.5528369944413845 0.7196872560675476 -3.263658079913024
P 3.019081446297548 8.47779386242883 6.478028952404767 -0.48710526409762567 1.2927802371809025 -1.152078673562061
Ni 5.0718680660766795 0.9280254105244429 2.5622574298904603 -1.950311074324364 -0.21220342831357 0.2726616335996272
P 2.3636591750569846 3.4866073574390235 13.66768400910222 -0.006953548499697702 -0.29859866518036315 0.7534836357917024
Ni 1.074712714350447 5.749589448698437 10.128472758800593 -0.6227525531220114 -0.24743679759456744 -0.9641649710337911
P 6.104052989587207 5.438390473973348 13.379874386712094 -0.33714155845056776 -0.23621007564081253 1.2860254349555722
P 1.1696914472262654 1.3893530826763982 10.66150265935945 1.326706200504386 0.23391665162094555 -1.2235157464571251
P 4.798104738814623 2.848392054202769 10.316418548130263 -0.43889733693383126 -1.9028616225931485 -0.7340926328596002
Ni 3.4088635713772772 7.431218504430145 8.26117538885393 -1.1784070270439446 0.01518005017454805 0.6012223923597195
