# total energy = -340874.5610851765 ev
CRYSTAL
PRIMVEC
9.19756952402835 0.00000000000000 0.00000000000000

0.00000000000000 9.19756952402835 0.00000000000000

0.00000000000000 0.00000000000000 13.46157270299015

PRIMCOORD
 96 1
Ni 4.298493191869763 0.19930948638000004 1.8164104780460404 -0.15285131160749804 1.3497921357895721 -0.7220480429902403
Ni 4.780730945812567 7.910599382471391 13.468841327252175 2.513676029516677 2.88164665753296 -2.5529380603410936
Ni 0.6471869610761845 7.46771802739798 0.12512649150243355 -1.1893833235497904 0.5887628264401279 -0.14459138559155096
Ni 4.321339953915002 3.6690575394680196 3.644276528607115 -1.0234728647654887 -0.9974283610726113 1.636969189396555
Ni 0.44761074518760474 4.197559066795507 2.653962289395544 -1.2803049875320274 -0.20200720450685855 1.552921883936648
Ni 3.4833678136502537 1.2683539987119579 4.07044314106184 -0.12189394399403523 0.5598361161034489 -1.4522757935777957
Ni 6.993003885110976 6.559430470130072 1.114174225426714 0.07567630778739225 1.019425948389625 -1.4307597738828908
Ni 8.563047353165077 1.6512763997705067 10.37063368326176 1.278258903636276 -0.17628486004008995 -1.6350586026374034
Ni 1.8114428708879755 0.8236432471124625 2.1923785969860687 -0.33682248454825214 1.026717596955032 -0.23572053759890374
Ni 0.33304858173877894 9.146522751967764 4.05167734049787 -0.0901153660308577 -0.6397547441069626 -0.8185225184699065
Ni 1.445563565670742 4.224691896116544 5.858691581786496 -1.4622563018292754 -0.23456045585253152 -0.6983165037012554
Ni 8.11627542629411 4.199554939325224 9.583104691854063 -0.24562956918249954 -0.6468751572018279 -0.34964483312390104
Ni 5.563306126416095 7.70491414107941 9.332907814021688 -0.5835686838336982 0.3893886886807423 -0.3582140628501508
Ni 6.646154350695514 1.6984783252198492 11.549059368277616 -1.3671257419720133 -0.5375217688769646 1.143760897724985
Ni 1.8517466193912915 0.6553608408787626 10.886507867750314 -0.11675996520157957 0.8566468361454538 0.1769859998721726
Ni 8.329751008850469 2.511442274662937 1.4969669407586776 0.35490351041967905 0.2766980084525299 -0.5752519364378866
Ni 5.0089318367563775 4.7772726597702935 1.8116718903625835 1.0902829804115028 -0.08559922332805903 -0.8687608458001683
Ni 4.449995552743023 1.2444495162016616 8.087039112882998 1.0361291200769187 1.9999721889949171 0.2146791435475722
Ni 4.820501235298724 7.06999673739789 2.0148471151031364 -0.3777855572241752 1.4910788824879224 0.20971434334312916
Ni 5.852864001902494 4.701015613024288 5.477554428921579 -0.216860210359291 0.11905056100796917 -0.11131873958135023
Ni 3.257668661545536 2.6338343288239656 1.2932279050224025 0.8484804982845774 -0.7679260364692774 -0.4763541962287086
Ni 6.945903132923509 4.387728008843559 13.453334225477507 0.49990781517893257 0.2283579265862454 0.19918361901513437
Ni 2.9145717353887117 2.2651957528283218 6.108874663264976 0.9301829576613916 0.5995570888421545 -0.35447490752269273
Ni 8.267474267381743 7.300405044964429 7.664346422338292 -0.3075453328506897 -1.280786555154136 1.4549499979758491
P 5.377487634628669 1.7968647236087065 2.98805203597471 -0.20038458130177103 -0.05477375330677019 0.46364497619215633
P 0.1828191644512927 2.7096131019683796 8.639394536089844 -0.2748822954000298 -0.1476574261113844 -0.6602335807866049
P 4.87874944143097 3.3675520215111034 7.057646241393725 -1.986360254638437 0.6243564072740215 0.11886081359466627
P 7.113648401112345 6.099653180323529 9.199073063942592 -0.5343767954900797 0.1481888731348222 0.07355591901027977
P 2.074180634408224 0.2596942878516617 5.479236664339483 0.39876704457184875 0.822508499700848 -0.5076542918935708
P 0.7044372309435719 1.6246770294666293 0.2915923778070133 1.1050295425930583 0.24425068655710194 -0.16278399734017773
P 3.9042669781889927 7.2458542616752535 11.42620927516737 1.1268443244753044 -1.0263614991671937 0.3016127694163386
P 6.08822979930091 0.7995842454385753 9.513494728413248 -0.08055266204308707 0.06984710270012486 -0.4948789945057735
Ni -0.10651429034512853 5.383429264371514 0.7542641426601088 0.1127115061638188 -0.9444471808898895 -0.9267435929625395
Ni 5.763684370344266 2.1338452662067207 5.329288692671395 -1.0073438204141103 0.3018112585803899 -1.004585798052999
Ni 2.928322101434458 6.855619793053917 0.20825412248668076 -1.8908800247512403 -1.9320421008118467 0.6817781397266001
Ni 7.675426734027463 5.100889134231538 7.116366282829079 0.5486340767400422 -0.34338291137458926 0.19761293209390482
Ni 5.8222177011236145 2.714294664722416 1.0463504299364577 -1.186853358039085 -1.1665742960750747 0.46381415478016896
Ni 3.0905396304972115 8.04286962601913 3.682507144998919 -0.3322508060171697 -0.3950392020983003 0.036935439573768644
Ni 4.9082828363292235 5.550070824248985 13.089507817719412 0.4830701747963036 0.34883287874556695 -0.32872119559735646
Ni 1.1261135900848962 5.187567026950675 8.193022703481745 0.4979128962360909 -0.3939945628838698 -1.0933356511948977
Ni 7.28199151130317 8.685696939265425 10.746494190641432 0.5129746756652197 -0.9537077802562091 -0.3092643724243254
Ni 4.614797598768221 0.035946859944205954 11.154070676105077 0.20056944361906748 0.7575369799254696 0.05306756924894086
Ni 7.997304867898309 0.3355291661685699 7.739219234910461 -1.3096101642540479 1.3775286824728923 2.0966256132546084
Ni 9.249259600617247 6.22206362962308 9.999229398189224 -1.5335972154661073 0.7926279100913317 0.528133128573213
Ni 1.8312728302154855 5.868380301246422 4.16257427259604 0.4374107250859757 0.34873132017069614 0.8518003066864298
Ni 2.5476439072756825 4.855102490859992 2.1317610970120944 0.76024126623051 0.34640807135415824 -0.6804272821256604
Ni 6.865093289393126 2.8062519621975768 7.361636022808137 0.3146634319527097 -0.9931454174265412 2.2528214158543074
Ni 1.3267309708138628 4.043223854589746 10.414841799916529 -0.6973808792608635 -0.32126191110583385 -0.11861630168402797
Ni -0.19905287419760784 0.2857647979230103 12.330733187093529 0.3821384348762322 0.19896378969484443 0.12003709329095455
Ni 7.305436115350397 6.082398540389202 11.816918338362594 1.5265040560647516 0.9020185794120337 0.4600626581575367
Ni 6.910602862098377 0.8861959156590288 0.2807576412171214 -0.6019813820129309 -1.4523572975480081 -0.5107707260353656
Ni 7.480990119842136 0.6248055960355707 5.608737519782624 0.5264590833048999 -0.5811245931685799 -0.5178847113723274
Ni 8.181320636110506 5.179050077814646 4.640500206069115 1.7907388990532644 -1.5820486260992754 0.7306560963742255
Ni 7.274725431586688 7.294049524604824 5.495538436098332 1.4658077666259595 0.2330882421823792 -0.5828811708483703
Ni 0.4581419619918715 2.072938962557939 6.365506160552603 1.0406334357051756 -1.8307450071325564 1.6784174292390128
Ni 0.4786497821739446 8.450919786299735 6.294994835324174 -0.7516566098852926 0.28227961630536547 0.28636458500801654
P 3.2191676366174478 6.464364394244568 8.217065149530962 0.6088153742156289 -0.3833815632547139 0.2040671723596808
P 4.200152781327213 5.867690483551819 3.529745636893778 -1.1196046121937555 -0.1979425475191817 2.5827618285707454
P 2.9130265437528022 2.443435447544379 10.172493207934881 0.23781598667535173 -0.19933145744690833 0.6337671590649602
P 0.2171868017533217 8.589600735622648 10.113935043718527 -0.2692387239610073 0.5758620592180598 0.2624111595162126
P 3.1481807970582065 4.39310858686146 0.023473116511938185 -0.05392631770481036 0.6238928373740417 0.1973907887807697
P 1.5532487065828429 7.941834327682997 2.0487705098098417 0.5524105130633389 -1.0126102110193722 0.13303839064662895
P 2.176935878196231 2.840466919849867 3.1800678499304453 -0.812383238341388 0.80312983806392 0.5999440398679281
P 6.124753346837803 8.370652599355774 7.032823841471144 -0.5332696784688301 0.1924133901708364 -0.056868431052269804
Ni 1.0398771806903064 0.5715020031382366 8.376220807786607 -0.03918181240578413 1.72371563895518 0.11848106165774433
Ni 1.7651974926418152 7.44761214099263 11.297342132246339 0.1232957094375683 -0.21486349164423643 0.10168892980107001
Ni 3.098210403261193 9.029557263670942 9.114171221847826 1.195031522974503 -1.287514103685957 0.25773843663089163
Ni 9.180590548511871 6.724692394618338 2.9461727438569216 -0.48710063611193527 0.5301370463771192 -0.7049067553242635
Ni 2.3655044431928056 9.203731632773474 13.212008403197725 0.6076894881413019 1.0941355213883737 0.32323240456864333
Ni 4.648690641496364 3.0925171078884053 11.844460459515762 -0.03794382623362498 0.529384998702443 0.0754132839339927
Ni 3.8542230038378875 4.150853810086279 9.296884614252614 0.4939045464076462 1.102128052675547 -0.9090556887644732
Ni 5.335509928519784 5.952804789496522 7.677323272809157 0.27884230848904235 -0.06080041911682432 0.6554963232119356
Ni 2.2130823253934087 3.0193872346912656 8.097836139438918 -0.3434351047687633 -0.37963443750745585 0.33777070739413445
Ni 5.0203736129175205 7.131795205265024 5.348793977803979 -1.801309218369943 -1.3684732571388432 0.5124103185213176
Ni 6.62576333964306 6.231371569715585 3.3813446963754514 -1.0193616708105928 -0.6656771203996793 0.09316469438014277
Ni 7.465823328130139 1.3311917919056264 3.345846677811201 -3.829442700290424 -2.327686540594314 -1.0387436748816303
Ni 8.620228641263004 0.05356572362128318 1.6643755779125478 1.0969087132581365 -1.0924828162762992 -0.39398299291964406
Ni 2.277676854315999 2.671139669748076 12.36816913350115 -0.6306185861336494 -0.37552067244939846 0.31259240835629387
Ni 1.4003759078896394 7.533995711495401 8.655117780742152 0.3123029021403331 -0.6848575499828721 -1.0492034367623737
Ni 5.344174038763993 5.533460014162954 10.793232558600002 0.32605084785404487 -0.2246966756845743 -2.158060580631638
Ni 3.1266308922788206 5.129557957619224 11.389634221242614 -1.0222618751765233 0.3415751687418892 0.9613971784806667
Ni 8.883325109984446 3.204764243154145 12.23389014082673 0.9519419466050381 0.06713818840939403 1.070862666903362
Ni -0.12363004698360891 2.3057754284094787 4.071210218338238 3.487034237013962 2.387588873376901 0.6130695215062925
Ni 5.47582804517122 8.931603151037368 4.018010557973557 1.4457248798331555 0.6047234635344424 -1.0778704656797629
Ni 2.66035092100449 7.391240238989703 6.281101906954878 -0.42408829694545674 -0.05721141621398534 -0.4040390916040654
Ni 4.138676228384227 0.22637333393157644 6.045619300426842 1.5729410073710524 -1.5707524843601657 0.675079901770818
Ni 3.46062222486689 5.137762189400364 6.48089886450573 0.4562358282122788 -1.059079558225505 -0.18964354073518305
Ni 5.975651551541761 2.9774831091364713 9.585258762575075 -0.5012491596981755 0.11719602429773364 -0.057518663041759004
P 4.582918823708319 1.1791283793074236 13.058721713887762 0.33697726495856156 -0.19607155574871393 1.0206557070316682
P 8.042888021157651 3.1480336359500254 5.785501004632231 -0.6190681622918887 1.8599303704472614 -2.6551424963260017
P 7.452100554792177 8.221845126276095 3.229457877107067 0.14029712909157127 0.23207908419157453 0.6993819688512923
P 0.47939202601333697 5.8187870077891235 12.038267040206685 0.28197211236727565 -1.4047006149019938 0.7088374578372373
P 7.239710285408659 4.240097824629336 2.160071215198586 0.5960274784223412 1.6938530470677926 0.7097939082132356
P 7.430118364257507 8.110407377105357 12.873583842225678 -0.5861433865394099 -0.9467601452937824 1.2002282366840942
P 6.986022930041598 3.7960851685367785 11.456201628771767 -1.344045206003466 0.36601376140022773 -1.3874307720779524
P 0.5162586428836798 6.256425748383553 6.218654090697891 -0.226669483140229 -0.6333506403528317 -0.28014225824738853
