# total energy = -340888.68675005564 ev
CRYSTAL
PRIMVEC
9.06672370640231 0.00000000000000 0.00000000000000

0.00000000000000 9.06672370640231 0.00000000000000

0.00000000000000 0.00000000000000 13.27006662279548

PRIMCOORD
 96 1
Ni 6.655682507773736 1.8781627780737489 11.363941534010488 0.17779024094102283 0.26568340250958117 -0.3812249219230273
Ni 4.7309077024052515 0.6645935779638773 5.968584414550518 -1.218229044136889 -2.2814871592201156 -2.6453867024908186
Ni 2.568938334489096 1.7163670910333768 4.824983122363906 1.052309329381207 0.21264874338110476 -1.1904477602585628
Ni 3.4117356496383144 4.472623940190676 4.905930832865247 0.7896904247295626 0.364826683070662 -1.0504146834616555
Ni 4.061058144627571 2.5126339794024775 2.2797306972513445 -0.555713866404959 0.7950532317033727 1.4000901127131757
Ni 5.033518677505248 4.584897181581594 2.611601803548691 1.019767905110076 0.07613602103263017 -0.49473784094221895
Ni 5.508080070353672 4.8807987810352 11.600599346506447 -0.16768811951001444 -0.7206156814190879 -1.151248464351282
Ni 5.531318083572192 8.237490350201556 12.310056887407459 1.8806706883184063 -0.2210860755151805 0.34003302106574984
Ni 2.061718602345665 6.748815895124741 0.4326876354358567 0.638499788653939 -0.9616159793596923 -2.4398691708378557
Ni 3.025121478100712 1.8714715358750493 0.35348526927496177 -0.8576390248553939 -1.117197802524476 -0.37365302311304033
Ni 7.767797788058689 8.726631034995112 6.970248864937697 0.5791240177987833 -0.5993678556494839 -0.2816293843158763
Ni 8.92760403577611 2.339532087725549 1.07720839347602 0.18920105388112576 0.4396375575339654 0.9891990311842835
Ni 7.1624670371725365 0.6457465791042066 4.814207321072368 -0.8354275217553612 0.34546139117017277 -1.2953050604852854
Ni 0.9551340236070609 7.687176479615821 2.214893648352807 -0.07067062704268474 -0.9157801519725002 1.670644470161813
Ni 7.636874295715569 3.870693210746952 3.7112131649769693 -1.1537293217916065 1.1809717024473274 -0.6307713096614298
Ni 7.8331870004394775 3.965576475800328 12.674705107082202 -0.618932665155289 -0.2061597932226514 -0.5128754310831941
Ni 7.933582833591511 7.035687037627255 8.975435537428195 1.2624607602617548 0.834970893833917 -0.5369849225368881
Ni 7.300870576688999 0.5887159794374852 0.1783524314564228 0.18206752816013802 0.2593284068258308 0.12682377719548482
Ni 1.9805170235766214 6.415368992222877 8.933528233137398 -0.17607891467687095 1.1208305141810568 1.7284122730999008
Ni 0.3475810187061363 4.750890761762885 1.271287057444156 0.0629503755802916 0.6483196029578383 0.2168807791845813
Ni 6.516390429320317 1.760331634964941 6.740636803542835 1.3473259336372667 2.011161887063149 1.0365847195570987
Ni 3.4548025879090773 4.269085056561127 -0.01262087959429521 0.182233364314041 0.8354537470076063 1.342785622564752
Ni 6.014184595463988 5.58919098188425 4.752077595914388 -0.4042260108038909 -0.1596876178030411 -0.5789779791392222
Ni 5.538317594381671 3.0335625980017817 9.044572026774732 -0.21306500498291692 -0.0234353482048048 -0.08379559446041697
P 0.23001462393364555 5.498478409800254 12.414824694798263 1.2953688238436853 1.423044407516504 -0.20003079750677807
P 4.104977354939903 6.367025220673464 12.614685208563298 -1.0638317281985097 0.006280690802389183 0.2186180735906622
P 2.5201684269188993 8.740430588689449 1.436246124434564 1.8375836273209447 1.3836869887648042 -1.2403117349685413
P 6.117218845255345 7.622059268950427 5.620987982413843 0.7958073362605779 0.8032234262189909 0.989658230208889
P 4.652770676296317 1.340968456893866 12.233807553203361 0.8791763847065375 0.10979099008291415 0.106047720990398
P 4.037248927806724 6.432360032711174 8.066024095506531 -0.2038997935438811 -0.716516828759366 0.6797868203281842
P 4.974068169243902 1.0274139461111713 3.5778226170752236 -0.22820700283067794 0.15276595098254334 0.3808857934160537
P 0.23513188287259687 5.897414259045217 3.2175264248467887 0.005196970819907178 -0.17168567070518176 1.0619681926272098
Ni 0.4183177848115762 -0.012106796352199996 5.03751619604916 0.7449881967261814 0.9634610029882311 -0.2694408126694844
Ni 1.6780057824389347 6.762089578835982 4.588802219542272 0.6340263262636178 -0.28352583000764076 -0.06716312811005852
Ni 6.1503486541903705 5.732191350390877 9.369038339706663 -1.2379288365586616 -0.9011420903443513 -0.5603127986295512
Ni 8.864064435060003 2.019540203011856 10.067641198818672 0.47221626280093515 1.604598486375333 -0.6165726495635445
Ni 2.39938153183614 5.497798405511768 6.8639950215084555 -0.16634291833602963 -0.9572481893092997 -0.903213113940767
Ni 0.45789312772906127 8.81283744532741 8.749499125880696 0.7614036619697273 1.243681936992355 1.057799920182133
Ni 1.94197438050525 1.3103319970166223 11.45620814256177 0.320360482337487 0.050610623068016065 -2.9731365353138406
Ni 4.212490566311421 7.228363986088727 1.510479019255205 0.77802455835586 0.020688124476970823 -0.30024262854168937
Ni 5.575128493198365 7.871412308176222 7.719954499665603 0.31840927214838716 0.585146055623147 0.9916012128678731
Ni 5.337117925504512 2.845192343367387 4.7342025498510605 -0.5984774826247306 0.07234878607605605 -0.436391539792842
Ni 0.9633394086881222 7.5384096747428355 6.911449347448527 -0.494636025257032 -0.14594918517102606 -1.0484210500703943
Ni 4.998820325344783 4.781862690422448 6.998792724951174 -0.10911556128244435 -0.2797671342961569 -0.01896060026290283
Ni 1.1305025962456083 7.180636751760876 11.16859262203146 -0.6413783957533148 0.03427254802962485 0.6545367875121437
Ni 4.5842806443600335 0.43395425675720956 10.030246402986265 0.1269003960696911 -0.41171100632702645 0.5320170370086514
Ni 8.039409634327583 7.2261154385748005 4.857600661401605 0.45063879374047555 -0.28080714552489705 -0.7599101081433364
Ni 7.1371346107454805 5.931088071411031 6.822406865897052 0.7830533790290192 0.5518340717345787 1.1922462469198822
Ni 2.626820299525002 5.515016114096227 2.3598823493989656 -0.6303571049421466 -0.9723608765810222 0.6584047551079822
Ni 2.8303047828114725 5.1927938153163 11.090378528769833 -1.2805929510860914 0.3961573748631435 0.9828242380061912
Ni 1.045946329653369 3.8487608057623253 3.644119408513044 0.9824367727597856 0.11281897827596053 -0.9474481724997424
Ni 1.3749777380419994 1.1701604463500965 2.8594343531854323 0.5603161410636608 0.09551005468386778 -1.175472627005969
Ni 1.0785140017099124 3.5500122550209263 7.877589467132826 -0.05415180345205513 0.5593396360830044 0.9847739055333943
Ni 3.6793581374147593 2.7444882416045733 6.857691835090384 -0.5041339374451382 1.977060831614382 -0.7407939561391759
Ni 3.9398088466286416 7.123208122917293 5.784408426367505 0.7665998614586862 -0.4752061986671945 -0.153483031654226
Ni 0.9438368856943513 0.32165744188429085 -0.048607613213344864 1.115032676552357 -1.9715877243149527 1.964190146299301
P 0.2167209934299418 5.658587686205181 7.802162484781605 -0.5263899206298612 0.12493324504099128 -0.12733928337932263
P 8.657179930331102 1.6257451861878447 7.717910860110607 -0.5467687413965293 -0.5136156516833283 0.24758746423981876
P 1.6721124119387254 3.579062038225037 10.103735826451496 2.173863609102166 -1.6222431960402899 0.4351787504316635
P 4.20281637196723 6.22203923964446 3.716680399456395 -0.8395649409625026 0.5744122141454108 -0.6724432354789194
P 7.087040961493698 3.8685625306430294 10.36568707846197 -0.3234779449205461 0.01571946761778583 -0.10200183305579853
P 6.3998467609977086 7.948234659327417 10.227983490026455 -0.6443907002170773 0.8944651925448079 -0.4159983208484707
P 2.523804183181337 8.706004238244379 5.488592960790441 -1.4566181297068912 0.8680604772990341 1.892763100706566
P 7.095228213127066 4.174482859946991 1.6008343624196508 -0.9104654246278061 0.037900374590199244 -1.2685043953526736
Ni 5.606862026661033 3.034079401261031 0.051980434484234096 -0.15140917984433278 -0.15819097865285658 0.9531920169620551
Ni 1.647215188256301 1.4403216168035549 6.992807780540115 -0.9016434554608019 -1.4837435251687736 -0.029072748996240256
Ni 6.8411514107772575 0.870090873944266 9.011516564975249 0.3173039548993503 -0.6996146536873887 0.214996674787991
Ni 2.977738779279026 1.9467978775915755 9.184730884027873 -1.5201526599254271 -0.0805878861563967 -0.46738233174740157
Ni 6.554425335856287 2.0173007222217763 2.306112143627437 0.2777896988548119 0.7326769834589962 -0.1723587855128064
Ni 4.244187832878702 7.059804523058883 10.512507257725115 -0.05634906821369005 0.04581294456905659 -1.17470618115359
Ni 8.79263678459746 7.514473523788138 0.22634894748251513 -1.8615905317585038 -1.3002179244058703 -0.2501961055072594
Ni 7.730796488041219 3.7322624710589496 7.942506303201212 -0.1665645474285325 -0.06989081145386673 0.5004235784730865
Ni 3.3216758816712635 8.720764864666442 12.34838102243413 -1.7031972072868538 -1.113506726826134 0.5429074586689102
Ni 9.094921357638986 4.871042986176391 9.991497945283578 -0.9808802269059428 0.6119477491970235 0.17347592983638513
Ni 8.84108935683303 2.687531082401008 5.2171796757737825 -0.09078770950753395 -1.9025260936306005 2.65239244438469
Ni 3.9764928113114855 3.0551051338610096 11.096562941105512 -0.02188831543265908 -0.6047959686435906 0.09601476223442819
Ni 1.342945002692398 3.2536754528226903 12.44558446211982 -0.5409212814768167 2.7690670489613147 0.2005974686435255
Ni 3.112896431658451 8.539829323586158 7.790072915204712 0.02808647382357098 0.27885413556358424 0.6377685669148694
Ni 5.734340163942492 8.070336229367916 3.4936897664866144 -0.004434638732585911 -0.3709855035832063 -0.49281491288789314
Ni 3.222304588313882 8.325700506503924 3.5288296680984037 0.6930557695229483 0.48220294170000183 -0.6709805348904638
Ni 3.532549744892613 4.442649351154225 8.98654227414013 0.02176541670154961 -0.09042569818242491 -0.4868795212400648
Ni 7.548573472174736 6.630567682718995 11.499282334211612 -0.0020625389559835445 -1.0166558418436555 0.1860709928925763
Ni 8.210453379691362 8.711788808058431 2.8175270488946333 -1.692150719664705 1.0643680603179542 -0.44634402301986353
Ni 4.925198527711394 0.5957227436260422 1.3036815550752319 0.07374360954105365 -1.627817604804274 -0.8040124977791895
Ni 5.998861832163442 5.868582077213422 0.2954935968805138 0.9571191199306031 0.37561965992110796 1.4336273252386729
Ni 8.285317318491717 8.987199611619 11.03850598829937 0.006482779510866254 -0.6260962727832637 0.31921788409261154
Ni 0.11338028837257258 5.22269587056198 5.555049326567959 0.009968681176937671 -0.986337136255456 0.5369532979680043
Ni 7.294170267766453 6.292134081701569 2.5155135708961183 -0.09997811775755039 -0.533025680778824 -0.4127456182391279
P 8.46242670210879 1.8486596586773145 3.196440851869423 0.08776023553511983 -1.080791753091616 1.5157200780753701
P 2.094594543012988 3.3220385506251224 1.763844083783066 0.012897424787958434 0.39300468816677475 -0.8434799597461925
P 4.630928938550155 1.276549383964651 7.90186018019746 1.3816105658517495 -0.9906812721567648 2.957086938050146
P 8.919081315360422 1.7260050184821814 12.284087976966381 -2.396484633204634 0.4555231184159704 -1.655314781783278
P 6.533843872724784 7.913681374748496 1.1687786776358935 0.1850728906453651 -0.3850730920245239 0.33711019099200007
P 1.747157685216011 3.510463205602596 5.811041927666529 0.2645770568192798 -0.05091092791725426 -0.14041668538857108
P 6.774864592735668 3.8591966049096196 5.956534738558551 0.9175177034888972 0.25769549920809814 -0.3123378691433266
P 2.324263724768083 8.602797720699938 10.024539806997293 0.5223782283673069 0.5626064797597343 -0.1359409090054046
