# total energy = -340867.6311742926 ev
CRYSTAL
PRIMVEC
9.24469913439500 0.00000000000000 0.00000000000000

0.00000000000000 9.24469913439500 0.00000000000000

0.00000000000000 0.00000000000000 13.53055165169497

PRIMCOORD
 96 1
Ni 8.401064604382428 1.8910308822069133 6.235135206352584 1.054564701074287 0.8504468779823289 0.07917892162401202
Ni 2.4752403808218624 3.654410962804888 1.1680223996495804 0.020559312208590398 0.3775698416689433 -0.2549253926621287
Ni 6.82803287293915 2.1522860714789713 11.010567595424954 1.0315769819298621 -0.7771508975016551 -1.2877758419877756
Ni 4.129736398459954 5.595159835383533 11.436942350712167 -0.040660710944155784 -0.9262586829063209 -0.3674497225158059
Ni 5.755111614746064 0.9841629046120142 1.7034013989816206 -0.7964652815595509 2.160083781709254 0.5060728063390639
Ni 8.422133273043116 4.440459971235013 7.466469001551023 -0.48240451618784663 -1.8999799301699793 2.7626277210938746
Ni 6.08115365350215 5.902065347536887 1.7163643156977308 -0.09264301754871787 0.7239961678555465 -1.9107132574270838
Ni 6.569930125972178 8.199585637822087 1.1550234286079868 0.6448977217604829 -1.4124794875164641 -0.4430344990306564
Ni 3.3962897264402336 2.7146041232363043 6.860612116127884 1.2112181600366947 3.1332087901498102 0.21782026027971516
Ni 0.8550597608150141 7.896692324966118 3.4343917527171195 0.7303377938028583 1.0125749869060625 -1.7607937747543998
Ni 7.440826980373249 4.913622147361074 12.761529272068607 0.21442974654092747 -0.27368287577528994 1.0754639131207995
Ni 9.166239082827547 1.139298195877917 9.627108582903535 0.031999178614415855 -0.15543964115996456 -0.5952522908192136
Ni 2.4541717121611746 0.645976104987327 4.6192219393311555 0.4345711987546516 -0.16492135539815467 -0.9591191810797676
Ni 8.559435540242996 7.580542113970865 5.089489600249818 -1.0575618360293981 -1.0103882636673889 0.9281659272313627
Ni 5.975801065499871 1.7212704773731264 5.715210570074546 -1.0093037723539584 -0.8411122308449643 -0.33418941780077926
Ni 3.3304674706859143 7.126544198544059 7.488361372878524 -1.8538458548160783 -1.078838228909671 -0.4159206735329998
Ni 3.2805091181442934 5.508084016991688 5.448672035414342 0.25883552634981233 -0.8973581978218867 0.8643130944414599
Ni 1.3243493325962041 5.7246041085677986 1.9642710843119717 0.33317897425839393 -0.7507546668963135 0.27201731514740896
Ni 2.532612981834686 1.44522376995403 8.77115301077074 -1.5520744483346882 1.261249256452157 1.2238271070499567
Ni 4.49322871222457 4.176191010140495 2.395205325068008 0.0501496242711975 -0.8273288039076268 0.1541458620492055
Ni 5.303739193790359 4.3055705704328675 13.278165568968582 -2.0876342083892756 0.3318769676175187 0.21858979145588808
Ni 3.6560195404033786 6.321136790738999 1.5143796641107379 0.361039705224404 0.020387048296784244 2.007874731671445
Ni 6.908323082381039 0.7532756265657089 8.65552031765627 -0.6389402186254673 1.6392872960067704 1.2752437709590358
Ni 3.9783821890203876 7.89446435254522 5.388109088831179 0.72617029268873 0.08055446181529997 -1.3288440727829953
P 6.422283040768213 0.118357105863177 12.018078911432069 1.301319127889849 -1.4428061635244636 -0.775737047873264
P 4.641569149841678 1.1728102291798 8.482343072130519 0.8006330397839954 0.6881511331324794 -0.5195888385476277
P 5.185601187289734 4.1820521492062595 6.108475436459496 -1.0368942803777175 -0.005928706779609144 0.27318176776915537
P 4.845719834367328 6.846318887248424 13.39983227701716 0.8414469884765637 -0.10835528607765212 -1.180991499941669
P 1.2424135667604557 0.6689048070550043 1.8853740509855552 -0.3387168733574876 -1.606764897899033 0.48075155396545594
P 2.0030488980742 1.0057862552032155 11.052823264891504 -0.04307600525386775 -1.2719291047635062 -1.8910350622718657
P 8.393067939884187 9.162809299557201 2.494180919809144 -1.274780201059056 -0.3523717451367609 1.3186033688915935
P 6.716504826110483 4.583114919064352 3.1951990372312524 0.7450349908037169 -1.7259571266911886 0.9030940718643995
Ni 9.086688449293007 3.311423391071603 3.698251173652941 0.7217837335852602 1.3006786660923728 0.603277218006219
Ni 3.320141142079514 8.637155723406838 9.266018966367929 -0.2785129501740816 -0.3792374591793533 1.8374697274508998
Ni 0.17720053846174666 1.9243210427365904 11.835389795267886 -0.32500260909518863 -0.6911117584227001 -0.06910096856271972
Ni 5.889298418436225 4.761103105867429 8.551186495466371 -0.2190507902527066 0.9531863605351004 0.08735117302215924
Ni 0.7114350440771594 4.34024743578883 12.902111558417594 -0.8157457270557177 -1.9211647917777104 4.20290083378384
Ni 8.623029823576418 4.598516587334955 1.3003094177277306 -0.2082292741571704 1.8195023443392022 0.7085633782402443
Ni 0.9786345747045587 6.138424562827712 6.978151990613438 0.4768445056015659 1.009612818953945 0.5977022950216029
Ni 6.423013371976723 2.835589496980233 7.5767166575900875 0.15928678282019665 0.041163875832819434 1.076906559104597
Ni 1.1680029857820127 8.69607218912626 6.317739363914601 -0.05319612440700516 0.26872656021127916 -0.3226335946423798
Ni 5.158357059802659 5.898487649085073 4.04861139271264 0.2958193026630131 0.4361611689495907 0.2516824602447988
Ni 5.029504447344275 7.803339356060624 11.171973565915318 2.5772563253714837 0.6930897080846773 -1.2614063508553115
Ni 2.3485417831936397 2.724052205452725 12.147485281351084 2.6659179896749507 1.2316422322190015 0.4504053375734307
Ni 5.484047800002752 6.302767574140146 6.985282426830193 -1.6611660983577325 -1.9922802196672977 -1.4766951029624245
Ni 3.3390280618135124 0.5136114314389051 6.75597969016539 0.9986290662489317 -2.224031231095492 0.3069028141706843
Ni 3.4903822712530785 3.7628975037145698 9.352533631540068 0.49455734950029673 0.07025333699960803 0.7850187302855061
Ni 7.838080934308479 8.357956573682655 10.111962529654946 -0.8418956459782081 -0.9590459046396709 0.06645813162323394
Ni 7.095260137663074 2.069629219133555 3.644169685427833 0.6367326694511872 -0.11163987036619481 -0.7361839681709902
Ni 1.1866587880449642 3.9941444005458253 5.989461032508661 0.3196395450110624 -1.4401355586708358 -0.2079819340330547
Ni 7.197108984804272 3.9024000092388222 5.410164166858297 -0.4181991851545314 -0.4282028333344625 -1.4743453717833253
Ni 5.9761061405616545 1.9184044354777754 13.088399635840927 -1.026620409255535 0.30428851647628885 0.677753077727607
Ni 6.200964950493157 4.523865644186623 10.739076675595147 -0.6976847836545275 -0.8170551898957605 0.5542977027837228
Ni 1.148080659777721 5.794678925789391 4.338720211540148 -0.6318372890320989 0.26386743234676496 0.49457406167084494
Ni 3.7910198775916264 8.883009244408294 0.5703812780872369 0.8173989463884246 0.43087009575398055 -0.7941209496970905
Ni 1.7775891827179737 0.4759864316222614 13.316701171621153 -0.3769455778213831 0.9058677779547947 -0.8763427719124843
P 8.673912646002229 5.370328759548555 5.70556280236314 0.09522106268853923 2.0024461044567063 -2.171643461522396
P 1.0047046254387133 7.880412410305534 8.24170263680601 0.015698641682179413 0.305242652859442 2.08547551017506
P 4.737344229843749 2.9608644109868028 11.474353797985563 -0.43733282066018875 1.164603288391633 -0.47262275421073435
P 4.494948226209164 6.521145850183479 9.442944937274069 2.4043252122949754 0.16813266324660078 -0.9361461172233618
P 6.260944556579397 7.932423085990056 6.077328197121372 1.5599934460714489 1.4892536563537255 -1.416707666665199
P 2.6549758157060577 4.868748379182498 7.646750798136775 -0.5290137314059534 -0.512327271889208 -0.3500510674233842
P 3.937918142189397 2.0332420844918415 0.5030715502892563 0.2739381863192057 0.2629474916356568 -0.7592686179045957
P 1.4906244859665947 1.8155571608616519 6.385135067411812 -0.6475169045508848 -1.2313149307865698 -0.3907855690282689
Ni 3.961307230259401 2.729506577769445 4.31929062798413 -0.2951826975202787 0.7177627853513251 0.7683225005767478
Ni 1.025717825906349 3.3722997329455064 9.008384001162357 -0.4496550896709675 0.7538962978490887 -0.2895342409852497
Ni 1.2265496635477573 8.34800927772877 10.482037068994993 -0.00334654787472972 -0.8313422959423941 -1.3730868446514546
Ni 8.092864834391209 6.355185016573712 2.942286264194123 0.5807289003920579 0.5481818196939721 0.013408045875789813
Ni 6.505439106851092 8.262773154406466 3.6957754433030803 1.0402667963943761 0.1950695968467608 1.0561438726359489
Ni 0.09205223977843834 0.6605660886996116 4.387267823038496 -1.0424602045012692 1.0496410385204247 -0.06932876830280964
Ni 6.774727939416761 3.336088247581789 1.3556528073447573 -0.6438237719700137 -0.9996729341324139 0.7843191331153202
Ni 7.656690698331584 6.709081332940437 7.577934184427565 0.9423494178205964 0.1507149819907856 0.34841456026122575
Ni 0.3114012092001697 5.862387100107458 9.530636452608785 -1.7849091797453644 0.6473382128811754 -0.7184161026646078
Ni 3.0358574079922853 1.6063496260694832 2.351961397295258 0.906718041770232 -0.24473302551015919 1.0311257533250564
Ni 0.2860707343733672 2.519707382251395 1.5201030571637575 0.04337476744120917 -0.5629620633269401 -0.8438671678822822
Ni 2.5332046425605674 5.791905516136822 13.143685708325135 -0.05145831578029202 -0.4376935464337171 0.9682707656720485
Ni 4.518965953800417 8.548175497053563 2.575243061604333 -1.3136236562888148 -1.3236843829589267 2.8033552807202233
Ni 7.99904963054362 8.996663571970597 7.02902649281029 0.21766368009719286 -0.6138719628029299 -0.7151909108590909
Ni 7.064438311724183 7.045828732955441 12.49087684642376 -0.7975448877769749 2.391964119626461 0.0708914848042392
Ni 0.15164079510366504 6.496508727769818 12.094513156987004 0.3934304628502837 0.2965289271355281 -0.14670354683854736
Ni 1.6542649001670444 7.665057150783503 0.8688972260415682 0.15663648968154315 1.6895693320907739 -0.31810511064440694
Ni 2.479363516505349 6.217078460574587 9.577302767892805 -0.03199712173188683 -0.7653557046389401 0.8055793280456771
Ni 7.84733487784922 0.8641195656800749 0.6705263272318733 1.1166177616512898 1.0133766568717515 -1.0703494747123696
Ni 8.962411962761363 8.843645316739488 12.11318559970787 -0.8912369154154973 0.4768992700989013 1.5658388491086324
Ni 5.234431686572644 8.381678470910968 8.061678767317948 1.764880543229264 -0.13632297493517168 -0.25875607926212857
Ni 3.110231010175361 7.783444764152859 12.148486482235661 -2.628474243006196 0.10702628285358343 0.06651803832689189
Ni 4.08940177741275 0.6827561393298212 11.876887399429402 0.035336984738397206 1.8272089689548403 0.0023124501832605337
Ni 8.782565591491064 4.136235421745809 10.99047424249209 -0.2833674500529055 -0.5247554703502317 -1.4466540765156441
P 1.7720978316058857 4.92105488522996 11.386959961953558 1.7467604365897855 0.9505067568204083 -4.442891459513006
P 8.951188898367297 6.925425775238552 0.7882427754653067 -1.7839961810127918 -1.2460486374523185 -0.5152889256206933
P 2.936079373391672 7.244395619380584 3.4457581099432337 0.30997553955873713 -0.5848136119843927 0.6845063372910405
P 7.638155077153577 6.061517913161957 10.56454600615894 0.43055462139609074 1.4471999217167852 -0.13489164180528382
P 2.017637032846716 4.048170420577881 3.473170490949232 0.8850963497353982 -1.3998561423254987 -0.5552968334721985
P 8.17588222999146 2.9877295058213607 13.05345005186913 -0.9407242235123476 -0.5445475653754943 1.953800061314229
P 5.242206478298681 0.987925497040667 3.8339356185554885 -1.3367964948608526 -0.38820726677813144 -0.17058215322835782
P 7.982871407570298 3.027712828312573 9.324092315552967 -0.12384746817598026 -0.8225869183472673 -1.4601667662900981
