# total energy = -340874.5765119903 ev
CRYSTAL
PRIMVEC
9.22411173747040 0.00000000000000 0.00000000000000

0.00000000000000 9.22411173747040 0.00000000000000

0.00000000000000 0.00000000000000 13.50041991529118

PRIMCOORD
 96 1
Ni 2.483075533526119 3.7033978433060732 11.044828706953272 -0.012147948216443596 -0.8735438690111084 -1.2335582182947917
Ni 3.0469639319135973 1.2267238433218128 8.128183947997506 -0.7975870538688199 -0.22569914880715966 -0.20084172344384765
Ni 2.2309159911143137 8.688430667073275 2.6380359985642405 -0.18612755716212462 -0.3511319591923888 -0.08194542862555565
Ni 3.095335173835077 7.505438337471855 9.533254146831034 -0.3631878619156584 1.7241732953178888 0.942492371156364
Ni 0.9977444936919833 6.10398214561484 0.13491278060025994 2.3721946503090177 -1.3538071704862362 -1.190970465531252
Ni 0.15512742146046665 0.44058600722401564 8.396478306650549 0.6610668753211776 -0.11517565143359519 0.1900016954055502
Ni 3.1501540698570754 7.1757685841778605 0.840557328081809 0.9305498540825071 -0.24273990633953033 1.1964618276631267
Ni 1.7264124240560674 5.471752303406567 9.171132123642275 -1.2118221121692807 -0.7061493694821129 -0.8284274362884442
Ni 7.220330267954114 7.8930078401062636 1.5083341296708612 0.20928034112950408 0.2627106930345024 0.08201664818312326
Ni 5.516618382869969 5.287343861664722 6.176293647124995 -0.36976011581653734 0.28604859642949443 -1.265714234202046
Ni 8.866059386692259 5.91970284143724 8.105571038087037 -1.0141986385524147 -0.5510205746943478 0.9191866065508878
Ni 7.848538397447328 3.102400843421625 12.34765977376287 0.16066386567338137 -0.44617535865248326 0.8647195858512592
Ni 3.795731201741241 6.419880300093279 7.691890842373463 1.1620424696429923 -0.5650549413002268 -0.2116843225853064
Ni 6.641913893589075 4.249105517470203 3.406790073692316 -0.6458523723642683 1.3472657698232926 0.5430036179271422
Ni 1.400533780683837 1.5359990855768306 6.33053555385921 -0.35966802168785805 -0.7470592203225973 0.27608505745887935
Ni 8.891840778982598 5.1526626062689305 1.9440876247585948 0.09065735457725678 0.09352053505766474 0.9317130211526727
Ni 7.5727005602200315 2.8825072438476034 1.7778571400065786 0.15408518401459917 -0.2911301247174599 -1.2367052485642056
Ni 2.895716171847519 5.897814024297714 5.594519696089586 0.3829665872044824 -0.46166831208175974 -0.4905795957994712
Ni 3.6924672709039084 3.6974667394625356 7.0711828381293635 -0.09730417046981306 0.4770543076195267 0.31037688876221387
Ni 7.274042270568298 1.7845335520780445 9.2323433290944 -1.0086296291050694 1.0561621274683939 0.08889846290462108
Ni 0.49094689004604203 3.3450411025262277 0.5583327158914237 -0.790359168661813 0.7994343914902038 0.09102939320469483
Ni 4.340793188084145 1.2414916462044006 11.040414047078439 -3.4573243686543553 -0.1801757104540639 -0.5252666056586953
Ni 1.4340818750523388 6.387660477814154 3.302877687800239 0.7006533793645482 -0.9286153560639555 -0.2530559435535577
Ni 0.969832331591602 2.847206568250062 8.276148846698243 0.6523204965871153 0.2502380144887884 -0.07025050878613062
P 4.550060610943151 4.803004202852158 4.242466001845664 0.05220804946212299 0.6864526623841338 1.2092458668016721
P 8.08843909536759 3.5816949131169027 8.28927106804788 -0.7185605986622722 0.021831751163110785 -0.133204483910848
P 3.961174869762536 4.928885655655828 0.30471484141482325 -0.12815072353702445 0.20440655797697052 0.6980200555067592
P 6.894396279911493 7.211309086680428 11.388401041449413 1.4089812445552186 -0.836056927809244 0.6636726883751409
P 8.312382079991867 0.8737216994022686 12.941299622130048 0.05072298027616426 -0.1025798170464556 0.7152238209795553
P 8.96456367587599 0.03837599444891813 5.830858042059034 -0.2906351873589124 -0.2533410788941443 0.6534332700353198
P 0.7574683744242365 4.349500749558951 11.995109611318183 -0.9211776688389878 1.0885551990871187 2.2283177742859883
P 4.084824087527113 8.343393543634127 11.421153094975462 0.29497495238484683 -0.8655341113327545 -0.7188189945299814
Ni 3.7659742172945023 6.883511828067986 3.565541648652201 0.4442611723489059 -0.2629513482903988 -0.2697251766791226
Ni 2.7308536228653266 3.0946802619021208 13.605182926157111 1.2897612478489207 2.7164828471066955 0.009975366045157015
Ni 1.0917105199036765 7.4932994064328255 7.391803737814477 0.8037535876908479 0.9457291329261066 -0.41084685855451825
Ni 4.937316493778678 7.621200939705757 5.835083607643365 -0.8252122717852564 0.21009332394910266 0.7885421700577323
Ni 1.7431541868492573 8.56659859931986 5.0307964093021065 0.009255457159996964 -0.4309258886925804 0.07692200726903525
Ni 4.649800931098941 -0.14917879180463856 4.02338135687052 -1.3900103598796707 1.4998190905743976 -0.5858991317390877
Ni 5.998550548520537 5.44050101285928 12.749310805367022 1.7024112210504487 1.1726564977134128 0.8182854627584358
Ni 7.302443310590463 7.199170155641399 6.4920008624905865 0.29555884991277487 -0.10736258314707961 0.18504332295901035
Ni 4.638123205646502 4.317732908754683 11.562366866299705 -0.3247023042459505 -3.004558501268548 -1.9330332610805225
Ni 5.2831561149384925 1.2377097603943688 -0.382921472732762 0.17057778235298365 0.8316539136455419 2.034257592540348
Ni 4.66984492589211 2.6751123156701504 3.7032188955384764 -0.2126276603351822 -0.6853810265865099 -0.04129423076309662
Ni 4.1290075827223625 1.1474887235457802 1.8377179355011704 -0.0106065718712527 -0.9458445754580486 -0.476182960758167
Ni 5.139822642738286 3.285591702414874 1.2321061125173096 0.8764926672267872 0.2149979603395717 -0.4938477250277818
Ni 6.551462253947192 0.386952409559552 5.550765122089864 -0.1321593304757853 0.39669602097543294 -1.433461231974454
Ni 2.043426696054053 9.021504117596299 11.308261958723664 0.38727678454406206 0.8519620290752747 -0.6604410688117206
Ni 0.47793904768187884 6.0555278866877735 5.566708999218254 -0.24425788564595355 0.10063323484304604 0.27188361778302206
Ni -0.20105058412833124 3.6130661171167033 10.24482057404439 0.6356299233053117 -0.4364900130439192 -0.3519125461121552
Ni 1.7287645725476728 6.580057000315725 11.368028668278594 0.6819861419723481 -0.1829455598897172 0.7531311375482901
Ni 3.877244677115024 6.305759589747636 12.254682572328825 -0.8934925442188933 1.7924016314676678 -0.7241442633976367
Ni 3.757257431707966 1.5660696898224495 5.903328198290976 0.08268616344632211 -0.604338826501514 -1.777891610776951
Ni 4.923554119074855 2.918287573255197 9.290651706584534 -0.32740736188193936 0.790352998014226 0.0058765133854350405
Ni 5.407967570781274 6.111315314441609 1.884577345509811 0.30734761501758684 -1.589214033499463 -0.48024298976015356
Ni 1.6756982577547137 1.579481548280465 1.633375265895765 1.0769615807122486 0.9151057516132949 1.0944168000742185
Ni 9.061001764031802 8.217696573065094 11.732607072421528 -0.10039695046252387 1.4923281815139913 -0.40291680507416416
P 2.0898885468470536 1.6877357235646933 9.986773281114186 -0.8798937224885363 0.1789552077834015 0.5239530290535944
P 3.704846028847964 5.081535480705136 9.511963974542901 1.8679460416628861 -1.6323504596776208 0.4789011310202785
P 0.15660973621576452 7.288561022434127 1.5734332982179335 0.6657491112881954 2.0741552000662344 0.817793610723682
P 7.4898864850920654 5.903413060118908 4.735002206343093 0.7858836493889626 0.013973174350640452 -0.974523945670612
P 2.8856987865068007 1.294797787902386 3.733663076309233 -0.5111481639794423 -0.1403320960945648 0.3915556144250741
P 5.059766577018125 8.194156639925579 1.814658578582881 -0.8630524825614813 1.7082751360303936 0.6724681751795838
P 0.7990442132329107 7.6653567625658106 9.566100286296749 -0.15267930480600803 0.009265741572642107 0.42292795808876843
P 7.55920568475643 2.2668439063096164 3.95944350399048 -0.04641663959132651 0.03620627471722797 0.5733799162261544
Ni 6.117762968542127 4.849133985622815 8.373959482679743 0.17693843446368884 0.3714698994187925 -0.07946971339155345
Ni 7.878664346363338 4.618448175322605 6.456076636939976 -0.38060425761989286 -0.5592676451944883 -0.7252704065822799
Ni 8.168605850428534 6.691788665722836 -0.40313242394827603 -2.150646033335122 -1.281552229675567 1.0867284302910252
Ni 5.658577462422139 8.057981078429236 12.935440466358017 -1.0395301753386679 -0.9819333507608057 1.8123749892658014
Ni 1.1108136553002033 1.6334241536879432 12.534680483947156 -0.4150907214325367 1.38958535652711 -0.6511164489766851
Ni 1.9959040724118966 3.4099142803358715 5.001122441860955 1.3197583084316433 0.5907652015821374 -0.017778149919027444
Ni 5.034095874068566 9.74462835680958 8.963387601630187 1.4368522599338738 -2.9062796255902916 0.9720104352201389
Ni 8.845388152301329 1.2577445310758057 10.729890782506113 1.2990511577912789 -0.43809309586498096 -0.02150162151720168
Ni 3.486926389184544 4.464294820061014 2.4726015546546773 -1.9991766896768148 0.5662353347615732 -0.7989667078251659
Ni 0.503272148142053 1.7030385249277245 3.9840820288372503 0.3382651305320497 -0.6746353580342317 -0.18329600125060047
Ni 8.786722801687176 7.704448548085115 3.6228243049177586 -0.23463373229262816 0.9345782585156099 0.9188281947702047
Ni 8.864343701910146 5.9637110785095855 10.785418090309111 -0.9766690170380729 -0.16539443837983128 -0.5013900561514139
Ni 5.24841811015659 6.469469124763355 10.186336938431355 0.21926702002857076 0.21284363300073023 -0.4562396848670207
Ni 9.100444065796914 4.149844851124465 4.2171670305988975 -1.5109918193617653 -0.08868326157002147 0.15921684881420967
Ni 8.822687613329405 0.7640285626878819 1.83092714444423 -1.0465865679648167 -1.1046428486776008 -0.8501206049911617
Ni 6.615606726930023 0.2927068927623856 11.462666209824361 1.4371042280436797 -0.07608151364561092 -1.243516357948768
Ni 7.190591731730839 0.06208565124429818 7.701989399897421 -0.7133286608393715 -0.3098647250124857 -0.22992244285988792
Ni 6.117633830977881 2.974951291623552 5.670608471353907 -0.835207435324755 -0.41055786655918963 0.24465203576057865
Ni 1.369383955365599 8.835795076100272 13.767187845324798 -0.20806035267947395 -1.224177291300524 0.050509064493145274
Ni 7.798082506274464 7.886467944888428 9.563170708410734 -0.17588376794692934 0.40174232515008873 -0.34719534314214395
Ni 8.261160587545264 2.130161018668027 6.229728003976051 0.5235851041912144 0.018691148651600067 0.43308921489248636
Ni 6.413976868584936 7.621025681582853 3.8707324542323844 -0.010037072521027875 -0.7147360827098593 -0.2140235122414443
Ni 6.5616364491873505 0.8179268923590477 2.6420457199340475 -0.5584068398560899 -0.16609326421906878 0.20658016858952166
Ni 6.934355131933585 4.587113867769731 10.57923982246908 -1.155513410275223 -0.24008447099455427 0.05384147130048792
P 1.3363431871423455 3.7541396819426227 2.7106684991626615 0.355633189496852 -0.17008593031822966 -0.754310759678688
P 6.020024280632133 2.389570712901015 11.266775593798789 1.3596921685121033 2.1313930986427807 -0.48539110961999626
P 1.5607104809062824 4.578858287769783 6.993716902983487 -0.014370152678742995 0.7375551374869039 -0.7446105016717885
P 5.939110372520916 7.473412221539098 8.31945789610132 -0.10531598503069604 0.19784664537126573 -1.2815031216051864
P 3.076859278036312 1.1510031101155902 13.219786624246714 0.68350952059541 -2.5302696722093008 0.7637677913265297
P 2.9401671662829907 8.460170798158526 6.896365627766229 1.3070133500611492 0.3849843889654596 -0.1300235150797051
P 7.104004994904574 4.9582736756332935 0.9168536458600951 -0.06378289878391595 -1.2890871046000316 0.6946261993338618
P 5.32516271976504 1.6771833397435312 7.327568868536672 1.0568139021197798 1.2635861321154496 -0.7464051316783662
