# total energy = -340897.3756573106 ev
CRYSTAL
PRIMVEC
8.99661766245700 0.00000000000000 0.00000000000000
0.00000000000000 8.99661766245700 0.00000000000000
0.00000000000000 0.00000000000000 13.16745934106122
PRIMCOORD
 96 1
Ni 6.458932527304814 1.7556628941106325 11.300866124693359 0.016120045490314174 0.8383184701499111 0.24645052242189816
Ni 4.383313932280764 0.3648524203442545 6.043600086776519 0.39847496725272663 -0.2200437502935952 -0.06808949657906983
Ni 2.6901955222762517 1.6632226504123604 4.892790575841292 0.4530335192248972 -0.9754256315492751 -1.4788211481664917
Ni 3.4107885888705893 4.092039447611638 4.856303894348084 0.43848750308992224 0.4456865919415228 -0.7277283812044694
Ni 5.100803165875013 4.610037687165451 2.626512966070099 -1.34054233505653 -0.26356378506341704 0.22464088274597438
Ni 7.168054906724913 6.118347582712551 2.569366452398914 0.35344235249312034 0.7163923873663598 -0.2217951857670632
Ni 5.229760679565626 4.6147429180612365 11.414396238880924 0.041724376321979756 -0.24649731649943357 -0.03381180634312241
Ni 5.600115431106558 7.800975936838505 12.511587709485937 -0.043733179221892425 0.1924468145119331 -1.068057336244083
Ni 1.8320531723823632 6.524985692193642 0.37718678278808243 -0.6604932622058947 -0.23064517995852538 -0.1315237537743154
Ni 2.7752225532438795 1.789058337868101 0.3018841955589915 0.03873958266204296 -0.9367966063231672 0.589768384886507
Ni 0.6081371485233241 9.120590779215037 4.54601235983668 -0.13126150125186425 -0.37041677556392977 1.0027060645317827
Ni 8.382319359446287 2.3005430264304247 1.3758284068242141 0.8729828543013158 0.34553955270627584 -0.006999057025652462
Ni 6.945901433475138 0.6755371070356694 4.84837697476438 -0.6144016100541548 -0.009912631128021638 -0.32587241329465166
Ni 0.7334978145807906 7.405034805435978 2.5422020658468396 -0.2918993987833166 0.969229530040892 -0.1274938066793159
Ni 7.631794546790231 3.9671304117472284 3.6526662460896193 0.6822157414846509 -0.45062156734929487 0.14777801084964873
Ni 7.422749145079958 3.7726325403591066 12.6402339402148 0.3638018413505735 -0.08413806540150026 -0.9536306471613705
Ni 7.947458861207874 8.587595178469497 6.950351160437003 0.25645391349151314 0.26238956224965776 -0.05048926699880337
Ni 6.896941841630272 0.6233495288707119 0.4164561180404998 -1.440408095605932 0.21136113491793274 -0.2095899019501229
Ni 1.9509704610639944 6.629328460700947 9.009926087666685 -0.36337940910117417 -1.0783857147532847 1.521862186417366
Ni -0.04190354482466599 4.698582395533178 1.4079967119694738 0.07701842363758349 0.4652280044085601 -0.3119072093638112
Ni 6.2478898765336135 2.01435163058753 6.768758936697073 0.32277269132340536 -0.033192427591568645 1.0724202411984691
Ni 3.2163896802737755 4.433605023499581 0.4270523340042784 0.8191066731081507 -0.04883527633514815 -0.5232254068589505
Ni 5.9322795418203205 5.624406298063768 4.6903936743833805 -0.22140154987307029 0.11023887625361013 0.2225642027226038
Ni 5.370017944700035 2.858486247202761 9.115660632884463 0.025494544726678673 -0.5207481489630514 -0.23803967265038364
P 0.23441856173968792 5.534377147826433 12.369827109585398 -0.41583557001836124 0.22024995276713036 -0.20398129751409388
P 3.937630503320305 6.176969541635951 12.463118433288912 0.39855981365704907 -0.32788404440804175 0.8715921446013764
P 2.2629371657337063 8.449047270639483 1.3951450440256314 1.138230454825059 0.365550448610564 0.11142338348001457
P 6.305837089152647 7.732511678488738 5.6744112968495335 -0.17433673517478362 -0.6499715367389645 0.991111674825964
P 4.7456886841953825 1.0253984638203686 12.615294417143659 0.42930249415654453 0.5149084023528229 0.3523072104474126
P 3.9295785307548594 5.966619630403902 8.21271512838061 1.0249116540945444 0.7955592248055138 -0.053894178915294286
P 4.677485327749972 1.0838674802481127 3.898094868193098 -0.27204713994407986 -0.3622329542015568 -0.3183663347255936
P 0.26726971014496687 5.581114575175585 3.3814164324106266 -1.094731760211476 -0.916303885686454 1.8442762088497722
Ni 1.4199721093793787 1.0980101627876442 2.556751395492469 0.3050418497025456 1.1276382811315095 -0.5152817265318417
Ni 1.8413466781478438 6.413517602712221 4.6873384231172075 0.41505986819460133 -0.010017017916369846 0.4813061409173453
Ni 5.896508991071481 5.39398493343115 9.074828585191133 0.3641589675796761 0.8893499828054297 -0.15004058163158032
Ni 8.707349152568543 2.2199603244542274 10.153388061178227 -0.11398394511833917 0.48011392038145706 0.024214135352358297
Ni 2.496768248357726 5.2369669700962636 6.897259422224193 -1.43172548023027 -1.4276898767083155 -0.08673205138092159
Ni 0.6573468463316756 0.013975345456048295 9.302164110058447 0.17832528750888643 0.33891973339691306 -0.5524436802941195
Ni 1.4683649143285762 1.0040674839849812 11.498088171827645 -0.23577761608908424 0.8419524673580726 0.40826727075280006
Ni 3.9465461511553404 6.698458468737689 1.5769351933481752 0.8686397468412719 1.0446854942873622 0.34329935052184746
Ni 5.505677938347358 7.760500155193879 7.8283571418697155 0.30913453171468047 0.05375636778584936 1.0320456940361646
Ni 5.582284135436487 2.901993888908342 4.600880929984322 -1.016936863419184 0.8330623639572944 0.5716541917842994
Ni 0.8697048025655207 7.043901586721394 6.832094223471913 -1.3353803312396162 0.6619929866798728 0.18063413814772117
Ni 4.941149193644401 4.537057126885121 6.762582758857768 0.8294936727694295 -0.07814173860874929 0.38787765135285457
Ni 8.323652417435929 7.149620837689608 9.137018602572025 -0.8228489137594023 -0.6724879726739257 -0.3741217352193428
Ni 4.606627969174051 0.39226511353633586 10.40840257911241 0.2797635347517311 -0.6865956157199014 -0.023688344755875335
Ni 8.208585680997885 7.162908841576941 4.7380865424995156 0.08158958794803368 -0.3660214747097116 -0.21655476330373027
Ni 7.136053938663136 5.93885606913355 6.802229952040631 0.6797389978093842 0.40003485554067886 0.933660888907663
Ni 2.256297662098736 5.222995223287173 2.5674834603788605 0.15009380346701892 -0.4701161857387968 -0.08454095726687375
Ni 2.2788431852819837 5.307680382793921 11.26282572737663 0.07931210476776662 -0.1957331985726887 0.7401013009475254
Ni 1.0842273449437752 3.2920962156237468 3.781865768788064 -0.13097765146285828 0.33918867078758363 -0.8554528158373526
Ni 3.5209971519171916 2.650070608709897 2.6362302125147226 0.2737893194461672 0.20056044475800297 0.1656813734926308
Ni 1.3349630716465342 3.330313846303091 8.34450837587304 -1.0961942036896153 0.5056382899048066 -1.3359421172803574
Ni 3.599375682632457 2.5771800146034836 7.075757709243166 0.07597686974694656 0.11589864564254879 0.24028630259271522
Ni 4.073785310924165 6.953674510901445 6.070672707831199 0.06487458918619796 -0.7671847874278788 -0.9786377107286695
Ni 0.9381042852700683 7.439167971819554 11.339644244636197 0.16226000651590766 -0.4352512555408117 0.030105046915496536
P 0.23861728307632868 5.432661391597463 8.126969267683396 -0.03865165093392699 -0.29149367870446574 -1.0332507700878593
P 8.562503612564438 1.4539883197368646 8.021247317729966 0.45298158294103924 0.982419546368605 -1.1492789993297368
P 1.9094420751845567 3.239807875344004 10.433789234067913 -1.3463771965707523 -0.31852754289380625 1.4746994126886344
P 3.8602416005181115 6.0450701340583 3.8907734209598464 0.6444971438879545 0.5587253995377732 -0.5282567986352709
P 6.993556515798227 3.8015566652729698 10.179552023876358 0.036725123335175455 0.21314059541585872 1.3356099307519191
P 6.360320604075931 7.689183969130988 9.999276005260814 -0.4464772061636182 -0.3407027934392648 0.5150708960726161
P 2.270467334490442 8.314997671505248 5.849828242411896 0.3477085353331366 0.9951848164540733 -0.582912281196622
P 6.804555577636348 3.9612106375035823 1.598885140460102 0.5897555293707004 0.1690914276154443 -0.6727026597878931
Ni 5.141737775006608 3.064472798999904 0.5057781341508577 -0.061663281337751855 -1.024716764474919 -0.7192694518038387
Ni 1.4813290399898134 1.1231916948666187 6.90868962462017 -0.8118204238593825 0.11667254769409582 0.6886098179364527
Ni 6.838166940211215 0.7068993152626453 8.98203747341459 -0.7353123641993143 -0.6487201808303665 0.7512195223478739
Ni 2.7099520940681163 1.621784230706838 9.290853562673778 0.7478333794844604 -0.8228774530044924 -0.19535036131197325
Ni 6.233738197376691 2.03546669160552 2.530851033683909 0.36461739527333337 -0.6861932380751602 -0.04896177461068342
Ni 4.163148711474523 6.795145115844777 10.389441308297961 0.46060181849045834 0.6132919219297438 -0.7102343381847639
Ni 8.07470701759409 7.088902666913974 0.2261902554733677 -0.4078294118844331 -0.02440156877281604 0.47121096146487235
Ni 7.682121624478614 3.769834592350332 8.022313416890865 0.6253673650370392 -0.5435360933918445 0.15750912209448356
Ni 3.1724052178464412 8.301547728504866 12.511442863945932 0.1773138155252366 0.6547478750816853 -0.18997315616045993
Ni 0.16060581435063923 4.755971817873935 10.19314051478457 -0.5843916939556258 -0.39374130922248324 0.27148792500650015
Ni 8.676139886837223 2.3520576576144934 5.680020687793171 -0.39726269211218035 -0.02786664450328104 0.8284873429921021
Ni 3.7814312321680514 2.7271626231381694 11.438677209559003 0.10141664997628985 -0.4121928310594514 0.1406956500815706
Ni 0.9272453680784561 3.453324595897882 12.616716782353263 0.3311123215373523 -0.7056593172195719 -1.2009324618399706
Ni 2.8544827524635172 8.474777596379342 8.037311677744334 1.6823023661157155 0.21790022158803118 -0.7321835887623455
Ni 5.467307365172358 7.890330340771472 3.6678750277900507 -0.4787687192074722 0.08440494590964175 -0.45429490243582404
Ni 2.9521680241010686 8.384928378489839 3.6769076316511757 0.567101025195978 -0.041400417323657734 -0.1461114217805032
Ni 3.5216089218998174 4.186189048614307 9.483217436416622 0.5705889837445787 1.0380898433477155 -1.1973041210587638
Ni 7.2806115869107115 6.075460707606988 11.321262355981764 -0.11730529618208829 -0.29617899999527697 -0.5049636324352853
Ni 0.29972140873806064 0.017353575286578833 0.6189231931140646 0.9001483589725142 0.47535403709896845 -0.837952345059744
Ni 4.474944480413796 0.37108257788790944 1.7780023947556136 -0.3336679980796705 -0.44624195022436053 -0.891606125829458
Ni 5.976021095578082 5.604748689063211 0.4063007363289076 -0.4448216728380662 0.4132284714128174 -0.17837311002768635
Ni 7.9541793343993685 8.656113416523613 11.219004103724084 -0.5831030570511894 0.4791466713721813 0.23049657019580302
Ni 0.17200992655617986 4.837823042902342 5.644995056964351 -0.33895675728243563 0.09537121511315833 0.3884456080411826
Ni 7.777980582785679 8.87972434179082 2.6160058166184967 0.013663099309389371 -0.42695841940440016 -0.016179695083656007
P 8.41326772327325 1.764110717841307 3.544903863311782 -0.13573367809060496 -0.3920821763525054 0.07188315929354717
P 1.7278003700489732 3.3060139827284893 1.5070818572731521 -0.27946117301996387 -1.0548071561023964 0.8573567177282847
P 4.709450309342182 0.9434302827658714 8.233059179288142 0.08268899165979954 0.5106547692827915 -1.0742549804143626
P 8.466221813239969 1.5668059018270188 12.368404744375791 0.05806168002942258 0.13824821698234255 -0.11895337330847255
P 6.193829202627734 7.7742110000986155 1.4504220606028502 0.07704696288267376 -0.7054333172516948 0.5231981531654408
P 1.7390821282579887 3.2314050347002876 5.914875585476349 -0.044616867378426385 0.5164832030391105 1.4631762425403834
P 7.047203345304096 3.9296954867809495 5.8504472096884355 -0.7526115175993942 0.5600690580498612 0.4443493611873379
P 2.579878999820951 8.544150513085656 10.282323982987098 -0.5125291034873689 -0.679530481343004 0.05851162308264762
