# total energy = -340870.5380018021 ev
CRYSTAL
PRIMVEC
9.23632615281392 0.00000000000000 0.00000000000000

0.00000000000000 9.23632615281392 0.00000000000000

0.00000000000000 0.00000000000000 13.51829694679698

PRIMCOORD
 96 1
Ni 4.959371462538481 3.2550845520945217 4.1795198088521275 1.2970482684286373 -0.440590408365538 1.9295203628312576
Ni 3.7526454444943487 2.1565713318108566 2.5131055303590917 0.2435958265819224 -0.014351897846297864 0.5985605292568401
Ni 3.717242606169334 6.07616337237216 3.8188782160427044 -0.6890870146831874 2.0873691276533473 -0.09111552516059791
Ni 8.572631508346998 2.479445586788038 9.761007717129376 0.1886914612345589 -2.0878013300947593 -0.4105493819187574
Ni 4.341609020970446 0.32063814040413513 12.410418331386563 0.010171541216363128 -0.30431371328726947 -0.15185578046344816
Ni 6.809130510634144 1.2132468643414087 7.843410623991778 -0.7063753694499899 2.872373202650834 -1.1993831150749796
Ni 4.56043606130341 3.015069379458511 6.923261022591021 1.357993954874074 1.2152475929110618 -0.8889859145977915
Ni 0.9894414441865877 1.1893986700927295 4.5363080063708665 1.153242354852859 0.25257694703461014 -0.44573672845316775
Ni 5.708446753693454 0.666955114909811 5.7873582302166975 -1.2784537932559015 -0.09615848690114408 -1.1599837873417507
Ni 3.6011512221601745 8.620355605822956 6.324008178728003 0.5603855608490156 -0.29566092270827793 0.629905876337341
Ni 8.803197919280297 8.611756586130655 13.000221489914251 2.6652579874934483 -0.7774733138380804 0.21752201231300605
Ni 5.816474824929919 5.04377301135507 6.254740350390292 0.8360332736601602 -1.1145025150805 0.7687374766269793
Ni 6.183258574662414 1.06561342635888 10.628652498612995 2.2153141629374686 0.1378700077073174 -0.7032406804757502
Ni 3.9913767677885446 6.395102952388095 0.4065424394934812 0.9488054578585852 0.27957404444874434 -0.9787870918223401
Ni 2.1440561098097097 6.2770165219197125 9.755924966821457 1.251677810713638 -0.44014406485673874 -1.753024415221626
Ni 1.642588251427237 4.21124751298212 12.707117761545257 0.9775506483120777 0.1992000740753666 0.40813383049872937
Ni 0.21690218995286023 5.25556197112355 2.6942104908581928 -1.033644148871536 -0.06963807201311233 0.71212204212578
Ni 7.0282900587103105 8.164884651917022 1.1052963782450245 0.007034538249278207 -0.967487607649121 1.1911725542397291
Ni 8.00600136862276 7.415208999559042 4.134638652580562 -0.2780108137266825 -0.772569962999192 0.28139001461156055
Ni 3.34290354160515 1.4423169904302915 7.622643031524172 -0.6205444897270991 -1.1750766771191312 0.8979089281190341
Ni 6.604499703670748 0.02120752858806837 12.737020367618108 -2.0501845481832497 -0.8510798835806375 -1.0400076291957185
Ni 2.734820769894829 8.669788423645935 8.799329745867691 1.5753241628912484 -1.0070692265964847 0.7160344898063087
Ni 8.614887700712492 2.146291300750136 2.9301589090682962 1.1510535747316564 2.3707453194570007 -2.975958063923036
Ni 7.104813021278208 8.569869846813164 8.92726671822849 -0.11407290528771967 -0.8382014849560726 -0.0335598382333164
P 8.177224383720366 0.5672046392138828 11.339445064933761 0.8675567981897382 0.8388116077362457 -1.063891892012484
P 0.8056108438258347 0.7916307404893511 0.9373374808265375 0.7582386339781844 1.2808333492316715 -0.664654849782752
P 2.759352452282316 2.8054232473684553 11.303675544458601 -0.6382779024511201 -0.07549915877957965 0.6696723576020015
P 6.522194800901584 9.004836156554859 3.6046000663632944 -0.27420686659956 -2.8678156651871385 0.5230330883424863
P 8.85981659888696 0.9365911856695687 8.133458975653774 0.9175976647972132 -1.3269383711198501 1.2281612156489363
P 8.63087578136488 4.055402981007695 13.155939484219733 1.1450335937898215 1.5330706535386758 2.02246059990542
P 7.370542126055319 4.1275479249567395 10.135100171784016 -0.13930674015384395 1.2449191518335656 -2.9703689998710323
P 3.022523094701998 7.6737245335738695 2.1215619609819663 0.9064730156389614 -0.8039243089407574 -0.7122737372122959
Ni 3.575677434500276 4.527314595549821 5.418363303991897 0.8407005972288425 0.30480376554981053 -0.05498278399378272
Ni 1.5151638951705446 7.1466351063122975 7.313303688960629 -0.3415178331413925 -0.30688944443424565 -0.5639758493034351
Ni 5.691793657554658 7.041498005176465 5.1751957732237885 -0.15178121847177087 1.5699598132555415 -0.3743695895640907
Ni 6.283943766569794 6.300402899858386 9.36273178958499 0.1764614948272703 -2.2469616146394205 0.3447185994668773
Ni 7.938095898399566 1.1991522305600437 4.648766743285524 -2.9738453884554072 -1.5642771610484671 0.9351796395450346
Ni 7.03074692147954 3.4807557101417643 1.373215415964182 0.3329005237860267 -0.34578380750659804 -0.029386937802549393
Ni 6.086175549973078 1.6021331426707632 2.8837500644432326 0.24010992491585098 0.888608733764031 -1.235340249895879
Ni 2.1921773693122732 2.8937871801248902 6.080015844030226 -0.7495984418046832 -0.937837645993172 -0.7796242987428121
Ni 5.398318628872422 7.0091062091926855 2.3501554926389234 0.062348480330234546 0.2687319595279178 1.4854106284585515
Ni 1.3337162669694196 5.575508310695297 4.979640580384618 0.10660410771450028 0.021589039024685397 0.5889713429065083
Ni 4.753410624602268 7.080955590703328 7.808235922923905 -0.583590281100253 -0.47477476755673076 -0.2094289508922264
Ni 1.8078630724519724 6.083737159856249 0.9893934152903472 -1.0742524093112016 -0.03325747650154918 0.44043845616870597
Ni 1.2768297339029535 7.406785470064544 3.3594319473402434 -0.46204986379089463 -0.16173138770594728 0.3492311426252502
Ni 7.897234391290287 3.48889291352406 7.688815766952226 -1.9371855926859995 0.08261777210223191 1.1181820208146163
Ni 4.053740442291675 8.64375122008783 3.8428058426967047 1.2002423777514812 0.062443868257518256 -0.1877697207512379
Ni 4.597547619975444 9.209587035758856 1.3714586667209216 0.1744310946608028 -0.45014051394781834 0.40026805459740744
Ni 7.587364883602858 2.937678202227804 11.880650369526958 -1.1914029250829805 -2.8361324751512447 0.20705299446088213
Ni 2.101439700722411 6.639219053856954 12.057415180344629 0.24013949260220577 0.7702336015565315 1.2837176127580021
Ni 7.620421695073046 4.15150695511982 4.468918846782257 -0.2435788573010579 -0.7957718550369521 1.6726828407480805
Ni -0.19044196265479033 2.0807318573817684 6.356816533023407 0.4358868322422816 1.447013516737592 0.1596989306569508
Ni 3.081284601987086 1.670343411658562 0.3166378875268683 -0.9718163169314618 1.3009221495617467 -0.5525730067831321
Ni 7.413638824105024 7.487732632882292 10.972504297655863 1.097493125006697 0.8201153168783231 1.0030814455933306
Ni 2.5850260315814744 4.086926562328664 3.3389383867674436 -1.7976253417604526 -0.8993032373633996 -0.6166302422743574
Ni 4.7589893656271345 4.456268774418589 2.2815776178683604 0.717242651181797 0.8335611579705837 -0.40287849563706096
P 7.405473911744128 6.609367247578205 6.596563852199615 -0.453173130126555 0.04719439829761549 0.3982862482806883
P 0.41569656239040836 6.722835514946533 10.828533986644297 -2.7921879512494945 -0.6462969161008547 0.07021836999661456
P 0.4030224755786199 3.53331964254658 4.373966642547285 1.9704466687319742 -0.2556463299885533 -0.5455765208606411
P 6.7055728212785315 5.217462125548104 3.017851360909983 -0.7357805620849844 1.423350625903013 -2.180199835732839
P 0.4491025069909596 8.424037492439657 5.227552811921722 -0.1731853951791598 -1.1592453665138291 -0.8418977028607372
P 3.0681505461305325 3.805264794856365 1.1587303725778904 -1.7779923980208736 0.39385700886474106 -0.3036807076889608
P 3.185692033353109 0.9754114646886235 4.999309337027749 -0.5844102058983871 1.796678404466151 0.07771030749828552
P 2.7557041034332728 8.665013243000478 11.152743814390014 -0.21583716841141537 -0.1396317275934305 -0.451683432954906
Ni 8.250967212102031 6.282308936832374 12.800164511685146 0.6638925176954308 -1.1799049517457099 0.3283255028208345
Ni 3.7782208317424484 5.011778377397895 11.62611384483914 -0.13948388916165655 0.38460180881506023 -1.4425557380765544
Ni 1.5113954740809006 1.4327296838345793 9.50785109957585 0.3444067246534133 1.040000430106867 -0.31838433244772263
Ni 3.058720257080222 3.4332994661256087 9.2849074286555 0.37325938721904744 0.1291259429661002 -0.1469619427062566
Ni 1.3371429439896598 0.25196328420847086 6.81046423613744 0.0124474817347334 0.4269630473900905 0.8199690211084458
Ni 0.5556638496268476 8.503580733674989 9.445977873993945 -1.0395579432528097 0.2534549787641893 0.5866010429021188
Ni 5.087313053062379 8.059248789166386 10.473638312363962 -1.2940107671538938 0.4194677674543099 -0.27877648824811346
Ni 2.3082410443428327 8.648387855840284 0.04634880850476281 -0.20056198741989975 -0.6808800533923628 -0.0014375037774749437
Ni 7.759807093758878 8.7778534401872 6.35105860727026 0.8553270888927657 -1.1096171619637405 0.5990973755969167
Ni 6.291074210396277 5.593066566801702 0.6878486084070756 0.7740686590319056 0.9595066463261732 -0.8555129796513266
Ni 8.493014376502064 6.684042944906079 8.739835797914935 0.9920159318077882 -0.9864479508017076 -0.15976526511851194
Ni 4.880373164548955 2.8967982224661255 11.492161253224209 0.6312881013968482 -0.9052864515300278 -1.9675706327357598
Ni 9.012844051370353 5.234309184537101 6.9574345058988 1.1931790431467968 0.5129494788542391 -1.0211488446180026
Ni 2.6588242779203384 4.911970636479526 7.453731868874454 0.6591161793527099 1.2320340683407813 1.1703666732379714
Ni 7.997042132208656 1.329393666307769 0.4159699576459316 0.718012439468286 1.973335046023363 0.9460039838540482
Ni 4.782172544389406 3.819008448242126 13.380329563823022 0.7334336591193628 -0.010282098652298422 2.739184145358953
Ni 5.693308415051476 2.8861210293788004 9.024139154680466 -0.08739205356242369 1.3836674483807783 0.9890172541907805
Ni 0.6560553263610633 4.2966188760497195 10.658217055146922 -0.4411881898505369 0.5733102393304836 -1.0084352537060761
Ni 1.2552906212043011 1.3744299928594965 12.0618218315747 -0.5832899762510149 -0.5600371763706613 0.15705223706272306
Ni 0.8666297092342294 3.37109280916788 1.2091209974278205 -0.35988065191929636 -1.2363005569266192 0.6609154373449779
Ni 4.051689977875251 1.1292701865300252 10.16531311841719 -2.2267216334434616 -0.16521548959980578 -1.4598019267515117
Ni 2.1391793295760526 0.4653076413090494 2.6315798865278794 0.10414253354788516 -0.5962059129817345 -0.6603330824789466
Ni 6.356993870486449 4.957237871186257 11.687892859893802 -1.0437629824730927 1.9343689491728104 1.4217274884772935
Ni 8.853933059097491 9.003598488844045 2.4116103126439636 -0.13504025156800614 0.05416697296070671 0.4407508452028022
P 1.1733182261783413 3.5639195912475383 7.9563422608078795 -1.6569230068106626 -1.11051576251861 0.7904653552223742
P 3.2775657700655847 6.525935513012628 6.130195880642793 0.37634805344670025 0.34741542957275 -1.23317512392376
P 5.755441181399604 1.615368798115518 0.5825803514392028 -0.26071757386387356 1.187077558234749 -0.21947759337748007
P 5.011251906804489 9.339403600501377 8.226897346024549 -0.5647955169912531 -0.791350843151121 0.28287122714277735
P 5.590526577096673 7.112035828366691 12.382949497267441 0.4500710941624636 -0.3866545775790309 0.5834290729320404
P 4.473245141974388 5.175529204599612 9.204527376266437 -0.8604528401551053 -0.15673779114609782 -0.1289102274108683
P 9.030550088695959 7.074508635015651 1.2098155691580685 0.12426810065316664 -0.5805543224874066 0.9056942284914079
P 6.53389722619712 2.6761793348503415 5.877174113451789 0.29239047948712227 0.8802513629382712 0.724968559071145
