# total energy = -340887.2772240453 ev
CRYSTAL
PRIMVEC
9.10174321686208 0.00000000000000 0.00000000000000
0.00000000000000 9.10174321686208 0.00000000000000
0.00000000000000 0.00000000000000 13.32132121618017
PRIMCOORD
 96 1
Ni 6.480058889880005 2.120433114840124 11.91075323076517 -0.5557130950740107 0.008209275283669734 -1.6149788011683928
Ni 4.492383801451257 0.8845465423125598 6.059722185113097 -0.13747482915142775 -0.8159475586538787 0.5426973995406331
Ni 2.549907969786452 1.2469206158169177 4.722781688285686 0.8618970288007994 1.5791911020458222 -0.49099431473938676
Ni 3.496634891163498 3.836739729564283 4.6305182275747665 -2.469278734348225 1.4320725791570434 0.3183473085622001
Ni 5.259997518265745 4.472450983828816 2.6951563184002354 -0.7463850770737082 0.5979956578923056 0.7013874293170952
Ni 7.514553920998234 6.646065584225067 2.6152948929826207 0.20961844119521317 -2.165146540944142 0.26776779584243565
Ni 5.194337542773379 4.950520045755148 11.314930366103534 -1.0298147478231168 -0.6725422229506288 0.054301955876674225
Ni 5.429808741271163 7.886787912918295 12.342270516887059 1.172030948314272 0.010742840338800852 1.038398889947702
Ni 1.936932870051989 6.796335364565929 0.39343832306846194 -1.3255939412768138 -0.7511791560282418 -0.6156928180617526
Ni 2.780846500167353 1.428746139855039 0.37228678203065896 -0.6353087925204671 0.31892812076633464 0.33590202961651183
Ni 0.4325639865906461 9.15917520622726 4.594377025650024 -0.4576512205025667 1.0686402053307467 0.8227280719108216
Ni 8.48075857283739 2.4231843991210487 1.4481337630594042 0.26335861103114644 0.22907140771350223 0.26291638128740524
Ni 6.682508964024268 0.6057018967380738 4.884462324084654 0.7484627855383431 0.26224712313452253 -0.020104226949042795
Ni 0.7542896749343567 7.622527900658055 2.9519246858271284 -0.12226623973178942 -1.0724593219665208 -1.119545476821046
Ni 7.5364800203829185 3.896356147567471 4.188183519651842 0.985860967949986 -0.5266028079716156 -0.5693003468401422
Ni 7.985678352857935 4.005549760816975 12.499888134518603 -0.8292170220692752 -0.8075850456217961 0.8312062845851621
Ni 7.932005373168652 9.032287804184138 7.066028207346185 0.7668538864510213 -0.04597286718568856 -0.5183012300844558
Ni 6.791511440666434 0.8375797270178952 0.47125913765915833 0.11782440191035191 -0.506014956517935 -0.039983482371473075
Ni 2.13252022981848 6.571531409106272 9.255853922567699 -1.145812895158007 0.3714313328713732 -0.3908333915470688
Ni 9.59596786271169 4.832133671866984 1.335781844917212 -1.7190920241402394 0.9732707899898012 -0.8492443730337955
Ni 6.40803679588623 1.9708823722125834 7.306891278519555 0.4395015461767334 0.6054330880069573 -0.7782829542235694
Ni 3.1289244656171142 4.420252486539002 0.48219852281916326 0.6044606967913589 -0.12039910461606362 -0.452893136992291
Ni 6.3515422758029025 5.7752927099070455 4.639296858897526 -0.6906399609926042 0.2581945503317037 0.9458929121974807
Ni 4.911173209873044 2.5500626994209643 9.732517675342933 0.5665634075249533 1.1919564835936052 -0.08343898245194661
P 0.21161826007626447 5.698310165865676 12.344961902353248 1.0545896407749515 0.60625841212173 1.246945181124659
P 3.9831048620695153 6.109818179722189 12.831416400295815 0.5331210687061078 1.1498387284879488 -0.41607545394330925
P 2.305125687988322 8.52225342011625 1.695631094856061 0.8903262306757699 0.34050790381963936 -1.1824894246434345
P 6.7413335303684825 7.659544690279271 5.630549508041228 0.17208881968087136 0.1998896439432235 -0.024912961191595806
P 4.644965424566593 0.8170634876559124 12.702998995219664 0.3025044279926726 1.3259173860545037 -0.5864411202854868
P 4.1938557260181915 6.438254583332121 8.163958747917087 0.5496468342752727 -0.5492308297837767 -0.5489228116250546
P 4.785104964718514 1.0946484519706057 3.8337561781411615 -1.2001724437454944 -0.5493079628786153 0.09866505537308169
P 0.1240685921720401 5.4398024553120035 3.4740407238274496 0.5550507788996635 0.11450742172197699 0.9072895980029858
Ni 1.551583266171227 1.24039466593779 2.625472462236234 -1.1585930776418112 0.010294182837156465 -0.6379084349268433
Ni 1.9120760093547817 6.172720327022957 4.8850885240172675 0.9783235219223602 0.2005211068796353 -0.9868127903402939
Ni 5.900769341753145 4.968304851980832 8.810295377201 -1.0629644951022081 0.9922799841024523 0.02226523915610359
Ni 8.57953979185855 2.510106046744018 10.388778845419314 0.6255427142726387 -0.288229149020581 0.9189120127332625
Ni 2.4356537873140818 5.118702056726586 6.871923521548047 -1.335285457532965 0.013305458859654503 0.8990091031617485
Ni 0.6445235620371579 9.014020605568504 8.81104172014394 -0.3079687935413535 0.5169220903487419 1.340510196267014
Ni 1.342889396187241 1.1213074578227185 11.522289920533431 0.2843354703931297 0.18094164208581098 -1.0857015316884076
Ni 3.8364757790112916 6.813655981888076 1.6777134031795604 2.0432860212912036 -0.5174396534151089 -0.47617061946299283
Ni 5.904218902428445 7.981527957955728 7.6501152843172395 -0.9555440621339997 -0.17149335218871756 1.2070933392350436
Ni 5.401110944940774 3.0240450786475352 5.123593333525809 2.0829925958522058 -0.958958487132187 0.3508815337444796
Ni 0.8637117419383462 7.52875264040052 6.9671441386267885 1.3986500378325397 0.8832197015379757 0.14211541324723265
Ni 4.680944615462258 4.838859860096657 6.649018189721286 1.485131406655236 -0.03747048614163224 -0.17519265541717569
Ni 8.24925573437768 7.192998435252487 9.137813414921386 -0.8071433300986873 0.37310049304368004 0.15898005021305522
Ni 4.517404493526183 0.2602252094967572 10.468706713562337 0.4170938679054946 0.12658492171180133 -0.13415090698451734
Ni 8.8791509747332 7.019191546979374 5.130493365050728 -2.800842027380067 -1.064461648473025 -1.2932939435925275
Ni 7.494530085943727 5.978125057265985 7.0870495934561335 -0.7159820393018186 0.883648304434962 -0.18209092519890577
Ni 2.462685964637665 4.9734928456085905 2.6292287516575947 0.08168934675069157 0.4207988275609076 1.5340391880995323
Ni 2.4299287908371343 5.452745134151779 11.398987695139386 -0.6183999325802705 0.015002644056419323 0.6496378075486295
Ni 0.9569754842276701 3.287749884572173 3.9406998404699953 0.23325742077039183 0.6041778754436176 -0.01947636355705678
Ni 3.7286292237563634 2.6029893361673064 2.5758643210630154 -0.8461621345640459 -0.30917001293830626 0.01780257539905966
Ni 1.063438574515196 3.0062693741650577 8.388942007717914 0.5512460604415925 1.4077152333586014 0.2544026873894393
Ni 3.471723420007051 2.847689702276577 7.656629401930198 1.0591199245451373 0.10129709367929006 -2.156734919841679
Ni 4.33657105949758 7.149528509697795 5.802567903774245 -0.19757873642185972 0.48361164912207033 0.31564610758095313
Ni 0.6278109411612105 7.625176507931173 11.239079168742743 1.8283286843815802 -1.6956762163194603 -0.19076402749287147
P 9.515690487629534 5.822903928620737 8.021180612409575 0.15138218326113928 -2.4036991486752024 0.5597810944957972
P 8.467870504456853 1.7377594234621003 8.228873290640834 0.6499728222905452 -0.6117412896131723 -0.4477162207770418
P 2.232739524266283 3.506410163367379 10.447712632682007 -1.0187294365432327 -1.3076144739802578 -0.9055047381884211
P 4.277209490304176 6.047726087566807 3.9122851083533305 -1.3090380938006616 -0.8634093516802679 -0.5662559035868635
P 6.728290732353434 3.7803089216834023 10.419577324081784 0.8619242824943092 -0.18501889747897812 0.7010860960265926
P 6.5011294254032705 7.949062039937808 10.185428608871918 -0.7610722467722376 -0.26034244991264194 0.8924548469829985
P 2.5235766266897763 8.514580650593091 5.774566390799159 -0.5024776327886379 -0.8956085621206317 0.15116209683053322
P 6.770914195789912 3.90148953073599 1.4012160971780552 0.7688079248535985 -0.5800766115200398 -1.2618598934529623
Ni 4.894152950076713 2.769796983914548 0.45345794829570246 2.12800412756589 0.19136206608818657 1.511544863651758
Ni 1.3182145703541654 1.022071151641228 6.841017642315737 0.47804392522630573 -0.07253621949651379 0.3095507933164927
Ni 6.9045186843195 0.9502857029708237 9.437450082677014 -0.8635908715634547 -1.3826040401132704 0.7681584641950577
Ni 2.633816940408039 1.4723798967874488 9.18489127148317 0.007329700892193828 -0.8469794882590188 1.4703059116066293
Ni 6.335377579867992 2.104040875325049 2.767198436229066 0.7223295787864011 0.32007843232069394 -0.4824898768128013
Ni 4.111539560457758 6.987826939889453 10.661546257054756 0.06437810916575364 -0.2123877764102342 -1.552397893112378
Ni 8.49718721932529 7.156090866549749 0.5016234631706754 -0.29144071397934324 -0.2524550767447652 -0.6594175126432128
Ni 7.918207130467456 3.940108227161567 8.576825652034344 0.7471378960793327 -0.23672121094927617 -1.580440143961575
Ni 2.80693209619745 8.5326749160878 12.288985271458376 1.10263790243243 -0.6023670474871239 -0.2163400761897629
Ni 0.08045394890036396 5.1083624764438955 10.276613513012856 1.3399610086317633 -0.5088480550913559 -0.9690323264284214
Ni 8.585064549984953 2.1992724144956384 5.799783680527348 -0.4332565937082862 0.34398172130085275 0.9322141291588075
Ni 3.7822384912432 2.9738489648631714 11.857640918457413 -0.6744407255249223 -0.5618726869175034 -0.8319593607011028
Ni 1.2921289743240683 3.442115449356002 12.462228761827001 -0.4832761201595225 -0.1894586784178866 0.12240327953028596
Ni 3.2299083064942704 8.337442524306367 8.041335512566254 0.7116085928244712 1.2722309522746411 -0.947081533188943
Ni 5.5782490712275 7.854995523897663 3.505065835895765 0.34387527762997555 0.8578316004821742 -0.022913157152747634
Ni 3.206635149115011 8.018726782441076 3.5436044369811244 -0.7671745030152337 1.1141063080833458 2.027287074759786
Ni 3.488989426869959 4.658390495796318 9.09265420582755 0.4985680133215865 -0.9091845010328536 0.9483501154887216
Ni 7.298651470394626 6.038997515831683 11.31770093673562 -0.30179917439553183 1.6572531364565717 -0.2709505644457914
Ni 0.679000055129414 0.04042448227776506 0.3995956523477226 -0.39247478380523376 -0.6410076426774574 0.20474285827046673
Ni 4.646266973845135 0.33159834919990266 1.617327887875415 -0.06436191121583755 -0.9058438666953949 0.5280182002619035
Ni 6.201554649501446 5.655886940779744 0.1977053354106654 -0.3168041324447963 0.4989745047313858 0.7219824798596275
Ni 8.060039594855805 8.899921152730647 11.534039360838825 -1.974832456504496 1.4877397908123604 0.2382638728460477
Ni 0.08647202150856367 4.611762265348939 6.032786486267503 0.4026674080675195 -0.049536930387863075 0.12142651743931344
Ni 7.692192643161323 8.91330071524434 2.547995693538747 0.9626873580470002 1.743662771501068 0.40398535554799453
P 8.40751684525393 1.7745031607871187 3.706284444184176 -0.21199722584003491 -0.7569564248316512 -0.8978209963909183
P 1.6603490974900212 3.1186485975368696 1.4538887952889332 0.9718412566321264 -1.34563286220556 0.8814155584497013
P 4.799786076510751 0.945534593016982 8.239783550222578 -0.9016485976671245 -0.17178671505942028 0.8705894143684748
P 8.757214920994466 1.6057295365072526 12.714002092582115 -1.5821370720480237 1.4483587179115764 -1.0426633216510108
P 6.426267587529037 7.892367281503936 1.0747456701007474 -0.37172829528650175 -1.0483246337018461 0.743739669031061
P 1.7858257293361213 3.0731671867335213 6.208028719444297 0.357134713743043 0.25197865132897895 -1.3711312635869806
P 6.857735724237609 3.961952410857392 6.556128529077753 -0.2028674956246248 0.7265415599852197 -1.193409671100364
P 2.338783934366306 8.621562540243392 10.08666468316285 0.16298325783517736 -0.3445242240678841 1.5659126397693612
