# total energy = -340862.14174495323 ev
CRYSTAL
PRIMVEC
9.38780243492821 0.00000000000000 0.00000000000000
0.00000000000000 9.38780243492821 0.00000000000000
0.00000000000000 0.00000000000000 13.73999779713445
PRIMCOORD
 96 1
Ni 1.0742931958890944 5.289829647628706 11.441392924836896 1.301870629517945 1.7899315726606206 0.41697534004975934
Ni 5.060063177847734 2.3782871469406337 -0.06365117950598365 -0.31373629215275 -0.04715891707398975 0.6638758055248823
Ni 8.701638763563286 1.1883268346400433 2.2092269029753364 -1.4978506539941172 1.1817255498942163 1.3031970616388524
Ni 8.360767649457173 6.961196479658337 12.186704658672076 0.7642208197035484 0.3926074527283561 -0.5394446969312903
Ni 5.1710833319490535 1.5168342126602912 11.324891232770097 -1.2638010763397332 1.7386015549280767 2.525520073339457
Ni 3.1327472944551435 8.878974355561756 9.420115463532525 -0.6271889916268102 0.2851026875764574 -1.2667969257432634
Ni 0.9626158956024979 5.5801380566790355 6.561261066419478 -0.1257380003304738 2.0434071202501 -2.153625170568104
Ni 5.158372247165255 3.236501289307822 6.781746754503803 0.2522964396797139 0.038647280058552794 0.4466055042113663
Ni 0.5504359713713887 2.6764343712010583 4.564688546560487 -0.36493261252090703 0.4372808843763308 -0.03626643853120206
Ni 3.3681933848374435 1.9777753226192596 9.805907213303684 -0.34518911134539265 2.2676404831450108 0.8412209885086867
Ni 8.854275046797968 4.9617916597408 3.4857277351953924 2.997952823026572 -0.949154613667888 0.47887567709898177
Ni 5.9859258260879225 4.410755807780279 3.7488481290002595 0.8516650666601462 1.078810203885213 1.6279885831644996
Ni 8.12355665217727 8.759627220512705 10.429153104443296 -0.8547943563177471 -0.4175654082252744 0.02078248396299001
Ni 7.764614017976025 3.0214267306691265 9.636437661142985 0.1204744379386893 -0.6392060706923444 0.3189823710430377
Ni 0.27210827605893445 2.0750705092509247 13.776134749200244 1.4583022022775338 0.26688102236210814 -1.0422028370748244
Ni 1.2678509108612739 8.254413233271325 4.5496295723347195 -1.6995210439868473 0.11143058256886618 0.026358692499186865
Ni 0.9052395233856503 7.1277267108103155 13.666420438447098 0.6210990766789883 -0.3672034108329547 -1.1823958364883635
Ni 4.0030247632234985 1.0750911591140742 1.8938802854856687 0.4731310613057207 0.39205775087247313 0.27784266357993437
Ni 5.142206451007428 2.24624770271308 4.471146603427021 -2.697610178571909 -0.36889751070592597 -0.9806112895152725
Ni 8.630178809815675 8.34390715590348 3.115709371431426 0.7701760088457188 -0.5319645865041613 -0.35855524823965346
Ni 6.445731011926625 6.0956316878186865 10.982696438490782 -1.2468382232331496 -0.95740425527119 2.110307995837707
Ni 5.201631241761812 7.937171218427263 9.113231950128968 -0.6831642214408493 -0.8753261577225119 1.1065418654725265
Ni 3.1318085141904612 8.555226593483448 3.1780481361273836 -0.7592135962969441 -0.1363923947205264 0.26824036460347994
Ni 4.405949252825106 3.727276836078391 2.1207140057197735 -0.18359682032047092 1.2140959958051218 -1.2627142710334576
P 5.8678178809882535 5.989051964369315 0.7670247825770168 1.6508793717197436 0.351706086528304 0.3626466447002077
P 1.5413551531737908 6.209017568187005 4.017369325667843 -0.902479321098536 -0.9592539068854189 -0.366136403021021
P 5.641168161686026 8.990961453335698 11.084647036455005 1.0360728129176866 -2.578325390065947 -0.11928350295438168
P 6.036516694551647 2.472756604975605 2.437640590394902 1.0749165252577615 -0.9916963436848405 -0.6177502148114135
P 4.643948825527342 3.8759984056093484 9.353448921816383 -0.9177961539612645 -1.7016604589273532 0.44970471196198036
P 1.111525221186391 7.950285978724874 1.851368559979799 0.0044575215507213556 -0.297176588021856 1.0488211137222905
P 2.7261052350053947 6.155450766284238 12.474077501834744 1.261025313366809 -0.14128263293329216 0.2385631492540214
P 3.0890940121474206 1.1392192389945164 4.232908580537556 -0.18591955491637657 0.6256573854736321 -0.8561058760403192
Ni 6.932103679255835 6.438981181823562 6.896380273843882 2.4054811802762894 -0.6676686969084115 -0.9083977434655002
Ni 1.3288246890523838 0.7137189615878312 1.7215943925309236 3.087687922899876 -0.5354011229895359 -0.3553624523339686
Ni 7.538499403424666 8.281881943815925 5.248432254297015 -0.7772470567598871 -0.6125835830088096 1.0555430058271562
Ni 8.658154461703205 0.9016120764429181 8.371753256114484 -1.5921008681289548 -1.0831399416088185 4.452575262459674
Ni 2.6333068058415576 3.3656586781228013 3.480231176745678 0.22498643901085125 -0.5141303865362177 0.6057616749909697
Ni 3.938464844421303 3.8583211732253817 12.063539504286565 -0.4072298306272213 0.22625039332493938 -0.10351004217020882
Ni 6.998221973297404 8.537333441638603 7.982897327559405 1.6743507153688066 0.9209048747935754 -0.8556968135273586
Ni 7.221172898356784 2.229903538304962 5.135324252887043 1.1596454301657253 0.17555698073512993 1.1364191126479333
Ni 1.6415699464286173 5.979420078853676 8.848751263720576 0.9534069611863387 0.6486440761767925 0.06546928534740337
Ni 8.676179042785105 4.811389673536062 7.920009376408608 -0.40573550546988185 -1.2752453136209327 -0.8656585527257608
Ni 3.8211548625466127 5.75669446105782 0.5122764311725859 0.7042806917044903 -0.3784645855690708 -0.7793867288107094
Ni 2.2184410312731924 5.621472551732992 1.9606566644927792 -2.2200187675019896 -0.2427154808594981 1.4297734987102215
Ni 5.521032451214643 1.6229257703720286 9.180434535376245 1.9965256252072132 0.23164688175016232 -2.643202550355306
Ni 7.524999743218536 2.3493163879725403 0.5537470493649228 -1.3413452905737997 1.9480135365394382 -1.7513768523158744
Ni 5.607372072157466 0.6353805648408943 6.564174101580787 -0.3464690064990807 0.3311020371247072 -0.2507414364877682
Ni 1.595231752563903 1.6557267528200252 8.41506200606507 -0.4712472140194465 -0.3014621027710872 -1.3046793026113337
Ni 0.5054806008365513 1.6942261314746427 10.66737704562879 -0.2225518614274296 0.08728046768522386 -1.0469472937383453
Ni 4.970109252885884 7.484435047981618 6.562360378109421 0.4533533644581612 0.6135724292846402 0.30964695257472474
Ni 3.1288325807514186 8.326248699124807 0.7534387545865359 -1.2251797644231093 -0.2286554032220062 -0.18565216018760286
Ni 6.6872979496346545 0.14453179320968 3.6011019521643073 -1.8319192299463163 1.997311097222986 -0.3540661021200483
Ni 1.0802544505698266 3.9581416787690418 9.635970148571174 -0.07464863785382629 -2.3956060872544227 -0.8182445822181715
Ni 8.39941723295414 5.258342957551265 9.99770377649932 1.1978970174477561 0.35319629792058527 2.793783063650756
Ni 0.4552098564430833 9.366971112748866 12.194853271369519 -1.02474658927159 -1.1498582688719745 1.0780381016058789
Ni 8.501622240370093 6.531394711078878 1.5136395434195777 0.17638564728401235 -0.4867123995345811 0.502913691884792
P 0.6181661511274165 3.2245881677490047 2.437530753103934 0.4017132716843662 0.05436031991843541 -1.6794309581051916
P 3.1891304371519578 1.1096476606570267 13.39204594682922 0.26765466730333903 -0.3025777044327692 0.9631265024669478
P 7.062603523849311 6.664523140413463 9.201635948873829 0.4526648230315688 1.4194088676464458 -2.3953170952590943
P 5.0072849513673 8.264843082011943 4.398159254188773 0.26990335412819966 -0.49869682558996686 0.7072940246095173
P 7.20966345231178 2.6803584727074306 7.522305443858898 0.8565074823541121 -0.3440891934129945 -0.6453967728840885
P -0.4338526054215629 7.643210954147321 6.627556789931071 0.0586661463826409 -1.3464103638015328 0.6807831228031823
P 8.748033284243881 0.8591369633673712 4.457736127346036 -0.16876489751396095 -1.3100719343818148 -0.3564937377249344
P 0.9089955832246438 8.929583999630774 9.738456790066532 -0.2715537452474291 1.8988419599107944 -0.035761730980641636
Ni 3.1672850203928022 8.841291715737412 5.741628915370199 1.2805489852220333 1.8523129631113198 0.27107217762532027
Ni 7.381694935814796 4.348580390850376 1.8764443196297258 -0.9041690500961332 0.028219914077641718 -0.9610739908132933
Ni 2.580997969493464 0.4921489822977992 11.35727633556084 0.40987395311828767 0.1995451161196112 1.9350204667138806
Ni 7.598543789153741 5.076313464229383 13.329708120913526 -1.9148316504708314 -0.4926794157512935 -0.922589718695166
Ni 9.167104794398023 7.320890138071329 8.873194285472108 -0.05660515008855412 -0.1809843223982883 -1.1488948765174407
Ni 3.916262691161568 5.660244176664369 10.326198950376126 -0.7212183480000933 0.6411760499345215 -0.029433474769768663
Ni 2.675561305554904 2.1974874557654855 6.1149583571276995 -0.021039080058486346 0.22951749411198538 0.35439006111837035
Ni 1.1677393834355623 8.926251329691153 6.839990559685217 0.3599531570284446 0.053677434918797874 1.705624585781424
Ni 5.133522733559118 8.010086281585131 2.173585171446412 1.516707381689304 -0.01454395925244592 -1.3550001623530727
Ni 7.612841412584851 1.2624341487340576 11.619078681874091 0.5170475601830128 0.06569219999148686 0.8188053398176479
Ni 6.497964745853544 0.5157348976676752 1.2298190447784678 -0.8341260293351184 0.307140126992471 1.157335036864994
Ni 2.51533967778159 2.971953010720374 0.727329397865194 -0.20083606701689283 0.3111811298310641 -0.1522357895106862
Ni 4.228792029076925 6.137491899820867 3.238874525816939 0.8510901679932827 -1.1861205936381185 -1.6615491927287642
Ni 4.7454591355474305 7.115503791764153 12.273308076869275 -0.3218465799647102 -0.887621173039781 -0.527751062643446
Ni 9.210579708455455 1.4382489167037429 6.51978012164423 0.8418048860366146 1.620477619499435 -3.385711175192743
Ni 5.475088545061094 5.419278058325737 8.284779019712735 -0.2376277819239456 0.27801132794731476 0.32318792448395306
Ni 3.2787651768238155 6.5564789197511875 5.160344624501352 -1.023348937593115 -0.1149375672808601 1.4742412421052933
Ni 5.030754457984355 8.996650461739673 13.38571199638341 -0.0970293195418716 2.276884370340782 -0.4254131864044673
Ni 7.99212741512176 4.466134455593883 5.691546865809932 -0.3813524486398271 -0.029211074346317433 -0.2813535049466703
Ni 0.3042436632992714 4.7371415424023455 0.35417738557771855 1.140587899313642 -1.0665339576210213 0.964958413469364
Ni 7.032609494392713 7.9055906503233535 0.3394854744354418 -0.14294870778180543 -1.6294785374464649 -0.5119909715957117
Ni 1.6653304749277242 7.4447152549829125 11.149692304654042 -0.0234101513938242 0.8614964509282712 -0.6230137772031981
Ni 9.136941784493782 3.773643193351046 11.871976697376834 -2.722288398044879 -2.89218432383949 0.6539750014714028
Ni 3.3334772906494954 5.028914448665578 7.1082639183629235 -0.1222911794324539 -0.37744308628309187 0.6111237106338314
P 7.442020955623275 6.364836316518959 3.861860374823234 -1.1425283108694646 0.7154750177584129 0.16894204652177355
P 1.9114598847221076 3.0314998429091666 11.64108932395983 -0.15039410831625713 0.26253354402668977 0.21492931188516531
P 3.8682253050177793 1.1741606404459886 7.817976165781091 -0.7097175464493454 -0.4416797847749748 -0.8429955639106063
P 3.206422769627404 7.260545342657556 7.873459018204075 0.2531330766483963 -0.5411704213731454 -0.4246125448800429
P 6.586435397997196 3.0261769588084184 12.147065600776134 0.2633275006828949 1.6818598792616584 0.9142714286374577
P 8.513178625428331 0.10664825440869384 0.18918581527955433 -0.15751503563175454 0.7553551417828023 -0.27686024506200707
P 1.1911056242235025 3.6747990192826556 7.3877772931496715 0.5553168880768564 -1.045519045932251 0.36803259160246937
P 4.173422769065968 4.50221178116562 5.125390080126175 -0.03378995196625149 -0.7289640533837832 -0.6023966151734786
