# total energy = -381173.87525408296 ev
CRYSTAL
PRIMVEC
9.18109112376193 0.00000000000000 0.00000000000000
0.00000000000000 9.18109112376193 0.00000000000000
0.00000000000000 0.00000000000000 13.43745489853332
PRIMCOORD
 96 1
Ni 1.4141359361534567 6.207409217350474 6.02139112829852 0.7510729694676807 -0.6589490576472264 0.09277722913373698
Ni 9.059579470082944 2.702206308871132 3.5131821948519315 -0.5296081704568427 -0.9271200024653516 1.1433178966502955
Ni 5.848300015673453 6.323311312814264 6.436044095591576 -0.38945579447325185 -0.05932229190940107 -0.6103400383902715
Ni 8.272787496464405 2.1003765988151337 10.065957438443768 0.7903421993809485 -2.081507269555931 1.1318685171627731
Ni 2.415618546679892 8.606648697307662 3.0827809018024563 0.2874447054460727 0.32714536646980436 -0.1837947952638899
Ni 9.235259650429875 3.958537649267964 5.8145080913575455 -0.42164292072875764 0.3143893523557166 1.0352570018846108
Ni 5.39456130687149 7.475795330509025 9.158888579398786 0.1372619418096733 -0.9838956166934991 -2.1796411350158915
Ni 8.487872920294429 5.224463229981627 3.6698896502086886 -0.055811707652981296 -1.0663226129411636 1.8736469487024054
Ni 7.549005351835726 2.3095493999044505 5.645558568978338 -0.8272434432826721 -0.6445408526416964 -0.8489996040128411
Ni 3.461803890318906 0.9274738342642667 5.228822412089216 0.20140402370522087 -0.9551684239621356 0.06384306259789005
Ni 7.1204962816851 1.5185892108755372 8.096577567154528 0.27363505325649 -1.0656811227024228 -0.5188653301180419
Ni 5.355945637232651 5.450520057810321 3.718157401038995 0.9171094123068851 -0.8511912123475213 1.1093286841890444
Ni 1.0764186770010435 3.848392097994272 1.9981497387120308 2.0174826870748546 0.11061888530084818 -0.015231729348089895
Ni 6.54457561103015 9.062517419270874 10.456516468068443 -0.06758427480787715 0.6199724192737129 -0.23959236184948413
Ni 3.458076367286721 5.868369881063492 9.657203322254597 0.3934212068789031 0.8374376102068545 1.4929025659602224
Ni 4.810313386487003 0.5008312799570979 8.469466668632055 -0.7088495420220954 0.40269954685703546 -0.07144170088075438
Ni 4.624965517093546 2.9509771563590017 4.3812415154450655 0.9700749087603229 -1.493699865050537 -0.7625398324566995
Ni 1.6162301159181076 0.369717034463685 10.85595912155012 2.9453398248165468 1.1020326647482632 -0.8042978902300921
Ni 1.250831866760678 -0.3099049795430612 13.150457958630282 0.7939214320917747 0.8446315568521325 0.34302192849074475
Ni 0.1082588370295694 1.4949479010039228 1.3672343316955375 1.1901615964767116 -0.40609494569182963 0.27778352820722485
Ni 3.836686206698618 4.699130371906324 5.523398641744259 -0.23289180990085695 1.1709060906812092 1.4965630455309453
Ni 0.48638850537106426 4.454270669274885 13.261343505855685 0.7571191756617606 0.6809384174341241 -1.8988147062172847
Ni 8.137742825823016 6.324853736137926 6.351240192282011 1.337631589167638 -0.44223180062370293 -1.0444062724840464
Ni 7.315585288854785 6.30459106783243 8.446609423949969 0.2686028901492213 -0.6909870599193777 1.3860369770542194
P 2.428894404572845 1.006440399781065 1.4657713112404263 -0.031222962570023646 0.1836058191815354 -0.6594306252693353
Ni 2.4098436403073693 2.1993763053571214 3.645527624676911 -0.2573219179187633 -0.0026094125983890546 -2.488261446098315
P 7.493165955082654 8.374862868562506 8.549607495714904 0.7178946829434992 1.5034299478541073 -0.13865316573024508
Ni 3.59590290856543 4.727031708100435 0.9499445550063157 -1.3132685869422416 0.9185433165399342 -0.8578873934207742
P 3.331515024925477 8.449569407756808 9.828557372422303 -0.8992055354432709 0.9696576187172461 -1.1555843727224742
P 1.4219215015014681 4.370520755236489 4.2859968752089 0.3523025824617223 0.2646621603339183 -0.6698824167302785
P 5.741276035411936 0.9127749072334105 4.934287497344628 0.31006578527969825 0.9631043909797607 -0.6610195670230099
Ni 0.3168321128627245 8.073098762597372 1.7361324128230875 1.2661806323155032 -0.3542630486222028 -0.3403194419579171
Ni 6.2588233281392265 1.0565875199825243 2.602190255531945 0.3344341868217337 -0.9662442221603228 0.5936774901329259
Ni 1.7454080692748513 6.054351245750596 2.5645386004703954 0.010917932464084424 1.2880288385388463 -0.13842639443141966
Ni 0.13513831777175406 6.75134296622185 10.070606743033665 -0.4241376621261534 0.020295517024242465 -0.11604468430210982
Ni 5.89565608414638 8.115469498542032 13.028432075327903 1.476391969899709 0.2509226992606388 0.24552801060762877
Ni 0.8425129342949725 0.9766385777060124 4.868524259100206 -0.7210692240167389 -1.1093615943095088 0.9951835309024927
Ni 7.26194935399266 8.100687941690264 2.2381287732550232 -1.2497376562681317 -0.5930272581434368 -0.6650037484817386
Ni 7.165667250449506 4.1555455045010135 7.310271273261119 -1.0196645467629923 -0.009210977075306718 0.19981379639996552
Ni 0.18391653727346285 8.35113892886998 6.630269162078184 1.019099932508774 -0.1221276572713961 -0.05986273779390335
Ni 7.197507274773685 6.749873991627886 11.285809549126858 1.055628366452111 1.089129326423034 -0.7238539858507276
Ni 2.002634701769228 7.20777173474901 8.398194775660267 0.6262135150874182 0.026133978082890474 -0.9682072594239647
Ni 5.329650992000689 2.3266354106504985 6.6057859461424036 -1.1696477927940758 0.2544934473310327 0.7013501483212566
Ni 1.3769249734700963 2.6216514145746097 11.244569923619549 0.7107459877138598 1.1954400712668314 -0.24107434571164935
Ni 8.603058890643663 2.4283435391001085 12.361692968510225 -0.8056160948208835 -0.673518213710653 1.461866265479708
Ni 5.41543910828821 5.750218418252693 12.124280048961063 0.6745044888833222 -0.7177473587323574 2.583905198146569
Ni 8.654133301057561 5.692028662149279 1.5604109175657035 0.2922994624352127 1.3762526439739458 0.4394899762125077
Ni 5.981067775694198 5.113032325938215 10.07884401806932 -0.2757238174647187 -0.5614266005190202 -0.7650124623669082
Ni 3.3877675707831005 3.5020721563759545 9.941661071284592 0.18379762347736733 -0.017925731240485257 1.5742563837483663
Ni 5.1197987901616635 6.890142703169061 1.9781542401608116 -0.3845665847017506 -0.5263765508934225 -1.2070915394628308
Ni 3.445865515974392 4.959607110689847 12.114228590301863 -2.7180363076367446 -0.307320104213761 -0.7338139252769169
Ni 1.4794226757639617 2.55069994168613 8.759782871964601 -0.4110931702373694 -0.13814383019399434 0.9804390256034664
Ni 5.5252265970046235 2.8007928663085675 9.080897963877854 -0.14841024511700893 -0.06840728492980477 -0.0025803591326665236
Ni 7.192090430958441 4.357759038451424 12.904874786011314 -0.03602501194435732 1.7306846140738452 0.15476678346265602
Ni 4.278278331826739 2.2413614354708664 1.6174392656307648 -1.3943071874828117 0.9760216132620612 0.6428511236440992
Ni 6.707751145145957 3.103704608675237 3.1581246087268897 0.7268524063574191 1.178883452459731 2.2721286008233514
P 6.819852268847864 6.3088969996109885 0.7180173374564904 -0.904396592725907 0.04153488601899299 -0.9684427724735385
Ni 0.20318397529154827 7.456799652790823 4.123726596686623 0.663976849879121 0.45469393764645566 0.2826783944056809
P 3.8182689377267893 6.531125312404163 7.107674887807156 -0.9321647639781107 -0.3914463425407194 0.3509414404481375
Ni 4.8998749312627705 4.767263249792635 8.017336487010484 -0.25291916086537736 0.08292321915779267 -0.6060398683530208
P 1.5917900511110252 4.962177816229285 10.91191236383422 -0.24401491639721198 0.07659907671197776 -0.6250583184370526
P 3.445287107228019 2.624369017573444 7.9647958563299825 1.2967816450308118 -0.8389015963468907 -0.9871938278287966
P 1.6927361489900157 6.711928541647543 0.41862103491500197 0.42029103468655354 -0.28482963642072884 0.36773228675323116
Ni 7.1535482100492995 8.90765995379339 6.309570891705969 1.68712164188123 0.15314750269167818 0.04346527027248643
Ni 4.5949433488294 2.9812655762683047 12.636743771484117 -0.6575336653569386 0.059571431805729665 0.19330916251222838
Ni 8.15299261832661 3.567184455253426 1.3952513496389234 -0.7017576681723204 -1.105539392349941 0.5204506723272907
Ni 8.452948049322925 4.556088970819041 10.732455082562563 0.38908349873549763 -0.11791284785910015 -0.0025466776812536783
Ni 7.130898458028612 7.09332025169676 4.364351061941839 -1.3180698649856266 0.10516480416481243 0.5057007677116259
Ni 6.377259404777606 2.42218302689667 0.6362229958463108 0.697481923615102 -2.476607406799154 -1.1032269421666805
Ni 5.59761950121343 4.228865698922261 1.6537743522124737 0.5377272000195514 2.4603197253827243 -0.7747903676892786
Ni 0.5397168736775777 8.909211558208264 8.91198883829998 -1.7202341081644825 0.7768349089231331 0.3191132401939472
Ni 8.765077607266722 9.098020698988751 11.22880782622631 -1.4843312793514436 -1.031670827195249 0.37081041145792265
Ni 4.628895024132401 7.620048635636329 11.204956269365935 -1.0508142328929193 0.643826085962859 1.0654132137530168
Ni 2.525488665217216 4.6279034662814755 7.9262444543296295 0.23694515403462418 0.22385155407545962 -1.52037428901793
Ni 0.392118897021642 5.226831951514394 8.17935244930618 -1.1610289407768133 0.4468695565060304 -0.2870379569259573
Ni 0.14578746546887464 1.6259804347855464 7.281944852543878 -0.7311556617184634 -0.14150374780516276 -1.3247837866706924
Ni 1.896629822632273 7.307882353327684 11.436335375770387 1.113735040786856 -1.2568621831280549 0.5543910338284774
Ni 3.2488392985589183 4.322889254027195 3.0927515668589898 0.697943693742869 0.257427333148376 0.9256544736634188
Ni 3.4461042243459117 6.716601717074592 4.306005227287816 -0.25161329756976025 0.4695610845662752 0.17456890579024775
Ni 8.081288295958723 0.0056068924033378315 0.018958953353352907 -1.0319071115757712 0.07153760302867035 0.26353653136990746
Ni 5.1243709735853775 8.425946460067617 3.6907178737328614 -0.5221774252104103 0.04143898387107702 0.4434972975996878
Ni 3.5010163308865425 0.6034786340377233 12.696540218549679 -0.5995804858809223 0.026149147591542066 0.6356409790489054
Ni 3.7784230018655056 7.166888335580739 0.018761559892288945 -1.208947618834963 -0.4523028117064598 -0.3323099413898793
Ni 4.646421727256639 9.20202410024143 1.1847417816690988 -0.48539162384062856 -0.6731744572179891 1.3823358740535485
Ni 6.395052359547 2.997057053153422 11.208382652606357 0.19699149645982203 0.15529771626546157 -0.31600374803068804
Ni 2.20654673759391 2.9431824099197783 5.85609659833092 0.32123542874327254 -0.4472055996892105 1.4530478958571298
Ni 5.019734077039051 8.536826498638291 6.275170261042687 -2.6797708363976427 -0.8728553275845161 0.5686092343103885
Ni 4.56128546844519 1.2648697552242503 10.784376907695355 -0.3311817413227071 0.13446663845272325 -0.2886361546510126
P 6.63129101753011 4.587754554410186 5.326567063462486 0.47704248054498494 -0.34458413077154204 -2.145633667722195
Ni 2.2729719325147375 0.3995895509410721 7.380441435287434 0.8485589169309967 0.2377969605119582 -0.41035706340229333
P 2.0348419697418976 8.18939564498329 5.240822098303663 0.22645248203341647 1.115026248794454 0.44573004358494844
Ni 2.252938791489548 2.972231382515424 -0.02241747041301782 0.5401684624711922 -1.6270339325607142 0.5927737473717339
P 8.510926640328458 3.5043307048141745 8.692353265665151 1.19769287185675 -0.2812367768631479 -0.23618873548457386
P 8.676691242166127 0.18295711324177985 3.233965012685908 -0.06356975433184535 1.7364726815105318 0.30067637364499833
P 6.606511252348174 1.1643092631761756 12.273355263193054 0.15222447665677652 -0.8585725924132568 -0.07139053592784478
Ni 8.902215566704509 6.778353736568371 13.060937728764971 -0.6661067517379302 1.3260893928559936 -2.28169207614207
