# total energy = -340889.6162641253 ev
CRYSTAL
PRIMVEC
9.04156646504839 0.00000000000000 0.00000000000000

0.00000000000000 9.04156646504839 0.00000000000000

0.00000000000000 0.00000000000000 13.23324645714109

PRIMCOORD
 96 1
Ni 6.366817777293177 2.141187548990106 11.3003719003004 0.22678441145153846 0.4650189737215475 1.0794020718329411
Ni 4.511126723670409 0.45421392958489615 6.004651512741445 0.5359757645460833 -1.0485930568718844 -0.6055747557911442
Ni 2.775254505764894 1.6300678098491244 4.915197935241364 0.11261766089843185 0.11758117555129427 -1.2150290491423525
Ni 3.479610598433579 4.4369135480314705 4.88800361648293 -1.5541878951332655 -0.06513529904675235 -0.32735671114966197
Ni 4.737039297563502 4.702021311543813 2.4666767001184273 0.4072303448478535 -0.17786865958744205 -0.6200135569242935
Ni 7.336290675040437 6.132071593190624 2.6590088970228494 0.15733377285888386 -0.3358549784286603 0.7283397895362231
Ni 4.938051398051425 4.888114827747593 11.194664237002701 0.5554685831633724 -1.5619243445455746 0.48667640409032314
Ni 5.866195296548493 8.013160406361367 12.432899499333606 -0.7589788545783187 -0.23822453496768006 0.2586511782531481
Ni 2.0983214834803343 6.505045241860438 0.2718292638498165 -1.9456982581427005 0.018545624212671283 -0.25772198157065934
Ni 2.709865898769182 1.8291630982956912 0.4633585696727643 0.1768366187785019 -1.964611550107436 -0.6875708351489771
Ni 0.5238493602401606 -0.25059966633516895 4.408695723975481 0.29869919531396943 -1.2414905857679908 0.7456883081169996
Ni 8.737652067030528 2.213031834276047 1.2462976269407062 0.4594191110362668 -0.25517736077193476 1.188417102981779
Ni 6.855008104467742 0.5772904416158317 4.839543533944916 -0.5344546999158667 0.073312435540906 -0.33411408447815366
Ni 1.0035053530475724 7.123307540860267 2.491449687439715 -1.9181121209943162 1.3845017713566157 -1.3932121546464198
Ni 7.75526781270281 3.511545410367878 3.9530089232512595 -0.6549893016685301 1.1529531057472142 0.6073081935424831
Ni 7.419961328958898 3.7401342878658843 13.112545895644635 0.49764498728668494 -0.3786399348046705 -2.001050252550444
Ni 7.893694191727193 8.746223471819235 7.03888282031799 -0.8402763652072303 -0.3927938577075493 -0.2504781555240525
Ni 7.063814035048351 0.7997391914851338 0.15820118853217177 -0.5493437012125572 0.037694686337296376 0.551550736166205
Ni 1.8469569006418693 6.506292978000567 9.362534600826024 0.89674498971792 -0.032168100092112344 -0.7805501529911912
Ni 8.920960780834601 4.849317467042588 1.3988071495293215 0.9338457512249594 0.010640510432981675 0.7410505522346721
Ni 6.213038818805474 1.9157360949748863 6.946766439381456 -0.07200374403181148 -0.29898355932360765 0.2705610423168566
Ni 3.2012026909927664 4.1633428785252145 0.25442786547814245 0.7243756626821525 1.538629378573376 1.1062559588009915
Ni 5.714287942270982 5.4208710348836995 4.692416455734695 1.6148276203025091 0.021492879766453307 0.4833540245853095
Ni 5.372769902525128 3.1389786321785396 9.32568027270445 -0.3577047273139001 -1.4106887141646287 -1.492073642301024
P 0.117686834399555 5.449831171527403 12.495069308750438 0.3954742327531899 0.4302244917501816 0.07066085685067186
P 4.007945479681839 6.131610473312751 12.554076378299028 -0.11069139040999647 0.2470878988955809 1.2395314051590909
P 2.3611507723020075 8.634334089688162 1.1451894083856393 -0.5813176830159924 0.15647219618953698 0.5010427001143243
P 6.170434958716454 7.673070934080296 5.935428377506397 -0.908291814015255 0.43713535993740205 0.4021197630941655
P 4.577663609577688 1.3752312655772587 12.498866766568218 1.0399451513888993 -0.09224809610314434 1.9123261104401583
P 4.125946960586295 6.07252383798131 8.329216491438993 -0.9488735920923593 0.9231592180453908 0.2112318084289201
P 4.763033800482843 1.3097432013529862 3.6661118892744584 0.4614304850393408 -2.382598105030529 1.0986166970881788
P 0.09101873479586979 5.563610241001135 3.867575163917399 -0.03453634321397278 -0.5693211727757486 -0.8865842471348345
Ni 1.6093535816097473 1.2400869750953862 2.678607395989097 -0.7398963840255709 -0.35288493732775356 -0.5790242589961253
Ni 1.864967700577635 6.6563468112003505 4.612659895838418 0.8988926321885421 -1.8197458278085756 -0.06492986790416559
Ni 6.046674000121695 5.899269345828126 9.399402491296946 -0.7602057850068843 -0.41938806325630995 -0.5018446271903292
Ni 8.408367266397672 2.3384745241901097 9.979918963744646 0.6974865516007923 0.20853343566115054 1.3653894760071967
Ni 2.5315481295256226 5.215238694050807 7.026337647169959 -0.908789836697596 0.029311347369607586 0.593141672234114
Ni 0.6071827637381383 -0.25976781449524244 8.840734963650842 1.5120691115863443 -1.438950023003167 1.0928931643408404
Ni 1.8499858253298622 1.1813710439794916 11.50330352529955 -0.655618964832729 0.8565180238770733 -0.6422312306719132
Ni 4.097095322737385 6.973389331153977 1.4378450158961198 0.6936964884307408 -0.7464503830940048 0.133562381470899
Ni 5.762714571013935 7.895583879069852 8.193708729994562 -1.0951431367172815 -0.23438510661693182 -1.1243058743241672
Ni 5.22507591811211 2.983997145381873 4.988987061423984 0.15243299312315683 -0.813684730761631 -0.682105955379664
Ni 0.7790502796312085 7.482113055243263 6.4830995523001524 -0.046900006985648265 -0.6691866762148346 2.121318745125915
Ni 5.012255532124131 4.52208510194458 7.081665703418419 -0.1600987371985307 1.110655630530584 0.1029397714890356
Ni 8.156297441393047 7.00973642740989 9.51347360336 0.4479501911647188 0.6327808838922908 -0.09435794335729555
Ni 4.690791686282658 0.49333859498752936 10.617086273580666 -0.8292455613143654 -0.6304388660226755 -1.3959881747296603
Ni 7.943043060225893 6.98557736243581 5.106193788656577 0.4572246744881094 -0.09489581813863657 -0.7211342729267193
Ni 7.124293071579644 5.742651335543321 7.3264805756778335 0.8133121779135606 1.5029463233494698 -1.173992442916017
Ni 2.2012868397396215 5.241187989138984 2.609292036778475 1.1171875181118307 -0.9964575125189096 -0.33938870261353166
Ni 2.2685289678130602 5.054588145226166 11.364579678746107 -0.3068143682219361 0.8398269363746376 0.04628037112377836
Ni 1.0718234275027156 3.4313557594490494 3.8243817937099998 0.3028168170267688 -0.011094310140948636 0.9603435404051721
Ni 3.6812194422928677 2.6090795599720034 2.4978809535011157 -0.3024818022848533 0.7380091943051871 0.6073166781829153
Ni 1.0439482788069498 3.4100086215733754 8.304127049299558 0.3547101634619504 0.44956561528095473 -0.7468185650667009
Ni 3.8101973846039607 2.6957791385784575 7.317416405529437 -1.4363015296367263 -1.3258932176847873 -1.216335169548286
Ni 4.076408219196707 6.831020829252085 5.793541791084715 0.26861600277534387 0.8165697656189098 0.7154436502998452
Ni 0.7171869793096712 7.253940089791966 11.363255993449622 0.6146389228759415 -0.2797661058548924 0.39601005065200184
P 0.24198124540205057 5.911665333133314 8.063877263831092 0.2332844173535853 -1.1458992842242264 -1.0875943778357464
P 8.67050939618565 1.3714518908919426 8.1277939038441 -1.024720878239977 1.4978727654813042 -1.0643408066244444
P 1.6392449995754306 3.1175862864717017 10.454462855004024 0.07302241510431294 0.27983886807435676 -0.5174977603465539
P 3.99252960925489 6.278780046884266 3.612319090972331 -1.0810786882044154 0.44545622109827154 0.41264637365710227
P 6.838995490669428 4.1626376363590545 10.262130658099604 2.0452971381839617 -0.44056109778949937 1.4167405767856633
P 6.3779208206270726 7.924534974147322 10.357595131012147 0.3553639949958654 0.224154172917543 0.0521748822313424
P 2.381666086084263 8.511902241329626 5.497315669068896 1.6958582504232793 1.3644587366628114 1.4270481293592583
P 6.711409949558188 4.00123663753709 1.899037226299502 1.4680160871311878 0.7293510044095568 0.8564239215013701
Ni 5.269894961928169 2.968924854471772 0.7435747903601392 -0.6611437513057 -1.0051522120794303 -1.4073537362541246
Ni 1.46140643334221 1.0599156847740996 6.95121217749813 0.6912585684132094 0.1313903135202447 -0.7158120893828576
Ni 6.60780264209637 0.8536070347869937 9.163533344668277 1.7930382366104023 -0.12413903127447007 0.6102405366979297
Ni 2.5703635733630934 1.546089742678747 9.055827495233126 0.5837365768701303 -1.1676449034314342 1.164651110910433
Ni 6.5720974970429875 1.9789908923396535 2.633045135428701 -0.07048087962938185 -1.3855083582442589 -0.3852479270394914
Ni 4.100133288991611 7.009067351508661 10.541736573066263 -0.2634789386590946 0.7221184912168596 -1.120764951050444
Ni 8.328195698611308 7.238424762136456 0.27346669149457914 -0.5535579964042209 -0.19023669423449174 1.024322357249978
Ni 7.723676580285358 3.4512562467274734 7.98360443050292 -0.29111161277469866 0.7319614454492104 0.9293851443504445
Ni 3.397666883665584 8.420980251292447 12.454548625521458 -0.5535212296290145 0.1843334413761793 0.1485133463537765
Ni 8.956611676490589 4.68610815497406 10.306330354628715 0.5651894099955621 0.7442873140044148 -0.06094465800417247
Ni 8.48245386010935 2.0371733710478126 6.007060185985866 0.37572327537850775 0.8650260613480844 -0.8610807035470912
Ni 3.6067621443656437 2.985895874290764 11.481032339354883 0.11902639263825307 -0.9373398804211469 -0.36379181404824446
Ni 0.9776916814528881 3.449330393119884 12.784215884405961 -0.12514099017642322 -0.1480888572218482 -0.8054325180551678
Ni 3.227929560776965 8.356188387668102 7.764501060139759 -0.6885020887139948 -0.7533802774446187 0.7533926187397929
Ni 5.799929657628198 7.6840293123544665 3.638097500458707 -1.1848268145273595 0.8864168683190347 -0.024083523311764974
Ni 2.9783371249201314 8.343792400362913 3.1946909549918936 1.0410440408800328 0.36883837533321645 1.2939099799099716
Ni 3.305460991223346 3.990920210465449 9.254750089764647 -0.8979025003611311 1.8043618891533375 -0.18600208732785384
Ni 7.181960181012533 6.065281543428826 11.693425963416672 0.4594219392497442 -0.5570505829385115 -1.5513504256844701
Ni 0.5851927705033112 0.05441847468543828 -0.0904690075689147 0.5984587135716531 0.3259477466172774 1.2961026166859164
Ni 4.663504239392026 0.20741262522413237 1.396874966825369 0.07823764075666526 2.120037050200013 0.038636738535591526
Ni 6.214485469402725 5.699414565818003 0.5342977941788005 -1.6072960878121545 0.44206647869043225 0.1297715469698991
Ni 8.348720053959797 9.068148437538582 11.138714120997424 -1.4803758942481213 0.09664879627400129 -0.7879739562590882
Ni 0.15573826589035317 4.8440191092301585 5.9895792218313435 0.03779907312564458 -0.4403240420780288 0.2913774648415756
Ni 7.978992327567562 8.744930527847943 2.4345465903534995 0.12814429577912123 -0.05915414176265297 -0.3679127781951535
P 8.666359317284789 1.3942185546661685 3.695185045496072 -1.4914565775423152 2.7249736581865265 -0.704703895284838
P 1.7298234100957623 3.281482757573923 1.7266082291433738 -0.7540065981747078 0.4368597376785121 -0.4827881247795105
P 4.716135196433236 0.9091204431432258 8.274484274405276 -1.2584179576509489 0.67932684997263 -0.6055529014142732
P 8.561657980308802 1.9088012136743178 12.186298013586589 -0.49882846607182474 -0.6193622964935397 0.9426260685207507
P 6.251456433728702 7.786868086686495 1.3956444096610832 1.4717105052636397 -0.23650343851151526 0.11091970437071864
P 1.7880420550688525 3.18418646334261 6.059953348447829 0.2808984196871227 0.5342523540970734 0.3557278060931873
P 6.809610400412781 3.933189810068931 6.102578004139184 1.5490616296502935 -0.2338014661993199 -1.1865324843645566
P 2.3905991535222832 8.554506101418646 10.294234547322455 0.027524944893146143 -0.8154549352881761 -0.6514869449422264
