# total energy = -381171.2995806796 ev
CRYSTAL
PRIMVEC
9.18392893570770 0.00000000000000 0.00000000000000

0.00000000000000 9.18392893570770 0.00000000000000

0.00000000000000 0.00000000000000 13.44160832316935

PRIMCOORD
 96 1
Ni 5.018631287942366 3.9567303526470203 11.557833705091264 -0.17273905167036058 -1.5721457651632664 1.180928765024534
Ni 5.864232335426355 2.7826201769780687 7.17144702595721 0.04693060311326756 0.22062147717393618 0.05341518239634671
Ni 0.8896324750537393 6.906562318746242 3.226321485565558 -0.6659697119394338 0.2571409122562088 -0.10619144565711387
Ni 1.2975697286516312 5.1464991266820705 9.523835962514099 0.48896982811019013 -0.9920807236074527 0.6009835368760359
Ni 8.658084457156177 2.5520668318856647 13.243612690185234 1.2813537405115158 -1.1112539262362153 0.8963091877320821
Ni 6.705746534656434 7.371535442897108 3.5898232187326378 0.3429969887900802 -2.0990442499984296 0.8331703502900683
Ni 5.457724101128032 5.055082300795766 7.113366024322675 -0.1802595284171218 0.41558411612918755 0.61172483455294
Ni 1.4522638230085647 0.282202841486014 11.7367283698614 -0.7704516311046087 1.4129582269250955 -0.5561951769167518
Ni 2.818419130896576 5.563376016438063 11.40312124287701 0.40949677228452697 -0.6749122658447022 0.35820377843750567
Ni 8.740923493673604 3.9297020505992615 2.219720658306358 -1.9366410330364388 -0.4865722744122911 -0.693269171085335
Ni 6.111362671750904 7.878975053173981 6.169321527134256 0.8354653169718321 -0.8763746535916842 -0.07571950232050186
Ni 3.3597566218592383 2.72914216038816 3.8741668339894075 -0.46005905861311097 1.2855014441313022 0.05772563684624251
Ni 6.668560807510197 5.022213020119949 2.017463915809723 -0.18132987866316513 1.9906807363906622 1.1530757473680078
Ni 7.9612814218291 0.32063758293007516 11.640701211787539 1.6209442747232081 1.9377147257165919 0.0329779975879174
Ni 0.5864397646142243 0.7442343532869321 4.452398003166905 -0.4098459280938297 -0.2000883902175909 -0.33036490184836653
Ni 5.806474608080667 9.217174482219525 2.831501637273413 -0.8136060550048955 -0.8853447183007784 -0.26473800787717633
Ni 4.088740143212596 4.84685508627696 2.1370276462546323 0.6620932597031629 -1.70033042726202 -1.6149368921868636
Ni 6.151073979278772 8.155999077288357 12.732159703083736 0.9814175874666518 0.5348290525361499 -0.8102060281844111
Ni 7.850853863615626 5.650274349423417 6.654885937734759 -0.0698635577603571 0.04839201815014246 -0.2204574407922461
Ni 2.3904847910333795 4.207543444364418 0.25429012710825166 -0.36481408466517173 1.6050947092854615 -0.11666046350923778
Ni 3.5364094896433524 0.36987354287171353 3.501888020201517 -0.3749647999459284 -0.7195756701903478 -0.9392898050586662
Ni 6.189940365369874 5.774973732775259 12.583912726646453 -1.637365139283393 -0.03975851084486056 2.2295578173406763
Ni 3.92576214520392 7.163106181947772 7.03258235103946 1.3048245699399463 1.1821613518800544 -0.13791114535789797
Ni 9.07947983981312 8.971926851270371 0.14456146586583854 0.3807726648769571 -0.07742285816485375 0.7129833616848108
P 1.611182524549314 8.984582304964498 2.7620353192784943 -0.6457096761388169 -1.498308824577458 0.11973884532424539
Ni 7.333890519317847 1.6849294716928769 3.222988637854674 1.2591129268354444 1.7132422502276816 0.3366880158529169
P 8.830935178474856 6.260123948193176 8.63526514961351 -0.5178407455082694 0.1058183785884113 -1.4738818018833457
Ni 7.429504400601986 3.178658732603458 5.46395998868849 0.17284755222376683 0.8060827500446568 -0.772038001755122
P 0.5264163620679995 2.881512720793995 3.825670180304937 0.2900397198667586 0.1698329337671591 -0.26371830836341037
P 4.399202851579739 3.8031658815153246 5.566761212542311 -0.982995730587049 -1.4789373620293818 1.8367228219825464
P 5.181425607377833 1.9796141906213338 2.1267581772264963 -0.5749912265773323 1.226006888310095 -0.12030320246814766
Ni 4.957787760566761 5.810598192049218 5.039581666002627 0.9212915687090328 1.6809458520878209 0.7963256706578931
Ni 7.15169055862281 2.009370119481252 9.405079499398445 -1.5148366470291523 -0.9857825493035667 1.0310231663089209
Ni 3.020961493574551 5.884225748120195 3.6813741299773857 -1.1454495982813175 1.1866916356502404 2.523005020227087
Ni 6.969086505066713 0.8061395428156869 0.9772829717963859 1.955842288555238 0.17489543589173107 -0.5843577553938968
Ni 4.136083295457312 2.1425646368440288 13.484486934306274 -0.05316270006590844 0.6772308866755499 -0.7023703620556548
Ni 8.433335354977189 8.763828211752813 2.589781553322745 -0.12924832747657738 -0.6131731369636924 0.4626525303719
Ni 8.584016072509497 8.13412295921912 7.309022277291031 -0.8913089063040134 -2.458481643732721 1.21543965431721
Ni 2.4390494057899375 8.94744249746156 0.7807331225693666 0.07323658799764807 0.6880950830835633 -0.6965419282993359
Ni 3.51734365374422 3.742597871999534 9.78417370664527 -0.302547365415466 0.6931871528944901 -1.0379162938843285
Ni 0.27205092674473197 4.933542188903124 4.833601758827038 -0.5539210361705944 -0.10087826097431657 -0.611360766345302
Ni 2.43027875391919 6.655179823451895 1.315418694003252 -0.34644663790157754 -0.17608791353793543 -0.002235574198738085
Ni 2.8843230029640985 2.8939202084142885 7.271627156571333 0.34653045586463543 0.6938273575816502 0.7333192450286855
Ni 3.963912184859507 7.496804229825901 12.255560643641584 0.058309534374170545 0.43783032912189757 2.1781568371608806
Ni 0.6101315453796352 2.5426992246519866 6.008452159146024 0.25315441680463496 0.24503435880066185 -1.0317261059132166
Ni 1.0866240712493274 0.3015634814951479 6.780928011456763 0.4936613200485885 -0.3838942412250743 1.26848536918928
Ni 4.576039397937062 1.9301495508560498 8.969813629285598 1.7107369673073247 -1.171341121336099 0.01132493809451598
Ni 7.621136256031324 7.072166920351813 1.0503007150043078 0.342766617946829 0.5694492137131806 0.922539582183521
Ni 7.522776380077705 3.5311746503068853 11.594368291695474 -0.5712849813703388 0.8577318416795164 -1.716122142878638
Ni 2.3448406655908505 8.098948512449526 5.009834921071369 1.119945283362626 0.7810481756735322 -1.449095596077601
Ni 0.227898271316663 2.3839274659698044 10.514105927829254 0.25740804987466637 0.17260921096071563 -0.17713846628963686
Ni 2.848395474044345 1.211360190315812 5.7497013978873825 1.112394981819194 0.044047110917885435 -1.023786796461482
Ni 2.911700294300956 5.318321247990778 6.797877870192524 0.6031993135804321 -2.934531678457449 -0.008094346972360254
Ni 8.219818197549953 3.7885450670878584 8.709408842475206 -0.13117845461975472 1.1832689831219363 -0.6060115862182467
Ni 6.666567894990875 9.005540030167687 8.48578109798566 0.05750015109899775 1.195883329451837 -0.4093221943798757
Ni 3.7879205599389465 0.9043414551963459 11.060588255627511 0.335762418714854 -0.007153323215329615 1.3094044760011447
P 3.5574406862758257 5.887715641011173 9.300329445882873 -0.42125468415140355 0.5532949725508213 -1.0208328560394806
Ni 0.7676561265497253 4.489554341741429 7.227619607216099 0.1297931442364539 1.2645639226476866 -0.15790635753290225
P 0.4249596653700704 5.890489187466635 0.7956184341422541 0.4944709604340775 0.24551695486403524 0.2995854545736647
Ni 1.4607773248768192 7.223159891458576 12.312970300091038 -0.9251623645183487 -1.143856799872901 3.0072291061221756
P 1.6647064607825253 1.6401761873304135 13.323818694355705 -0.5720234021982601 1.0998469699508542 -0.1583727556463595
P 7.187342569682749 5.278260951173815 4.17618675673898 1.4486518236719632 0.10200620393117273 0.8134147649296959
P 5.802332656254796 0.4654516068340766 10.647662291981254 0.9386789109475447 0.268000480678532 -0.5067844876941079
Ni 2.446828193365355 3.087719471007497 11.723663312949016 0.8838727617409422 -2.649272924919102 -0.5083047809933763
Ni 6.026925631646557 4.519888858106956 9.375374082146159 -0.4871695416766578 -1.750870859213733 -0.09036373459623792
Ni 1.6182174139032328 4.537944461853438 2.667822905507943 0.8290699549684496 -0.6828546606202305 -0.47446572095674416
Ni 4.877042659783921 0.06607193796200946 0.6576344979830432 -2.046930045801694 0.10513960735383183 0.5239496866194848
Ni 5.1654088357939765 6.129877471930409 10.79412207590121 -0.3648464805650039 1.3797845683866041 -2.7211085188041655
Ni 6.445336237488847 1.8580281590853898 12.471204798946584 -2.176527271977258 -1.8814592456579724 -1.315540927916186
Ni 0.7372463019691816 4.41001233561311 11.825187052326166 -1.8237346372529946 1.2826524047182815 0.7836848419654309
Ni 0.25109136475581045 7.446338541836624 10.399072629392554 0.4288996022911711 0.9392766924325437 -0.8732710749656961
Ni 5.2629146063821715 7.147107778221236 1.7493712623176534 -1.3152876742547994 -0.9052743673451701 -1.1549104865839013
Ni 1.3013535072597442 6.7630818012837395 6.2641391618035325 -2.3029463575351565 -0.8272390724072978 -0.2793161628016674
Ni 6.121520096849383 3.494071578518592 0.5314032353306339 -1.0741462227506404 -0.8739243922789788 0.3717717469299274
Ni 8.392301561722215 7.669296777926822 5.10234004250394 1.0908529939823601 -0.11074255536290604 -0.6956309864492923
Ni 4.711676840323523 8.019130988461393 9.18465051726134 -1.4718537157097231 0.5563322167152485 0.8032424523823845
Ni 2.3673137390230172 1.4957864609305256 9.333032497449935 -1.9147496322799864 -0.5220283012270558 -0.9002098083380691
Ni 8.129650385961472 6.995095391033159 12.272054061122919 2.1646911985742783 -0.4757435592279033 1.0079107486611738
Ni 9.652951897158761 1.507137796754865 1.9286957349490976 -0.9638361269394627 0.2680776137733705 0.09852955823648192
Ni 8.13862308426275 5.372561530659506 10.453753740636984 -0.855318090031701 1.086275916134639 0.46657449113412547
Ni 8.93900246702259 0.4325731422295989 9.136476219472854 0.854607694228238 0.321488168184027 0.3330473337765361
Ni 6.466523560908548 6.646225493007937 8.483522769928053 1.1335523326230994 -0.12371479925285792 -0.13114014518265155
Ni 1.7274051417475444 7.196618337629823 8.451196259436069 0.8223015258963645 1.0834705854753597 -0.2651848656066078
Ni 2.5262140727064453 2.4824342847819914 1.6741521314098171 0.9780137039914253 -0.5219126015847978 1.103155979719429
Ni 5.064587666959351 0.6720018359794803 6.727256213972118 -0.4747274592585631 -0.3686188031232426 0.9079282600282491
Ni 7.888902880055948 4.8718996597340585 0.06637776278640306 2.9712848268170826 -0.7304030998231549 -0.13549199439344406
Ni 7.17970154103724 7.8748514692054306 10.510141225826528 -2.5773661114764708 -1.4172709953678366 -2.337959640385548
Ni 5.524629021419546 4.031368140870649 3.7525201885243042 0.521988706238372 -2.9306552262211785 -0.4282339436827141
P 4.409681714181334 7.412605971866723 3.823331033675115 0.17156714284944646 2.372425278262585 -0.6607040926651201
Ni 2.578176741067377 7.979704382722001 10.53899988485632 0.9806771097562014 -0.27807971929140496 -2.1873518733965875
P 3.2029410399817366 -0.1389592693829527 7.577088297389985 -0.7695064935825199 1.4005133162935235 0.4987299928207475
Ni 7.9346112929991 1.1747254988892029 6.902884155317723 -0.5386931634772464 0.7882146115149845 0.20037841065418394
P 0.6071394214220546 2.514917840454069 8.121944151422474 0.9105363870750576 -1.7772084686669973 1.5422847159377762
P 7.193146812596166 0.3628579397679816 5.005950119247991 -0.2041067673483646 -0.1699658598005976 -0.15147679985747461
P 4.009225688870259 5.67169127105963 0.19760416423724114 1.252273792426424 0.5153912555265123 -1.748231621818673
Ni 5.2546490705877495 1.470769439259409 4.552565276280904 0.9542266288741567 1.558861903570167 1.2274544193898989
