# total energy = -340886.0107337219 ev
CRYSTAL
PRIMVEC
9.11579954910520 0.00000000000000 0.00000000000000
0.00000000000000 9.11579954910520 0.00000000000000
0.00000000000000 0.00000000000000 13.34189407925834
PRIMCOORD
 96 1
Ni 6.7623828375019395 2.2921769606186584 11.271472158179513 0.09090546603232086 -2.110902434888597 0.20569339510919415
Ni 4.027241820079599 0.8477301779535759 6.137458302072566 0.1907066918923748 -1.6313204757512099 -1.0704016681065438
Ni 2.3438726609486173 1.7319563717493351 4.514950779910896 1.4287178037521975 1.783622342613141 1.6000314358299412
Ni 3.5320806939602165 4.462019888716061 4.8155169289638655 -0.09156289711066165 -0.5466057334561037 -1.016574594983759
Ni 3.840577588787665 2.36765578247231 2.7340079235145613 0.43879732102085717 0.35965439484110323 -0.05531419919127248
Ni 5.239542911806078 4.609495296922386 2.5304238563237664 -1.6894510613453548 0.5223779712569907 0.5162284067158271
Ni 5.426817901680645 4.880052233228712 11.52105910876215 -0.6374731471616377 0.5065862556403727 0.3827331310374376
Ni 6.108989659482113 8.203153218131567 12.390791180970071 -1.0280612554671198 1.5482355342045724 -0.1569195681396007
Ni 2.019040252985693 6.664160095295045 13.521209601525001 0.15694425072994905 0.5049037257316272 0.4133621687772043
Ni 2.996208406198514 1.613241311725168 0.07624363745190275 -0.1733355476037789 1.665421788310293 -0.056772528904353844
Ni 8.07767423469974 9.264022644564221 6.711346209493239 0.3806078571643187 -1.5113582015622486 0.4151529421290398
Ni 8.66380192643236 2.4914756903513133 1.0909169255382116 0.8891003286884688 0.7153729449629099 1.297186079558082
Ni 7.150980264651615 0.5931441227930957 4.613000321922716 -1.3374827222945997 1.748156031385731 -0.13924477656765696
Ni 0.8315797155528374 7.545156561242646 2.2813300705071056 -0.4501322864177022 2.1190605452193574 -0.14070310628073832
Ni 7.8607637798679 4.094087979578733 3.5869149641409255 0.7183721368005499 -0.5117372037136929 -0.10541831493651521
Ni 7.620361909104074 4.0254460075306655 12.612372571589088 0.25553962920735995 1.254814813680723 0.6176674252896202
Ni 8.437903293056111 7.3054201438598945 9.25643282970005 -0.2944180514401123 -0.733214344019705 -0.2845750972077615
Ni 6.987032606313702 1.1248441090134436 0.3505927464503921 -0.6235171992021777 -0.9381549201232746 -1.3851368338374532
Ni 2.059459709036308 6.562546275584579 9.190830976865533 0.2857953427681078 -1.067477038260581 -1.6647471308407717
Ni 0.38296659764979524 4.825202466188443 1.1606363851156387 -0.205729133443136 0.1662120491851202 0.45658549824221367
Ni 6.703257760383246 1.9944549410848118 7.0413582148688745 -0.802927749355443 0.8849554532821597 -0.4053665521662373
Ni 3.3649698531122536 4.221298964961306 13.15269336962429 -0.5636752873438807 0.29981428275501915 0.21678641969856213
Ni 6.322071478422824 5.753272921997429 4.511068360801297 -0.38568501457690996 0.9395978232173883 1.7158637470109288
Ni 5.478185433219936 3.056482074084546 8.859818056678359 0.30515909200670027 0.14322381582006302 0.07222383046241755
P 9.46174434094172 5.7967005919625 12.50493102110434 -1.376686903297887 -1.417891659670971 0.53115443189804
P 4.011143317737384 6.331178162363863 12.703324551922735 0.7949113068088698 -0.9219191749907025 -0.8484272764491387
P 2.7347308064340052 8.766208820720273 1.4421249884711065 -0.19669376271374514 -1.665487351440906 -1.9369050853311032
P 6.500294479154799 7.772714270171715 5.837025243695811 1.4518531042180802 0.40615793771928116 0.024629111402589842
P 5.188029527470936 1.3218091940124586 12.417554257429025 -1.5436412299656705 -0.5306288984118732 0.6748253625578506
P 4.106239340633191 6.215881527242489 7.812506559200165 0.7634759711177238 -0.3271800763624817 0.7455378985820644
P 5.050189519590615 1.2341243163059041 4.221948921482824 -0.6232390058401266 -0.4927244100566159 -0.34270928234633236
P 0.10589004136886472 5.896901462713145 3.339329843181364 0.880604889622948 -0.42706023508958707 1.3621809963722282
Ni 0.6615591114276174 0.3494541830627688 4.32789730397003 -0.9537044378220993 -0.9278751354638214 -0.36422787314439853
Ni 2.0265425561723545 6.466812146706917 4.7884056289548145 -0.03958881803621569 1.2508491441647553 -0.26076873881678314
Ni 6.019281074233105 5.733327552164603 8.792402159695428 -1.3760752378558172 -0.790033152780962 2.389820590920897
Ni -0.15365865517049565 2.353708608868918 10.276621176629527 0.2779388228381665 -0.6367925761548453 -0.3631420962793875
Ni 2.3945838549065717 5.322824858237836 6.858414141451151 -0.7444037849776213 -0.2590756673850764 0.8573906562900137
Ni 0.9051715668601474 -0.14656747455214353 8.751962648885383 -0.8030910144061846 0.15996426850319545 0.47552193013540034
Ni 1.626997053534004 0.5591822992788489 11.535895072840269 0.2134666112967098 1.4202295637755282 -1.1065292670670361
Ni 4.3189929907832365 6.947761741030424 1.4624714534925256 -0.2667249564002181 0.7994534176535973 1.0569789669427343
Ni 5.69597100482689 8.136343521831396 8.141451104426155 -1.4217328877939321 -0.8051936625714842 -2.6856375795910647
Ni 5.7613039415690555 3.2478227106435007 4.562247195285954 -0.16804987372480737 -0.6659098052357757 0.013301345094596448
Ni 0.44610080349448344 7.474609387048755 6.627038735590643 1.0238932401323593 -0.6267241361752497 0.34346441534480204
Ni 5.069369162245214 4.495009967977941 6.4339815939405 0.7423728705905215 0.852178515961455 2.257512136461757
Ni 1.0797117844968458 7.218719772525344 11.170420783313055 -1.1718900518610333 2.0725644585403464 0.22620334213708787
Ni 4.8478005337458345 0.3927277960122215 10.35014830575868 0.19251803406950072 -0.7734510800525647 0.7394356423390684
Ni 8.256872626003979 7.7926049452060955 4.531013730634123 0.032993167096568986 -3.2383062314117974 -0.38734748988099743
Ni 7.381400334699289 6.235817781275572 7.202835491477036 1.4334905425504922 -0.17634605229532854 -2.1362928499372433
Ni 2.2420765252433363 5.784503651909337 2.4920654825945414 2.1825811914808217 -0.8650561432550715 -0.7001782395003425
Ni 2.222568713798069 5.297492050758211 11.148220164624362 2.9452845460985793 -1.6302429264163147 1.5077105775073325
Ni 1.44443493212542 3.9729936958222227 3.7121022419810457 -1.2043044636359967 -1.0493638735996378 0.029139854788749812
Ni 1.7172890499664215 1.1705780763129325 2.3386210487179544 -1.7098095703970488 2.0933245739058335 -0.35325620462424323
Ni 1.307269493425916 3.6035303323284436 8.61576804285827 0.22790078444416884 -0.36263661739787867 -0.23232128210936762
Ni 3.4195096829613347 2.674511833346418 7.313679970005015 0.5669411025793462 2.1784579133410675 0.6861173905319021
Ni 4.471627941642843 7.345247072927359 5.835531164118297 -1.14973305614802 -0.675323899460824 -0.4664693330148289
Ni 0.832475798667356 0.06184158544144577 0.29133913655535354 -0.2930803064652952 -0.23680734290517924 0.5876004307009106
P 0.45238797057569885 5.676672856775661 7.994542698963706 -1.2683745546430285 -0.31275181675229363 0.06941592869997722
P 8.732234235086388 1.666541392809504 8.059424403618701 0.14024185037360362 0.8516560677990817 1.1967924715296678
P 2.267491374920629 2.7772833596239623 10.774046667404521 -0.9095300572977303 0.7704611441863054 -0.20321382322045
P 4.213796661774645 6.312308456900451 3.803213748810159 -0.6100950122590009 -0.015665731561714958 -0.9684229749791966
P 6.9586277743214335 4.11160854668051 10.310282178752331 0.8600751451007123 1.081115454979622 -0.8672747481729449
P 6.375207475111827 7.828876712374655 10.067739918209366 0.9664900196225421 -1.0695231221563324 1.9798201395270743
P 2.1267890059217023 8.659326068759636 5.667010109050436 0.3373966118841673 -0.30101395949007514 -0.6738709690643814
P 7.0404511927946665 4.306221755346405 1.59851929514381 1.1628076299437908 -0.08104579962942171 -2.301220118872669
Ni 5.515405243561537 3.3315422154628163 0.3777104275192619 -0.5386846788368143 -0.9308928392442225 -0.29237890952289647
Ni 1.5153285067094593 1.351271458774657 6.9202940132515085 -0.4913954068325472 -0.3200450079795972 0.0560032548384971
Ni 6.996513038044111 0.581190574593012 9.212124573480018 1.6155899523898307 1.8068530310063076 -0.18319007180035546
Ni 2.8849774177615273 1.201389479436766 9.324969970051098 -0.6396261889488983 1.7529182286610647 -0.9906367920720744
Ni 6.280986568991134 2.0194322323745464 2.473067244354784 0.8035592122918548 0.3348496770925975 0.4665811760023448
Ni 4.279065787918624 6.821489683021151 10.519509837562643 -0.10558980751737299 0.5952355786486653 -0.14371232542070733
Ni 8.343299523346305 7.370260827416057 0.3269281303233294 0.2501449405543498 0.2119756285734801 0.052544863976251445
Ni 7.900289887543919 3.8939688278694087 8.321739745379388 0.342046709061669 0.22225515612261723 -0.3859398109001934
Ni 3.5821355503368353 8.501112248458673 12.660657139656045 -0.11184967238415575 -0.3458048905525206 -0.9501491163706732
Ni 0.13786279737967352 4.84692541697072 10.523979314175547 -2.5684626383392537 0.6559041001733155 -2.1349011117960393
Ni 8.72148670719201 2.216050916983412 5.533724354720607 0.3375714468991347 1.8632054416541075 -0.04361208026299586
Ni 4.37601231816181 2.883108678814667 11.010545152719349 -0.727895760020269 -0.6240301342828544 0.5030067658192305
Ni 0.7879214158543238 3.526538287717823 12.28124023442531 1.7861299395263432 -1.394915767601088 1.2845521928441554
Ni 2.9022518582703034 8.10070074484495 7.578943361401869 0.5321741314118061 0.7438839079184092 0.460896981133374
Ni 5.552825601497435 8.218285445701259 3.5697435321692197 0.7802354499642498 -0.6518127037127612 -0.23489161393970512
Ni 3.2445501385365607 8.744613491134366 3.517016834888579 -0.23987106943216752 -0.5312457060602658 1.178073812074242
Ni 3.558516513208476 4.462977047688843 9.231296923494824 0.24768542327026374 0.4863956396251106 -0.1418935270444137
Ni 7.4323211920512815 6.556265489563182 11.543446601345531 0.9887267195335552 -1.6445349175589548 -1.5442894050726308
Ni 8.0828064299538 0.12093840358094293 2.292484163069923 0.24921780075439015 -0.6234665484699005 -0.11683067053851494
Ni 4.7542633126057 0.48456856682059746 1.17216240230788 0.6687981825271644 -0.2617555282100847 0.9164990324163957
Ni 6.196565147591778 6.074121725473631 0.15081817197126884 -0.4070223426021055 -1.0206377093095391 1.1964479437060556
Ni 8.452415646243432 8.77355615531134 11.266002678335047 -0.8661162090884696 1.0740621476772663 0.19943610134557266
Ni -0.06349336835447496 5.195595641255782 5.520208358444953 0.3448587245891674 -0.33458691034951404 0.5505649752141679
Ni 7.306896903417901 6.414624193190956 2.4614464228452384 -0.09456851670620488 0.028450799141525193 -0.6915038516547961
P 8.39472174968404 1.9742269814600226 3.3484556703018575 0.7023891311087322 -0.13197626793070175 -0.24603914591609238
P 2.352724102496914 3.4633749113139642 1.6119012891632738 -1.1061520862332757 0.18229635634149247 -0.4343331146019165
P 4.794436642063314 1.080860375264184 8.14784128004444 1.0266571760307415 0.2330720442324631 0.4696891255037072
P 8.76185146844418 1.5444990658799527 12.448628195585393 -0.08795461093411304 0.18098020863323025 -0.825663500390062
P 6.383138220886305 8.132806591531974 1.3149942221262523 0.5201596234494332 -0.43706748281394403 0.09988915758816991
P 1.7657759887876256 3.404021939201751 5.998916377612204 -0.045389740988708925 -0.2839947992242593 -0.9904169627517846
P 7.216723412382113 3.9991286936790367 6.052137151238795 -0.3132426403457831 0.4691211688153792 0.12529808457957778
P 2.63066483659327 8.390255007811058 10.095851221449983 0.9238945535495184 -0.07031195815168537 0.8062195327328374
