# total energy = -381164.9266545779 ev
CRYSTAL
PRIMVEC
9.24046219368439 0.00000000000000 0.00000000000000
0.00000000000000 9.24046219368439 0.00000000000000
0.00000000000000 0.00000000000000 13.52435046068616
PRIMCOORD
 96 1
Ni 4.643092028188775 7.219970495152191 12.052102975988234 -4.2643753961495525 4.466689847484185 -2.009273926011817
Ni 0.4775544814068359 7.489514778960441 7.994419180532366 -0.03996908419376988 0.7021924417168939 0.22033505628176892
Ni 7.934794173823381 0.41137244268584006 6.434345470681646 -0.4179518450304157 -0.8031252100782297 -0.04606902644392066
Ni 7.710990178148515 5.3201037353363665 5.306927760215277 0.8816531283818041 -0.8601908447429703 1.4549134883109587
Ni 3.7387187474003887 1.8640414876757978 4.0603884787562 0.3135745697639051 -0.965664438397453 -1.6405633345057167
Ni 0.37863348493703547 3.6614684829973387 4.97650084278593 -0.0853714235879691 -0.5727965329188587 -1.4433676924548884
Ni 3.9827223935519362 1.747029514214575 7.936413102809435 -1.0973920806524584 -1.2395424609026846 -0.16282616343202277
Ni 7.125191073862468 3.620616399393764 3.813028696715753 -1.1786811066409377 -0.457841739246818 -0.8646781910903625
Ni 6.5689244869247645 8.54936807755334 4.53177957184284 2.449952008995155 -3.412209478593588 -0.15563195967642876
Ni 2.7569103929639693 8.657481485868612 7.991078753429291 -0.515412595682751 1.2219512301834827 0.2752733601908614
Ni 4.886402639671635 3.7633168579076757 5.416150948046676 0.4897830680401048 0.07834691264101991 -1.1585079741271727
Ni 2.875188309753328 3.0783768341502977 1.7422069169667338 -0.18268870668390472 -1.1407123407066484 -0.9143526754973543
Ni 6.341599875132965 6.172249923492451 3.831948543170926 -0.9765204072753505 -0.10030361941776919 -1.1214084981717138
Ni 2.0404326715501786 5.83181281330858 10.487268579986743 0.7535623115484377 1.3631438745061297 -0.09445487394647605
Ni 0.2638013365203916 4.310315261209464 0.6828794006758133 0.9286055858719426 -1.0779337148175308 0.4632744802266151
Ni 8.335257326777853 1.227752497660293 10.840768007606037 -0.6645694891577975 -0.9320855740007431 0.5983810662561824
Ni 5.143518501754753 0.9264302641771519 1.7599375159304387 -0.23681916997972116 0.15947935844697697 -0.523342392052789
Ni 3.407614504088177 0.9632812276268365 10.09402037995642 0.9630372851872512 -1.0361887696702607 0.42715639434781916
Ni 8.442187955925231 1.2201660781537254 4.200392570385803 -2.698393593705153 0.7362371900064287 -1.2876418875130728
Ni 6.350572363976908 4.839895393171569 1.6451155320222688 2.8457460869816087 -0.21576980550858965 0.8224889593168222
Ni 0.7909512269109655 5.931739172071089 4.321557207581803 0.12092206699906917 0.11440020672015136 -0.6380786419561204
Ni 3.227905994266345 0.07653782476363911 5.7928042019237145 -0.13331427001583493 1.4174039214012752 -1.4352836298951734
Ni 0.5134167153958594 5.439176331879153 6.754817638129965 1.0771413008232225 0.15829099456583062 -1.3583626510674027
Ni 0.634210810055667 3.0596648980957313 7.148985264154078 -0.9937077176879145 0.36942407263335736 0.5658918353792254
P 2.6982611790684956 5.657112634025796 5.0748775760292535 1.4688650653950446 3.293042446612412 2.6883806895538407
Ni 1.8321896143029135 7.519269067402765 5.9330245203699485 0.26217616068727106 -0.6974811522841537 -0.13485153259596777
P 4.707525771452228 0.028468016097238816 12.654870341102429 1.946742640246815 -0.8619463939814961 -1.0451128116327677
Ni 1.2217092353493364 6.445896972539332 1.4823364730871387 -0.14700050925367586 -0.867962261158273 -0.2606707797863382
P 1.1458912425949075 3.444742681405337 2.953272063851253 -1.8495613685081116 -0.2585164524474967 -0.7075719608612523
P 0.7666063050693058 0.34996125462409006 6.931513757258568 1.1798100780390586 0.0043456785632054185 0.4489493218531945
P 4.687871308248246 8.82836535424249 3.664057660519556 -1.638393066327275 1.7632954581303308 1.976810920387105
Ni 7.544125910853028 2.558434504314075 5.860181956459752 0.5931121045477592 1.945296908939224 0.8355920723576835
Ni 0.4585708757621438 5.982533993054769 12.590318319922186 0.3015880868259903 2.1923202731454565 1.5775358258305865
Ni 6.441350665112741 2.272534602324797 13.48565720076956 0.5321183384732061 -0.42478120924742324 1.3559314159180906
Ni 6.2252624554159315 6.364202045794432 11.058902055644813 3.2558216145877408 -2.1198971821880397 -1.2644590216387062
Ni 3.211088352972858 0.9916864085807809 0.01769825734583274 -1.982775622610972 1.141247387274512 1.1529973287215887
Ni 4.333268569436399 7.1059986337709455 6.289431921459059 -0.42207512317016993 -0.61791116586931 -1.4311899194417739
Ni 1.0176151456519482 8.864763535041964 10.023139566181722 -0.17673634575521177 0.5490241130896093 -0.6640917781904305
Ni 2.3563363544625076 3.9699982770348314 8.953863768233347 -1.1675433448565635 0.18340013092863253 1.0181038871440917
Ni 7.020857014607104 3.781964110726498 9.428649807150334 0.1327861654265068 -0.40505056358771535 -0.5182559786688171
Ni 5.094950632173123 7.75995538760686 2.0596371242426255 1.4774288958046555 -2.278074276883825 -1.9828221595781914
Ni 0.2740647179405432 3.085279459450427 10.100959043059321 0.07486023964400011 0.6139956328649877 -0.6014987859495576
Ni 2.578458586008024 2.585130199751924 5.827182417675521 -0.21852602809748817 -0.16517795149365103 1.517474598872632
Ni 8.406612176265932 1.0433036307046373 -0.167706073406387 1.1999973516202107 -1.1313974910636257 0.8509245889496958
Ni 1.729112257913437 1.7913560116238372 8.609763738813905 -0.47354192359089414 -2.178339385485332 0.17225234184192917
Ni 8.560410429941095 3.1285617846255325 12.46662456820859 -0.3549150803839049 0.1207354049095598 -0.6517365990591872
Ni 5.3648275726223424 5.994269380111214 -0.08561473083099749 1.5161792770999758 -0.9013974008882669 2.8717173142343895
Ni 0.8556390828862707 8.177809090514268 3.090435637385463 -0.8282094067403671 -0.18623657193616314 -0.23403080860130662
Ni 4.188276476284694 5.020888327246036 2.2238225815320796 -0.6330984151327097 1.3406996865700007 0.655221215173678
Ni 8.74499790383049 7.462819083522593 5.549014010450121 -1.4637015189162341 1.0374542666462456 0.20858537194500854
Ni 6.262529239666829 8.741006024138848 10.599506930650046 -0.7607943105205026 1.2197115422196865 -0.679104963769811
Ni 4.772375335516894 3.8269651618799494 0.19589225540502617 -0.9584314109841235 -0.7721632144790765 0.1392756298055924
Ni 3.046829896031636 7.482991012612528 0.7463696927436263 3.53670897853127 -1.1658063075607985 -1.1986246396424003
Ni 3.5541127925864973 2.923164789751012 12.063612895765798 -0.41779989283358365 -1.6100553957248465 0.43179055068572086
Ni 1.6799437582856105 4.11427885459335 12.053604551103724 -0.39016901849019253 0.05001412713459774 0.3277076667311775
Ni 4.328500490915828 3.285621921474653 10.019528393534749 1.108129778784937 0.1097303120483078 -1.6905795185228434
P 3.0206147046307446 5.3347036656900535 13.846095291491759 -0.4228899057619813 -0.19297054822588702 -0.6448283019751282
Ni 2.936434093540818 9.251920422357632 2.415598211005101 -0.29897713156570443 2.133779082376454 0.0022402021844284
P 1.2916133322642975 2.306012797053535 -0.1664031682292542 -0.30532544238123543 -0.4521536877231052 0.5386170588236724
Ni 7.463318068484048 0.11293508151688957 1.9068793466167187 0.03459136482162429 0.6722614584854164 1.2426455253080404
P 6.738413045499016 7.575839177292175 6.92009901424217 1.7121135359398771 -0.9784603046105407 -1.6301750492928568
P 8.170721655969155 7.2519147731475675 3.276747381530551 -0.9170428207350076 0.8266916845442601 0.06615911232557638
P 7.478805083213655 5.398777030925789 13.291961403241164 0.934396738632423 -0.3803561461648288 -0.6057490765854794
Ni 3.9149528434165335 4.11073975755192 7.509611860306158 0.36982285073367277 0.4936358661272917 -0.943828316358968
Ni 5.911142181717692 5.3887973316966855 6.982757664707557 0.7342432995048516 -0.09516089887456515 -0.4266388312814524
Ni 2.5980206445895138 8.379038636914414 11.772974484735146 -0.08075937873725447 0.22110073080319986 0.11315347879724383
Ni 8.580018690833832 5.020047445181361 10.991659211857613 -2.443197978100773 -0.5065245491645018 0.15157347333633897
Ni 7.300307073946463 6.164534137514396 8.831306593376398 1.1946635981121234 1.0538741027651657 0.04421191863052386
Ni 5.775621562371385 2.756476091238258 7.28188898459142 2.369018566573881 0.1458525116921617 0.7034738795324788
Ni 2.985260696065425 4.067864012715776 4.020424403574769 -0.4811886415028745 -1.5734958514332578 -1.573710281436909
Ni 5.343971849325969 8.06863302904034 8.363215269358937 -0.3641481689463986 0.41335651235024934 1.8630074667106882
Ni 7.846529278419322 7.40927060478866 0.8980657412571037 1.7847081194781524 -2.1324796468387404 1.0557574358308075
Ni 5.307980248865458 0.014538019256617057 6.4723080617399065 1.139622450076579 1.4959747771276428 0.16984553217264944
Ni 8.281986061911395 1.7882604567703657 8.560427062773144 -0.8022878017785989 -0.19991895451926212 -0.8882554641896702
Ni 0.6783534222661706 1.1967137849653353 2.2601357500788626 0.9586358136854458 0.6318956530738601 -0.5893904327217978
Ni 1.5971492165330592 1.6623591586254427 11.268556131477526 -0.40612348493691997 -0.5623262295151542 1.0878121502735072
Ni 5.418856555393232 1.7483046980049604 11.548767604906217 0.6981501533267203 -1.4702742870377452 -1.5646396865942087
Ni 1.1296003076496233 0.5945673789142836 4.647264096894275 2.7165340120596055 -0.029194362175769074 1.730734236364858
Ni 8.043120112770385 2.4858691542713536 1.9254887135403196 -0.5008087297266473 0.8785217818416742 -0.3736777057033887
Ni 0.33584552449225996 5.233622249146397 8.99864304829282 0.32448221781534436 -0.2323007132840773 -0.7900277534643233
Ni 4.075080813732377 5.0889350912489135 11.548415543294523 -0.5628941862034821 -0.08262882784582544 0.07837519477579405
Ni 6.320254407337386 3.9396525990085616 11.677100068668896 -0.015620994366708581 0.7029637726652797 0.7785207812659882
Ni 6.813149904170292 7.911831625134196 12.597865005441085 -0.1008893167179101 1.646676903602622 0.6542801914166474
Ni -0.04160610532310682 8.33651402964374 12.19486626964544 0.0022386595225316287 0.2595742042880497 -0.3849162547316855
Ni 3.036619185246305 7.222123522856248 3.3101525766075204 0.23732413464059773 -2.0919112384980747 1.48487609611132
Ni 5.152352383664959 5.54691088124221 9.274161290945155 -2.0595233090856726 -0.5165585363617362 -0.11449019533079637
Ni 8.73219986361539 5.329371918972282 2.536437583929929 -1.8079575769243958 -1.266899769869715 0.7560405978856011
Ni 3.0461553422874466 6.312704949679815 8.04940917137717 -2.0652671535479854 -2.438736857005626 -1.5987931925474659
P 5.889038996017681 1.2520087110643605 9.030506010220403 0.39619774118277573 -0.1920279818069596 0.8378754690752215
Ni 7.698219859320164 8.66340462217033 8.679373989029342 0.27687670012223925 0.16436625422563306 0.29933991422176187
P 8.01381860697827 4.399809138092663 7.515846400185672 -0.7778376391560345 -0.7660799843994741 -0.48646043142477513
Ni 5.878209174261655 1.273289495624196 4.641773414225819 -0.03274711252403392 3.902165067655815 -0.3917880421508543
P 5.3486198018373 2.9537507197957598 2.229394580268328 0.5091622438976651 0.9268562072810037 0.6287725340638461
P 0.07198782115214847 6.94922495125155 10.409841822754734 -0.04751475775151172 0.8015234128087486 -0.37605829012042336
P 3.733248393748881 7.460573651196045 9.478933630571635 -0.7137204969611515 0.39897864636202257 4.506853564187264
Ni 1.4055667127210454 8.74765915695825 0.6253122449097175 -3.2279236026258924 1.4950964882877478 -0.5492591119185508
