# total energy = -340865.03023920103 ev
CRYSTAL
PRIMVEC
9.26937474028106 0.00000000000000 0.00000000000000
0.00000000000000 9.26937474028106 0.00000000000000
0.00000000000000 0.00000000000000 13.56666689515939
PRIMCOORD
 96 1
Ni 5.094550410528038 2.430096402411292 4.448211729450943 1.4938261062157563 -0.028336127940531843 0.5520682992325718
Ni 1.1133168116309373 7.301968619613296 11.973831826755225 -1.1383975765305427 1.058331367205571 0.43023451905251064
Ni 7.072143738236045 0.8055299987460781 4.617984965510677 0.08587253159410373 2.538152417391487 0.16303493700871924
Ni 6.616275880442498 3.5019883775949063 13.178375972319316 -1.0212324054707442 0.13923963436133438 -1.5442544380696372
Ni 6.962440686243637 8.176089211838734 6.215189101395883 2.1663480174514107 0.6806741080291439 1.1093826773554314
Ni 0.9974403559522645 7.454598146787524 1.4548626879172626 1.0966518600523243 1.3857937506951616 1.723361855160187
Ni 8.531180425672714 5.598813674696943 2.5679941120501137 2.8435627061770448 0.4778588057986932 -0.595842873215361
Ni 1.3227027213442033 7.574163813678108 3.9722256203651005 1.009742402553274 -1.492595576242765 -1.1560170893845187
Ni 9.303671591447392 8.335448305193484 7.801186563021789 0.2759688435959892 -1.6537088707487388 -0.04104380531518738
Ni 1.8647757657477535 2.7158434225861936 9.89095508500918 0.2839546900149432 -1.9494425556764816 0.1875357503635609
Ni 6.703352388293507 4.014047186058328 10.79347796887889 -0.9505198694465309 -0.5757594722019246 -0.46879720981705714
Ni 1.4257318234055143 1.4872248565206503 0.5637346466174125 0.5360768089003218 0.9257454907153282 -0.8891517507516946
Ni 3.938798400585209 3.6633403865540815 12.648298425979423 0.19123968157770938 -0.7247189049541841 -1.2093726221875236
Ni 3.7656650161226657 6.780176967500357 4.263433229296126 -0.18836338847117884 0.698963393256635 -1.2629287010371089
Ni 5.892189390418084 7.575433718039998 0.271549118633983 -0.48119455504014547 -2.3546882659941386 -0.671936728156146
Ni 0.5135465431355625 5.652640934766222 0.2701800319606177 -0.3355027372955641 0.4332290829044603 -1.0612454555285722
Ni 4.782765716246954 8.682836668481992 7.8130161392746595 0.6879320751431378 -0.2187502282931523 0.8502913262410711
Ni 4.086422465311114 5.672477397061427 2.261142579093099 0.0718502491730827 0.6318401172455763 -0.6818318757826709
Ni 2.716779629451528 7.104503126026962 8.032511229258555 -0.3964795340892526 -0.6367581233724839 1.396637635388201
Ni 8.360994702429739 8.528742580072883 3.65473840664289 0.4831275103968002 -1.2813064322133483 -0.3187851674305671
Ni 6.392096048381967 0.8724808398048668 0.5012572058874396 1.9432950480178468 -0.20603715160185804 0.05339152824726289
Ni 6.97979295606449 5.963090839061087 7.092762535773174 1.130344367208763 -0.2959136621490323 -0.06967303901610582
Ni 0.8577230680197284 1.632642810019332 5.465914938944011 1.4130410164468892 0.10781278331062077 -0.6020780554917954
Ni 8.674716696065822 4.35924797686942 6.62615054552805 -0.2111431053698557 0.8167258315807999 -0.20358380496535908
P 0.7520670251105385 8.59997772621244 5.632852673220519 -0.7381855719820513 1.963359937088522 2.05557589440215
P 6.801524337904964 7.225551892902234 8.865667672969415 1.3184686430859425 0.39106504794190067 -0.43296400216853176
P 8.650653398814256 3.9802695839070537 0.32115325149686197 -0.5056259486096325 -1.2355377106186656 0.8949902118103426
P 7.375326452605938 2.813014279707986 5.831102355923757 -0.26976245767496126 -1.3121694403407917 -0.3779809610644329
P 3.200474150707788 6.0719225698124895 10.023555346890195 0.8221122927036939 1.6453116478239793 0.44615170450339936
P 1.9714940790209765 3.175678572838781 11.924015425207038 -0.6942441334040946 0.23489649903571158 0.8883153708933281
P 5.2936843915971465 6.947934114518405 6.01944863847924 -1.513501987378129 -1.2816447893893734 1.4809335665238046
P 2.928844388512137 0.4346567472000335 10.101129818526804 0.02777228501726185 0.19265558808862948 -1.935571968341976
Ni 8.706223301365544 8.813071385887426 12.810216793745251 -0.462322657836307 0.5941595719756669 0.8621464258074442
Ni 2.944759905222823 2.179730586246109 3.690581225522843 -0.42452975535824955 1.5981720140236992 0.49500574989162494
Ni 5.549769412078283 1.1544635668311316 10.013543495056059 -2.091563111130036 0.1982773051507811 0.03331455499172972
Ni 5.509966716239213 8.364971264263685 4.513494083026957 -1.25075452756842 1.8709514041481132 -2.610237151172879
Ni 7.733819527029797 4.422743194963885 4.302858661576591 -1.1217936494252745 -1.1157906377643043 0.799772748666229
Ni 7.019604921278464 5.420165012166341 0.8318439002244091 -0.5629792897181207 0.7232693169918512 -0.46685319871680886
Ni 1.2188208367916966 5.137402730710624 10.538803747258187 1.8028580509143017 0.3566631734232632 0.49537958829127593
Ni 8.208216865257043 2.027277177195063 13.244594532760667 2.512263208329551 -1.6742928655476779 -0.020710493074474007
Ni 0.2870113629118483 1.1725481172694237 9.093207653432755 -1.4449589482014082 -0.9038641172612046 0.9777056858327031
Ni 3.631796703754744 4.351767591321648 4.370569591377533 -0.3346429603984301 -0.5154493624579575 -0.0740418575077628
Ni 3.73309243270895 2.434499355490835 8.272641801654409 -0.19001506514198888 -1.3333129071876262 -0.0031722270803945366
Ni 0.895248278444812 6.397527902075888 6.220778534463177 -0.23153015366663995 0.8572764993096526 0.9619170555398788
Ni 3.3718185458138006 5.7558368855758095 6.197619928202271 -0.3654699730816158 -1.2429990519927174 1.3821121880785165
Ni 4.899411530042683 5.738206534507828 8.101090699488031 -0.8718238009962083 0.5410089560946166 0.9693028064809887
Ni 9.064595873915648 3.304013068388835 11.129035828977036 -0.7722773714594378 -0.5363974254645343 1.4423096835040194
Ni 2.360826363751447 4.4481134740769575 1.0120813336136087 1.0552578704865698 -0.49757608172196244 -0.2039321894437133
Ni 1.4294395733672347 8.198864065978603 9.770157518193816 0.9225462670517401 -0.4475061616487648 -0.019085041655909067
Ni 1.2708961850040625 4.496138105456144 4.9286619694906975 -0.6467489160366088 -1.220424252015995 -0.04900239804063173
Ni 2.225252486401134 0.27451161085339776 7.76030954663131 -0.5297007301706489 0.2527733793161324 1.2747963990089721
Ni 4.287706941358021 -0.1518453380573242 0.177359292481414 -1.6222321402966966 1.478173487280164 -0.6622092164557369
Ni 7.188363160786177 2.768206121420593 8.025891041701904 1.7536044560948123 -0.11868083637337624 1.0732000567872872
Ni 3.427592374612982 7.993287869351004 11.63087978629592 0.18827442830179833 0.4734573342968878 -0.7324304146658289
Ni 3.795771945811837 8.321534973462128 2.2284198318059336 -0.15754126088399964 -0.5762744641651302 1.606979327902684
Ni 5.63434318870513 4.105860344485434 6.069129707153825 -0.3642337866816695 0.4422549405521545 0.7323982758763128
P 3.3613348827970353 9.48841023329012 4.41090342239862 0.4930265146780671 -0.9244681666648015 -1.3476792032116274
P 1.939987473721256 5.385321431901072 3.0909342397136954 0.24971813742957638 0.43119328342135416 -1.0767317240896295
P 2.6069653449602685 7.6444534835774265 0.13044791302823466 0.53287784234705 1.1196069261866008 0.3259099514008065
P 5.410348744142685 3.6747880645608944 8.444598902441596 -0.4059481357013202 0.9614432012272539 0.7939075481347037
P 2.661181918775528 3.6612918547002313 6.539811879919426 -0.5391672749001876 -0.8203264044478646 -0.5983209024422083
P 5.545950429617712 4.718593833784475 3.5126546472972855 1.181698810421339 -1.5643715205344866 0.19972046535521087
P 9.134106916323004 0.3258861943229983 1.4184219943559822 0.07583160241833392 -0.14043442600038394 0.16778145055476912
P 7.475741590944235 1.8527811946215875 10.238207188486594 2.0386536647255147 0.4079654232416651 -0.18604682452286023
Ni 7.268469098709151 0.20343775183717577 8.631168245827924 -0.6462408660519386 -0.9533537393509001 0.4998944454424939
Ni 0.6948823974509218 2.890052054537635 7.719962738485357 1.1248473486499335 -0.18177673639259662 -0.6440204613618522
Ni 1.7703301048478257 0.5226657541664143 2.8116646587219196 -1.3681991775418503 -1.2707615668179664 -0.6515085422087811
Ni 2.3792446116862944 4.475662056292542 8.574716825723238 -1.2399543516291225 2.10957394588516 -3.3498229459365665
Ni 7.116961165898342 2.7119595545012913 2.396849935442034 1.5153354410424418 1.1877200769147545 0.06231711287166687
Ni 5.830724165427662 1.2088562587695726 6.8554674651605465 -0.35335930586101083 0.684999217767059 -1.0171533503053642
Ni 3.3501745554122566 1.4951594414387324 6.172480456524314 0.5643666569839506 0.8855786886884555 -0.9102255407028581
Ni 5.1636257923148925 7.676182553874852 9.990521148606245 -0.9142308052075093 0.3932209179426389 0.29053774254909964
Ni 5.222338012958739 1.5072559756888457 2.271887638482165 -1.3998348021692602 -1.5137565265910962 1.5667461914142502
Ni 3.347829403561468 8.214863007063427 6.132025196691981 -0.8416444491993506 0.1701638347440166 -1.2831288301340675
Ni 6.531220096320628 6.59768151438447 3.0180954917156946 -0.8009230602205883 0.9608009396575647 0.4622604371398039
Ni 0.7716708260956457 3.4643454461085375 2.411461251103684 -0.30629346272145963 0.20424740669128696 -0.19070797744395543
Ni 8.409167643807393 0.8378949481619371 6.7243725497639915 -0.24648677497647226 1.1684368032051102 -0.5784534740943199
Ni 8.013532184141999 7.789296735832042 1.2911451344825091 -1.1922778714887659 -0.5542915321361357 0.3550883727369755
Ni 4.916995534236144 5.817385534940372 11.531883789255467 0.8832657242845626 0.04353340450626051 0.21586545054618952
Ni 5.933502994366556 9.082504306230758 11.93298261848946 0.6013301215821772 -0.8867408273173568 -0.7489944896720971
Ni 8.523625885125709 6.101844112003575 11.074673725975778 -1.0198152134082437 -0.3123298987235266 -0.45044338990021776
Ni 5.00191227773445 3.624538783204676 1.151286025113937 -0.37773696337442686 -0.9685934391187899 2.7641019916465557
Ni 8.481830273682213 4.637217991499612 9.412757303071173 -0.058661261286634465 -0.014194032112194912 -3.6981578019997925
Ni 3.875470031239021 4.0270706577988715 10.086708525050692 2.6716003847717085 -0.33101564805848804 1.925035844697343
Ni 0.6775106619427704 1.1946184989165656 11.693544468398956 0.8749960280766027 -0.6098574423268981 -0.7635975842972526
Ni 3.1790897028035645 1.1563452499367048 12.042560533920659 0.2409303639346173 1.382081334840581 0.42192368519397017
Ni 2.7482491572516317 5.898131059731742 12.536197386699271 0.5115957930398222 -2.437072324819009 0.14954075917702633
Ni 8.608153314878034 8.423757639906766 10.507654939829772 -1.481146710975875 0.5341448819849317 -0.3066058517555558
P 8.504160197826677 6.436375852299816 4.741333464299707 -0.43755779218680124 0.21471513899183023 -0.3309372294120687
P 0.595488744227078 6.217016095189521 8.503139639649712 -0.1862874797787566 -0.32460794475993127 -0.04642615267302327
P 8.949498045728935 2.2484908092862175 3.7448070687130066 -1.0217329992562467 -0.37699468589176366 0.12971344003845403
P 3.3135790632900743 2.07920421540896 1.5829450564699195 -1.4629715827287448 0.35527272083363975 -0.7619831886222812
P 4.706525107659075 5.428127405209135 13.744661550910392 0.19411906000803342 1.3507586134678993 -1.0226524257467227
P 7.630317686848367 6.909818444911918 12.6487461367873 -0.625335226247523 1.313409740505796 2.0913167994471857
P 6.052892543133959 8.709263656334155 2.1217858698443397 -0.199702724743398 -0.7125843264741792 1.4673177755125826
P 5.341152860482075 1.798629506430658 12.5005306859425 -0.8554055075391848 0.7405077923573247 -0.8988934035194907
