# total energy = -340894.2662609126 ev
CRYSTAL
PRIMVEC
9.04895532450324 0.00000000000000 0.00000000000000
0.00000000000000 9.04895532450324 0.00000000000000
0.00000000000000 0.00000000000000 13.24406079983889
PRIMCOORD
 96 1
Ni 6.392914872146629 1.8786626243610707 11.408208670606934 1.3331113326997814 0.5601037679425386 0.5224651316541582
Ni 4.64794151093785 0.5565206946023701 5.970568464691742 -0.4448867217480467 -1.0049688924240305 0.3390212919717839
Ni 2.8498236362260645 1.907212077809391 4.620918616220664 0.006634217487065995 -1.9981544190598879 0.6231636725175009
Ni 3.547489028115773 4.296615827853531 4.721242572002229 -0.8118345649267696 0.9597658135248308 0.16047206137754944
Ni 5.14841207254363 4.481712205123067 2.6279658787239453 -0.3421133006335463 0.13980296306397214 0.05254563530719983
Ni 7.171134062640757 5.905882008915096 2.650957463928855 0.7023479934581517 0.46872624736980567 -0.6008171865015007
Ni 5.204515594375511 4.768736013023943 11.512386576380141 -0.6940721266026046 -0.585203905444276 -0.6502931817444413
Ni 5.634467648620672 7.68773891125077 12.60827929071011 -0.18962811411621536 1.2241086428461176 -1.1140875390302685
Ni 1.6321781354612959 6.521319545500562 0.29117184893438175 0.8173853195416696 -0.6394228146888407 -0.3384960155959332
Ni 2.7805810315393624 1.6311917993516707 0.4777251079805201 0.259024759542483 -0.6890008827272843 -0.2846208628440324
Ni 0.5682354719190722 -0.06399059112682733 4.672729313736893 -0.18174768292687407 0.3353613266216934 -0.28673610941482236
Ni 8.705818755486458 2.214351712973537 1.153686580980911 0.1407180186790738 -0.03907819694838431 1.086300084504355
Ni 6.974943666376722 0.6228377720941936 4.940379308695502 -0.6776461198360975 -0.3195235882584884 0.16523117332908963
Ni 0.7005194323390267 7.400986572003919 2.4320596196511235 -0.9833397441900291 0.6809358463309628 0.642190607241965
Ni 7.651443552207597 3.7627093770269755 3.8934758276709287 -0.07978287375659808 0.33730533772194166 -0.33083541372688186
Ni 7.529011189242218 3.9057462108328695 12.540324352338999 0.45983125887302095 -1.0453825203543865 -0.5382856436261826
Ni 7.831110556396628 8.599068231768603 7.291411869388689 -0.6471965450969885 0.6508647379771952 -0.5503700855945425
Ni 7.016161657012887 0.5488725177229659 0.5583241513606111 -0.4342755218911037 0.28167874949657296 -1.0922678720520156
Ni 1.7035291466942606 6.693421623197424 9.127302797517057 1.552913913516848 -0.5648803633955756 0.11244513987630957
Ni 9.066600596685989 4.663722888691849 1.3427753572556451 0.26502365743839523 0.7612337120507664 0.5958642133715996
Ni 6.508949623832146 1.9727808067116184 7.202344813794038 -1.2996625661230325 -0.6926719038209684 -0.33424521073937924
Ni 3.357623851490527 4.456990459696502 0.5092589068320909 0.24253216120409843 0.3913481263999583 -0.5933064799467525
Ni 5.91252394198358 5.682463306652332 4.825592407922987 0.08403573549568108 -1.0960512503538478 0.5011866818913562
Ni 5.106243941618378 2.7296987568199 9.516294756347376 0.04639889897951364 1.4112798107814082 -0.6951933846912414
P 0.015274636266486301 5.47747732599788 12.437709201117462 1.2883890500917423 -0.46768700747201386 -0.07912955644331533
P 3.8895938259183684 6.3350558530187175 12.43650388029359 0.12787458705750235 -1.2680385114598482 1.3196973732867208
P 2.3754774080926455 8.369550533745405 1.4172600216515743 -0.2486819828555782 1.2508650850043554 0.16653112308743576
P 6.277015854788123 7.646258500915715 5.941166599669783 0.26056536455672547 0.37217026791992674 -1.2069167044478633
P 4.847697195524748 1.148049986827834 12.665520266202355 -0.27037412311703113 -1.1899175987867057 1.3327094692756727
P 4.023798879513308 6.41015313167723 8.176472073152015 -0.5943768301927957 -1.4094869805470436 -0.42740759112667687
P 4.740810937479881 0.8755434176487136 3.7926225080140155 1.043182170268958 1.1598647452653832 0.4180348916625253
P 0.17313818305972492 5.620025516226529 3.6262764706780017 0.4500986049662893 -0.3245063861850605 -0.5747973653989713
Ni 1.5423220109789446 1.1711248224199786 2.574314623733425 -0.6833323715875973 0.007686827121296438 0.09319451917681369
Ni 1.9889331916261195 6.449253666811998 5.032583637035171 -0.6667824376487161 0.17789128529526138 -1.7833996850793734
Ni 6.114460424757816 5.7118905087486675 9.11384700123254 -0.8553779967353591 0.7911906634241729 0.28454964328646476
Ni 8.612668811335267 2.389856197800848 10.11301905371537 0.3276847839130421 0.19340146511571854 0.7067512647321699
Ni 2.4232739891113537 5.050040881280021 7.033179122038216 0.5153100086666158 0.6511863829826721 -0.7445583082776144
Ni 0.5808913405697284 9.026377991114584 9.084975404981444 0.31247028095613283 0.5331748047621786 0.8137631494080502
Ni 1.7029590625208075 1.1341507917417422 11.537669357025024 -1.3264490901882575 1.6148882983371158 -0.18196519825431887
Ni 4.145199661593391 6.838747842652265 1.3269089193233838 -0.29332044750055936 0.6876932196594544 0.7467643147899978
Ni 5.458275443203163 8.041616399682926 7.906359857501395 0.3705525298108457 0.14592398836004547 1.1300810862450472
Ni 5.231363844258607 2.8137273541958434 4.9508281371889336 1.1106044655776743 -0.5206836142737032 0.09003231939874817
Ni 0.8168274624695965 7.57852707173642 6.973872270088837 0.24495953969866843 -0.6784557602215865 -0.7521404915002466
Ni 5.023898449897391 4.466519009452788 7.206808663361726 0.411074401184292 0.3095204542991895 -0.30119599359389415
Ni 8.365668531992844 7.050828204131908 9.233348407629961 -0.9318963408080725 -0.3786612749609091 0.01737140139891202
Ni 4.376337122585606 0.6654013423588095 10.441563992249407 0.12813452558710836 -1.9272426225406745 0.9744182733306833
Ni 8.06169603112566 7.175966204682406 4.632295867510862 -0.23783835527285493 0.14662332841991524 0.6913261884263513
Ni 7.32201634054798 6.032766457806489 7.056170707243125 -0.10629608955577823 0.08786102277904224 -0.26331361672582393
Ni 2.151832481951526 5.556538047005161 2.3696408320311027 -0.09629064160363417 -1.3431859433269642 1.1449999123384087
Ni 2.4609357403797874 5.169387550544647 11.316228756354592 -0.4870651548883096 0.03848710033160468 1.174374508845784
Ni 1.1327210568305426 3.4578772254220445 3.8118524425696494 -0.30733835904620616 0.35229512626255455 -0.5742571766247851
Ni 3.7870148705173676 2.5404760560091804 2.5241852220811265 -0.3734967000408342 0.45470165095593945 -0.109816701114527
Ni 1.1768256641545083 3.360401880716718 8.203424386019153 -0.42073969218819796 -0.2545196725832778 0.02736039429082385
Ni 3.547887182141676 2.5775315272836243 7.161977424940485 0.3393879312825832 0.836780693349146 -1.119596898884272
Ni 4.059858965722993 6.8918380624244655 5.9875334457772915 0.6992444148321635 0.6825121896791472 0.18783117011679262
Ni 0.9437155309430428 7.195566241503028 11.338412269866021 -0.43538726689804375 -0.0169440840535063 -0.16877081105123193
P 0.4354257672058221 5.591838020983576 7.761601912428982 -1.1762786678470323 -0.4714693573325816 1.4379575771829107
P 8.523681386545796 1.5535427153453207 8.007398680738559 -0.12952832061084144 0.3735985157260211 0.17482241656195052
P 1.9494254535103144 3.2116732541314286 10.500301664920844 -0.5936610350726936 -0.20972642752798723 -0.6068335678989097
P 3.889286161443806 6.084399795802088 3.512192673719412 0.7217320544117184 0.5792536013981121 1.382677059443051
P 6.803022567782544 3.985024106763371 10.194337489028628 1.25477316180951 -0.6945513802318684 0.4957464847123913
P 6.359976675458234 7.7149038745635625 10.200707953443088 0.012659340635223358 -0.3151727674889604 0.4140044303468934
P 2.4194553300447326 8.595747265234362 5.685820469007111 0.6621061152189694 -0.7193291013971805 0.27631234297833707
P 7.033825217434795 3.882843305388274 1.5515419913651547 -0.2985621555154729 0.47289451981488234 -0.1498444064603742
Ni 5.295032292582657 3.1688535984365154 0.313006072777631 0.44667183867292753 -1.1939447176682279 0.40353721226698247
Ni 1.322613380321191 0.9483757428371427 6.891785578484687 0.054951159424898914 1.7632607482376537 0.008224187682005191
Ni 6.951280648700857 0.572845914559934 9.473847012708479 -0.4422901646654641 0.10311666338653208 -0.9985030821940288
Ni 2.650239881786715 1.673296587590984 9.072763840027877 -0.8101512636870758 -0.6437679790314138 1.4497854230557743
Ni 6.242593629457724 2.1978283208985343 2.5969876857176124 0.9670646611790894 -0.9337899582863596 0.2697267193410194
Ni 3.9572438145014557 6.946439457704074 10.384032545297353 0.8049218969673363 1.0238539022539916 -0.7393924478059588
Ni 8.128694494939086 7.125255860110492 0.2617184048681576 -1.545213973769429 -1.463271887577983 1.0995338095858096
Ni 7.801538571018147 3.762600789565365 8.084982612267943 0.003243446637962156 0.9732893019325625 0.5264410855827707
Ni 2.94987793314463 8.375378060851814 12.5264179180888 1.4871255542671291 0.06944755326886104 -0.045949213036604736
Ni 0.283589729427457 4.84800485999931 10.190801157362193 -0.43366077112524026 -0.2660898939193804 -0.02729226005704977
Ni 8.538123518939939 2.409908682378178 5.80416994341595 0.9846921444528655 0.15943976345829317 0.7239640290660306
Ni 3.7744639697462676 2.736594060632141 11.717709178165585 -0.7198505211182892 0.9500719832758349 -0.8219189457459651
Ni 1.0727264842909665 3.399439073165546 12.648488322848811 -0.05668356873497334 0.006535230015356486 -0.5362300466487345
Ni 2.9411728383055546 8.482336710537753 8.02127887301887 1.054616380247829 -0.26035299143560325 -0.17121387327508578
Ni 5.581612701681959 7.698380482488559 3.6065162673515054 -0.4807464117591333 0.8728686973209546 -0.02394545507200392
Ni 3.1283685731662194 8.431092477612925 3.5228405792257953 -0.2954212958936461 -0.7011876546014633 0.32345480499209456
Ni 3.354891067040006 4.586327175429257 9.246976134062027 0.8210136603228763 -0.5774121773139991 -0.3909038397736881
Ni 7.340331425739548 6.066437619860753 11.348888245224854 -0.7162736024003084 0.0038206592976708395 -0.6031867151749418
Ni 0.4636965128360096 -0.29140078749927634 0.2608614688169513 1.6961680683542146 2.7481950906083124 0.21231681396298274
Ni 4.864084853272738 0.41899648426421515 1.7078083975772116 -0.8717050160301567 -1.2004390671433196 -1.1767813185150635
Ni 6.048620227201563 5.523925612701597 0.36303684081896753 -0.0076284630795352484 0.5585513358537543 0.8527541859592668
Ni 8.098977726278457 -0.49222515368752107 11.543363864490962 -0.9376232159895207 1.0051601824992302 -0.7776841442973058
Ni 9.051579331163259 4.994398856159982 5.699541399677059 0.28400148409247866 -0.9591461776629611 0.08379379468820407
Ni 7.817202312355402 8.828513538150728 2.803264047374197 0.02045852496466799 0.41466777496250523 -0.7926057986041446
P 8.563931138982605 1.69591897542642 3.7144024349386995 0.14384653700572647 -0.46009325428515596 -0.8776722893571852
P 1.8650077510636018 3.348665385907694 1.5929165289251401 -0.3837147782244166 -0.6984751407663068 0.24931293157135775
P 4.650402826734346 1.0553705883436202 8.268200426451626 0.6187609154641149 -0.2700555634353478 -0.6597075330798058
P 8.5466657325866 1.5710252966645455 12.326962658812356 -0.12424984582072149 -0.34236655429493296 -0.18832045104838535
P 6.3071669732951925 7.6766539412114065 1.478699712326078 0.6273211463293002 -0.4498944593752833 0.11671445667562481
P 1.8142883575365545 3.1921094131313437 5.957403139867031 -0.6231870695562687 0.3377876766749989 0.25755228876201447
P 6.885377108458665 3.9415076815231265 6.020630904076048 -0.6256077631826193 0.48071298741803664 -0.005982699945996148
P 2.3568003646957094 8.586363498760223 10.366099326012446 0.1876491360129736 -0.3095569639640798 -1.588520349866548
