# total energy = -381168.1274216328 ev
CRYSTAL
PRIMVEC
9.27393833759061 0.00000000000000 0.00000000000000

0.00000000000000 9.27393833759061 0.00000000000000

0.00000000000000 0.00000000000000 13.57334618111382

PRIMCOORD
 96 1
Ni 1.9368342398713123 2.848054343932159 0.2787393512016938 -0.5421430696990599 0.022052866034981373 0.07531892444797351
Ni 6.885231633871584 8.495372841197796 4.122455791678672 -0.5219951339962752 0.22098297427841296 1.4786583973363825
Ni 5.47715099920534 6.143019785554965 0.9848700142791502 -0.1046842649839681 -0.589182944696682 -0.709034661449708
Ni 4.410267836942843 6.20531283065121 3.202359601052154 0.24102112387621075 -0.09449395471452758 -0.12803990899077303
Ni 7.13202041205473 2.051664146731773 12.57725329702637 0.12010651307630929 1.3721342509301981 -0.1266725963296012
Ni 2.6206388233351467 9.23837297428934 12.994320860532156 0.8305740503178018 0.471424105916943 -0.9221145788309603
Ni 8.760060320741035 0.27695504542880145 9.18508399611046 -0.9222017392281279 0.15265719331882097 0.4731549725651206
Ni 2.9566892598555508 2.603778803090249 6.828940681791013 -1.2887688020286643 -0.32921921827969747 -0.7345415474715608
Ni -0.06835078174309206 8.561635131984259 4.15598200685322 1.4134763042120948 -1.369426365080732 -1.0062086783684026
Ni 1.9123232203403644 8.580294296303695 5.399572648626345 1.772837079072179 -0.4445007991635377 -0.1373187631895377
Ni 1.5764026189593596 9.0153347526778 1.5994149700240945 -1.0889182388534924 0.5554433863523919 -0.617992926949839
Ni 5.984899133643251 1.3226212911256898 4.555486585573644 2.179327460430214 0.3109021651380645 0.7413703974679361
Ni 4.796694307550311 7.7760676210466855 12.299949551508897 0.4839602907107407 0.051394809532208256 1.8494266427024602
Ni 8.167149608795484 6.631988194472569 6.273084918630122 1.31838842466731 0.6164404948610545 2.876531704903898
Ni 8.095814473633906 6.45068269623949 10.247849529666281 1.2184154491160823 1.0467896851145584 0.4249925539272809
Ni 4.278466622575142 6.46394442833531 10.63991548229296 0.08628982163718042 -1.980417663901757 -3.185105993239734
Ni 7.065730299452681 6.94165427587926 2.441803902326071 -1.2175759839339226 1.0712259637800519 0.3434145359434731
Ni 4.444442300420536 3.254698000531858 0.20755445384427798 0.5375500510117387 0.9864227539907271 -0.3302407175656764
Ni 5.855286568768287 8.368876319668423 8.909558064608909 -1.0748381066113424 2.260729100737158 -2.6798960491215977
Ni 1.3851369107466205 7.964727352532903 7.407490699925111 1.7723567970016507 -1.2328802183911605 2.405304031268477
Ni 4.148631483175494 6.640687148812346 8.16963409692728 -1.9524862275988117 1.269763207460439 -1.2282252361176524
Ni 8.264637250607562 6.690414007202412 0.14910081929885052 -0.7660632722289259 -0.6425263933148289 -1.537460040855623
Ni 0.8757593453092442 2.128183413530808 11.834600936629649 -1.2104771681056121 -0.3578134849776225 0.9287829919900714
Ni 6.18394567628144 4.823254867496067 7.086196026997477 1.085943986716517 -1.302798797759169 -2.6791877102006634
P 6.8838219952152455 3.814157616204943 0.8180643189354518 -0.5527511842322094 -0.4338271214997754 -0.6591691440778326
Ni 2.7360622622614335 4.23197636873154 9.671036520218582 -0.29505928456853703 0.5774777404446119 -0.5731418320734193
P 5.434871113453697 3.6156396880628807 9.217021585615068 1.3182511277584974 -0.018930518355915783 -0.7317009926989722
Ni 3.926808147511195 0.1559143819357735 10.699624808115152 0.1297836311547571 0.5281159021820324 0.39196210583487334
P 0.4476084978679936 6.051161424429714 11.767045858812304 0.48562867955209915 0.5308636401304986 -0.2352777936345303
P 3.4331007560055036 1.777480154135301 12.27406506168187 -0.565835013999361 1.0747427186840588 0.36394248069349583
P 7.204227297437991 4.5435899772292245 4.632623496678681 0.031246102498475217 0.8530565476910341 -1.0798905814335855
Ni 0.3722234337509992 4.660107740901881 6.053101532369885 -0.9667890389201995 -0.5184657806867781 -0.3239762247132033
Ni 4.064850722508607 5.662212442542481 5.525383826098456 -0.728259828227907 0.3054732808130094 0.5207352934472451
Ni 3.893199394283743 1.0445515182857572 5.149578797287733 -1.7138397746023646 0.8460376931710396 0.6868334427623204
Ni 3.9433528538461213 5.59951134415098 12.699575618824044 -0.6107429302556449 -0.060244803723670436 1.818246874665546
Ni 8.805103840174185 6.22420384343386 4.1981543149179315 0.42534170973658364 -1.0045045511931023 -1.2025746254290837
Ni 2.7804473320590564 3.0267074957460753 2.56437198349475 -0.026617602587528353 0.3887119743286918 0.4764177024767924
Ni 3.7426926459039653 0.3197654004642769 7.388013574227458 0.03224729006947995 -0.7393399973014686 0.19173847559099882
Ni 4.523484078499337 8.222644856950305 4.460487141468774 -0.12621751107005358 -0.5338283791857773 1.0901084025068515
Ni 3.7688266046774084 2.121960600778154 9.025990508047101 -0.46371491019814326 -0.8321681342777991 0.49860272321426385
Ni 7.638572208422458 2.1991012214586023 2.825509399369263 -0.43603312801215877 0.4440775955831901 -0.038731612242242974
Ni 1.159520534224146 1.1631466441888074 7.707895826317195 0.5992269591962454 0.5313603772612591 -1.0250759475865507
Ni 5.7974728359813295 3.9255097961171983 2.992054497040309 0.10892607097945758 0.12020190100359297 -0.7640377571584648
Ni 8.677624281160787 2.490200877931142 0.6970375663502167 0.8494189509384468 -0.6351807515830351 0.8818557313109135
Ni 6.483688643462585 8.32399045719026 0.35940314112913674 0.8532293258234724 -0.27792133933666974 1.1008209038283492
Ni 4.106175392591809 4.2476771466603696 7.742467214363909 0.2525862030059908 1.2219918536134309 -0.32594311863158704
Ni 1.6681682406993257 5.300185704203619 2.9346117217944934 0.14302249844253434 -0.28604756798822994 -0.35348657546749446
Ni 8.463229370257853 1.2822611106494564 4.8221484866296125 -2.064771444858489 1.4673668835829634 -1.2543178194396463
Ni 8.090213014762664 5.031491883216047 2.1279070501626576 0.500392468124835 -1.9042129944147206 -0.4370721107996344
Ni 7.188266849230363 -0.0024622306793290467 11.510958102466583 0.6905893102603268 -0.9918994608345821 -0.5142221749190756
Ni 7.200860857752129 4.281007681731965 10.402355200339569 -0.4945282960345741 -1.354452260269403 -0.7370817973949112
Ni 9.132167830260427 9.169513980714884 6.328084011073665 -1.686028408817051 -1.1801720893641674 1.1262249457237508
Ni 8.727842658292866 4.9153265292074755 8.322591947260154 -0.8819714309531713 1.4621388024148043 -0.6845536455892081
Ni 2.3064563338650546 7.5813056380086845 3.370804928727699 0.21186892779228672 -0.6495354776428104 0.019207683276702404
Ni 9.231927587012 4.24416232395805 12.882436356548363 -1.5413601472409777 -0.4300709968914529 -1.1659083803563017
Ni 1.4980656602087292 5.438385936156017 0.29104679502292763 1.5338998343081904 -0.06258527893138899 1.7050995665158892
P 1.688478166076842 6.231001640375284 5.068137851311597 0.4894555094973571 -0.46679200646157026 0.3535271988974428
Ni 3.46540188390043 1.2134948564602852 1.1598089537123837 -0.4753913180948071 0.8770513679437347 -0.24086480080400452
P 3.0346830828806253 8.405109597499454 9.099381675380458 -1.1806554567584893 -1.3623020953311247 -0.31646706082035175
Ni 2.3996408681998878 7.303866492988693 11.505746149013541 0.09979454099183459 -0.6044100460590817 -0.3395339699421443
P 0.8128662763902016 3.3062425508735185 7.974992675090151 1.1909182721370781 0.4178181476660288 -0.062406330151363494
P 8.021993922946677 2.195196893338084 10.53913373751554 1.2212295215261098 -0.6561031035579991 0.4834216445984514
P 6.190057201771752 7.493045565032509 10.630576626194713 0.8175737814033919 -1.3098994133596926 2.9342167183201915
Ni 0.4387759988134061 4.113371968889961 10.320507128462031 -0.1637759289398018 -0.2341215685429 0.32739013549075874
Ni 2.2771414141763193 0.6203819726548115 3.537078299999859 0.9601463367927013 1.3867548290568505 -0.9015503815263636
Ni 4.523419160929637 8.880973931276223 2.1900322369715366 1.2153666349874293 -1.4630682562076094 0.5896344304118039
Ni 3.0866820562101847 7.180087235448185 1.1770223110152185 0.8379158353948537 -0.7523937451616333 -0.5168462428054841
Ni 2.1495598418391078 5.301178015626173 7.34038448073255 -0.3620851157697829 0.4267172499278715 -0.11106625725091193
Ni 4.745863850475349 3.3452301884475273 5.1957416811012775 0.17361219830393326 0.37314574445931864 0.09859794958057212
Ni 8.035070176271928 -0.13898573454576507 2.2840273135337648 -0.04871494870719997 0.9353855849082535 -1.5660702483931481
Ni 2.3154242324221586 3.8496211571381043 4.823369864333821 0.4154355063664652 0.2791068750043387 0.384853262704234
Ni 5.87235988959934 1.5901836916127796 1.3460222202147707 1.330613248868276 0.16629535292754585 -0.1706114638043965
Ni 7.593677072005765 3.076749668046111 5.973561743792102 -0.2238176155137307 -1.0605553714400833 0.4440572838682159
Ni 6.16404380419918 5.419188883401926 12.178399748790651 0.7812240391297642 0.4836034215919543 0.4673015991081371
Ni 8.709545177576045 9.39283042048228 -0.01600867268797665 0.19401055945462717 -0.11369392468174613 -0.5562671678052677
Ni 6.108975157216672 1.2857573854747182 9.733758948668699 0.042322414917294854 1.300035118971103 -0.10289580562497765
Ni 5.469184686009318 2.332905606548468 7.360092527499564 0.9335870982469341 -0.46610397925561015 -0.41900111223053643
Ni 4.521870413195369 3.2273491558111744 11.03374626542162 0.11587036350777465 0.3274353869063974 2.0283867355818677
Ni 7.137844445450657 0.5637089343068649 7.365440807848977 -1.0400829625183443 -0.7356471218309137 -0.9737467011849551
Ni 1.3624528571057961 6.566644023600432 9.370034152185259 -0.07383436948264703 -0.0772225692285896 0.5503474598867232
Ni 0.6868538544520201 8.831979714029911 11.179035495985238 -0.5690432365240136 0.3656154975205445 0.5293402615074367
Ni 0.0903958610192995 7.063921881439614 2.005041275567212 1.8405429670595852 0.5013352916540785 0.6179325060255487
Ni -0.026929662699192787 3.6100845988842813 3.907101028138034 0.38920922568008454 -0.3388603409138874 0.14254093082042546
Ni 2.3699828127855964 4.233738417051963 11.976333611767567 -0.8122870790831559 -0.8268240963570663 -0.5767825141498003
Ni 1.228462993245359 7.641094719702223 13.398765666306737 -2.6725318954470425 -0.752081356127537 -0.189137547633042
Ni 6.218658028193789 6.118147082421404 8.729439630507482 1.6202549619656674 -0.49055748431228413 2.428696184940172
Ni 1.5777380661074705 1.442792986578593 9.839183227073507 1.0452403383495676 -0.07870815263518058 0.5141360429631726
Ni 1.2798220648164487 1.5627699293223967 5.329615620730108 1.2568171888227324 1.5847194880632192 0.3706101225216585
P 5.393184759767881 8.28041222004462 6.553197740127893 0.3109988386169289 -0.26898906984404647 -0.3979316931547469
Ni 8.040949853299026 2.52638778606953 8.230687216442261 -0.1539319462661865 0.228119071102562 1.282816183989655
P 8.651341939370887 7.6587152029064605 8.120431216064079 -0.2973812478334943 -0.8091359350486839 0.6731212353825504
Ni 5.295196325275262 0.595874662699275 12.877128881528474 -1.8420920567142596 1.8377479208129512 -0.5094910879919935
P 3.6336682245623746 4.9240254835472514 1.6152557844247046 -0.843421081483799 0.16199004068397263 -0.5766048509213553
P 4.643720691521939 1.8739754845248253 3.063979454692303 -1.0967084243218725 0.23802398892109972 0.08841895216504127
P 0.46996518147876026 1.4491641823477044 2.5449885245762354 -0.6009490840936748 0.5977799423370738 -0.018349449041465172
Ni 6.340536128335945 6.463749675626211 5.168065466350536 -2.206669856998909 -0.12454269447079194 -1.1042728669326918
