# total energy = -340898.95682307036 ev
CRYSTAL
PRIMVEC
8.98610338288740 0.00000000000000 0.00000000000000

0.00000000000000 8.98610338288740 0.00000000000000

0.00000000000000 0.00000000000000 13.15207063010928

PRIMCOORD
 96 1
Ni 6.386908772210551 1.9223790788675952 11.171079546958316 0.02009779919113958 -0.074844041694084 0.5666371981856823
Ni 4.379053879993658 0.4884333475117466 6.073638837952994 0.11216103297698747 -0.9021612756374849 -1.2604781826140872
Ni 2.6959028397073292 1.7078987684154254 4.727695812157736 -0.14442015012100934 -0.30993723012163393 -0.07687804140497728
Ni 3.3165010968066984 4.411538642951786 4.8861127235450486 0.468760957262483 -0.12304065600396874 -0.35899413554928494
Ni 5.032424455352583 4.695787058412781 2.684258647220153 -0.26354681578255257 -0.6670143511538642 0.18533745716066144
Ni 7.0171491180109085 6.167575966046794 2.7318562384889247 1.012973765006378 -0.6270578653655846 -1.2001241070060622
Ni 5.168950320808415 4.38107575320682 11.46764521403389 -0.398887629310113 0.6268920292116816 0.18089304823606264
Ni 5.747754212065944 7.820677477333958 12.366905226253708 -1.293151247367076 -0.1413451107401114 -0.5114847213832545
Ni 1.7878211700059063 6.547777991152848 0.3662295332876329 0.6896711693214316 -0.474341536674054 0.20448523373370592
Ni 2.723085801795389 1.6083686897088632 0.2640925860515676 0.05505066111724068 -0.21890346604156496 0.38049498573553825
Ni 0.5265074666413696 0.08953573476132598 4.493483816365745 0.6360685535046272 -0.6996833021417951 1.1795642805768394
Ni 8.385058673004268 2.309122987081123 1.4104407812951085 1.0293766318444337 0.22441385433683286 0.2763493668638595
Ni 6.76013758125699 0.6856711232020752 4.816024713263385 -0.16683091371604172 0.6783925110838187 0.0013814537285589113
Ni 0.8791176619651467 7.309853456554503 2.527091702783734 -0.47341928197010075 0.5718390541015959 -0.2391969261832784
Ni 7.557717140281762 3.8383151217625824 3.6531187243195267 -0.11824914815259634 0.05064327607816439 0.576434129671446
Ni 7.483716580680051 3.730886258369936 12.575681158413811 0.4488868440463753 0.25570058026525644 -0.13927614402622465
Ni 8.007309854063518 8.877074779849737 6.7799312707086825 0.09373110840657406 -0.3427643039539839 -0.1966667661305516
Ni 6.8576727450599 0.5963025299597039 0.301816247157576 -0.3445093116695486 1.0068583961372595 0.08516187868032431
Ni 2.070532961824899 6.303275110011023 9.24796989790303 -0.5300321453681388 0.644352133669658 -0.19225243911293988
Ni -0.10581945231497006 4.848964173041894 1.509516163181289 0.2528916500615515 -0.4531947273931099 0.5023069115387284
Ni 6.279219311825986 1.9352202202969628 6.945740150563313 0.5491475260413511 0.010422480884904632 -0.09204934982877695
Ni 3.2460320757506436 4.311226773269468 0.618409242367253 0.8856463087015973 0.25234966151515253 -1.1174549128406046
Ni 5.986263362393642 5.709356593222215 4.794415830971432 -0.4123118731358189 -0.7742949161100988 1.0514220416802473
Ni 5.453378458332802 2.9190906841308477 9.043139763644701 0.04579288996439856 -0.619066876740308 0.4073645564328726
P 0.17666858553509915 5.374103056170533 12.55521620705535 0.12121517275945576 0.5810616011411284 -1.4192659143106783
P 4.073670149877748 6.049291890025263 12.59510641763555 -0.02561590079589137 0.39642991179823983 -0.2694467262067553
P 2.481045112922036 8.451376114395966 1.3512699877542 -0.5665713779447532 0.21271584917361433 0.19038067601152375
P 6.268966168109465 7.774479920939011 5.887498001066813 -0.20857225931888596 -0.38992630635176717 0.5076491496872483
P 4.736062772818958 1.0002880743247557 12.408425515948878 0.3199349647642941 -0.5584078682973544 0.3136524741896921
P 4.094697631294628 6.056624550211661 8.25026712546017 -1.0324097622438024 0.12986513512496992 -0.4182976584056086
P 4.53729915681043 1.071134511713934 3.7436447276501434 1.1608955005227428 -0.21703633092583913 0.24238509410327289
P 0.09228727955185952 5.625498278443446 3.658708979101339 0.34198963057148846 -0.93992512464982 -0.4090604560780568
Ni 1.495035956533785 1.1053266342742871 2.570190850805801 -0.2392036110514977 0.7665543529327314 -0.7927130136059702
Ni 1.8523863212795295 6.54634920074888 4.692132410253701 -0.437957084507749 -0.4168349578171531 0.8283842417553346
Ni 6.001225224171037 5.575328864447533 9.173056350219287 0.0860692209859421 0.22242073516620403 -0.2650730226190919
Ni 8.613440485059819 2.188861968362278 10.153371911639276 -0.07323555955638356 0.9082730449621778 -0.4798771217803026
Ni 2.4032164733700734 5.156980831386499 7.08082464507074 -0.23754987749815862 -0.022735493924302783 -0.45114530106324885
Ni 0.45448924139887475 8.950113826412299 8.811965969334354 1.452338528494931 0.7729206614703915 0.6473659807953174
Ni 1.3639556695987338 1.0701640125716165 11.347895504585395 0.6179978120458453 0.2006434913901125 0.1242444465040828
Ni 4.1252413959681205 6.756165723656024 1.5960038117474844 -0.057722808632765105 1.0512163534273444 0.004740600008778933
Ni 5.39039486121703 7.837885864903755 7.995235227234517 0.7054266323834754 0.21508306385421022 0.2080608669001062
Ni 5.2358338866997975 2.8896522101472164 4.8500236346055905 -0.010073067965285877 0.2392889716764524 -0.3487359481563865
Ni 0.7996589432982176 7.173480354852554 6.896459462170873 -0.8483187758957326 -0.05282100045577355 0.4635398180728597
Ni 5.006760144700186 4.545889871440574 6.921501035873615 0.46598288029671364 0.3646222803693398 0.12742592955585796
Ni 8.262407350842308 7.099857211583967 9.103113016198655 -0.4286707741098166 -1.1332132041161258 0.38336356553258494
Ni 4.636029472334897 0.31431411944586485 10.232205197525602 -0.07460647176198118 -0.3291814230632266 -0.33897809743867424
Ni 8.014912097345004 7.201157552614942 4.631672110907955 0.42551011699364777 0.7493385032750773 0.9753040183697462
Ni 7.310266817300305 6.103055745289019 7.0332405329567225 -0.288105221848207 -0.14040228721086787 -0.18650268111335622
Ni 2.3688895592621764 5.207644481056741 2.620523811879401 -0.6941178922388755 -0.18192920281006086 0.20359383226768807
Ni 2.497354890174872 5.199197544077311 11.37961824599474 -0.755908443183111 -1.0630118034003757 0.42410320934379225
Ni 1.0738123704584768 3.4045199773529946 3.8467440865356735 -0.6211366147851431 0.23604989591386444 -0.5554606127435724
Ni 3.7083760699300714 2.6698251683091305 2.5158330141225336 -0.3830303505628822 0.25147754332284433 0.15810073293189547
Ni 1.1070968965986996 3.243102606117352 8.157597936523603 0.04973773354475951 0.5485906250966165 0.16240810205799772
Ni 3.5561874266496147 2.739988661857419 7.0291374782494795 -0.0845250164272738 -0.3322726603940407 0.08300755134148285
Ni 4.073517386123865 6.9478482903669025 5.961360174679711 0.08518938948415007 -0.10243172150436552 0.2633460126256561
Ni 0.8011910738886355 7.228214709258627 11.335993410937252 -0.1385966014606968 -0.3687640704518553 -0.18733006211065803
P 0.3416830938695356 5.342948236481507 8.077133672911994 -0.2661973660315222 1.2352564319328212 -0.7423954962983408
P 8.476177759144079 1.777891526003491 7.874026174631279 -0.28192146163499837 -1.8776018195850954 0.8589654569763013
P 1.8677076271837088 3.139708503047858 10.328518251297444 -0.7962336251647191 0.3968407740834133 0.6714872993235532
P 3.921454548287782 6.278617242913622 3.844653020328106 0.3772929338584728 -0.33075596663919815 -0.3622689496458148
P 6.9603479598758256 3.9782557064228654 10.353270472478126 0.49251537936960343 -0.22937196967305656 0.03551207686368077
P 6.3771588502715275 7.7178854431768285 10.133314929364714 -0.6666050315305875 -0.26465059036969263 -0.05642671552916088
P 2.2387617992631035 8.429980202749132 5.903135617802562 0.36242784382118226 -0.06876312560732674 -1.7562040985011882
P 6.723249627745756 3.8369402479776324 1.5564424925432916 -0.014694368787381144 0.3901880446535861 0.2845483577348841
Ni 5.17065768041064 2.825931752571536 0.37001537855298816 0.04039768709075623 -0.034496748225288976 -0.026048617457935786
Ni 1.4784026795668432 1.157607782515058 6.8852142526644275 -0.3071313852417226 0.6015082990312545 -0.08035802953377773
Ni 7.000138424710843 0.4900391641481553 9.0155730949513 -0.6524817047553279 0.6519173476114257 0.1260550173502603
Ni 2.600542312871464 1.454149187112075 9.165533184645692 0.44581000489326444 -0.3018480253555963 -0.4540485907529729
Ni 6.318066235828194 1.8556752350396055 2.5674815407001645 -0.5176507409846505 0.12868654143583644 0.40898769385859235
Ni 4.1369413022949475 6.817172378074483 10.437074870637876 0.7055307620615076 0.3284599715161698 0.02915913806245946
Ni 8.127238386965086 7.104035749557834 0.3025818631476265 -0.037061166518355525 -0.14009529749341032 0.11771024492999083
Ni 7.565669841586862 3.705168031098522 8.194910034104442 0.610369091855994 0.9939337176557913 -0.19171739254507628
Ni 3.0953890422153587 8.323198338784698 12.2755372250561 0.5226957596077256 -0.18327671797689082 0.16285778800090664
Ni 0.27774966564873566 4.736008856199939 10.134012250970676 -0.5841494960378326 -0.2247766369928903 1.3216670954185818
Ni 8.461170966850837 2.342146916229427 5.770037052095618 0.49019752986970416 0.6919422247437954 -0.3100727272582337
Ni 3.7019779644733117 2.552646382977461 11.249742096884416 0.1035151843765314 0.03174309673955178 0.08424013819700331
Ni 1.0321438100610112 3.28883288514748 12.71894660124685 0.040694135285252495 0.752097296967137 -1.0581747870230485
Ni 2.9752268706313796 8.268697623061033 7.900514510944328 0.026493675415154374 -0.004492488553714843 1.184217720188451
Ni 5.651009825341959 7.928708409638968 3.736292298036771 -1.5782894161671592 0.08558071138529778 -1.0358928356963966
Ni 2.9971529623652198 8.36720328600626 3.633443651429673 0.7629928608337182 0.3288978303845368 -0.08077480535622217
Ni 3.5206294164074814 4.082153031269857 9.190337525224757 -0.6845659868843823 0.7110707180431303 0.2213483280376317
Ni 7.233795079326953 6.096262251292796 11.287817114624357 0.7608241353171735 -1.0466421037931006 0.48801723438893374
Ni 0.5656994570052918 8.939015988997836 0.3231896935464852 0.3720777082061205 0.5180065816621724 0.21178536693954494
Ni 4.456469158799819 0.4275273374487872 1.5615582810777486 0.6596599676713221 -0.8746232181182164 -0.20533498332851088
Ni 6.024301537110587 5.6557544878155115 0.4559980081210517 0.1379124309094786 -0.45363901401938006 -0.2861784371391394
Ni 7.987450566058686 8.7733392048598 11.26090822868297 0.04611993428651412 0.2559990853422817 0.07907170662218639
Ni 0.030273282968087588 4.863108299430856 5.779453589607049 0.2590245024321668 -0.3449451136553866 0.06222429604754444
Ni 7.937694512808575 8.865536623379963 2.4067237494371705 0.6110067254399929 0.014245197065104501 0.7313274114096373
P 8.3729274337253 1.6992271788567552 3.6752667728016557 -0.02232925962481961 -0.0030740109396334156 -1.3110993472050645
P 1.7195986747422534 3.179157495962431 1.6291733157671362 -0.1450467279614147 -0.4265629837381944 0.8212049503980761
P 4.609376690333844 1.1076720072015545 8.067137531746125 0.024373800858674154 -0.38451027754251843 1.702627193715997
P 8.52071288645265 1.6702739544442828 12.410569600165143 -0.7709342271679819 -0.6885218862083368 -0.22992912772810725
P 6.364434528183365 7.752041621324504 1.4511208703439176 -1.303602267497071 -0.038524124217127205 -0.20653645983577978
P 1.7443374167681802 3.261155687385091 5.960386979706443 -0.21439786486172754 0.08820400794075778 -0.09564529471015142
P 6.883957096831 3.9373060342789685 6.021965150286489 -0.21025453211731532 0.8517524841676299 -0.9330911324471219
P 2.262071750885063 8.434221643445186 10.179439698323987 0.4203565978171664 -0.6270311258927072 -0.582962417708267
