# total energy = -381167.47603117203 ev
CRYSTAL
PRIMVEC
9.25183109280196 0.00000000000000 0.00000000000000
0.00000000000000 9.25183109280196 0.00000000000000
0.00000000000000 0.00000000000000 13.54098999373071
PRIMCOORD
 96 1
Ni 3.9488387913277276 6.12615546876156 0.5263653515180687 -0.9673040308834051 1.7798595331365992 -1.853863852538207
Ni 8.35345978958716 5.400090268299026 8.128764268580593 -0.14490685994944075 1.0357509108018936 -0.4649330988759606
Ni 3.3077979186035495 5.057272919004463 11.735948665782061 0.25477369757561286 0.1457272989682071 0.8044159038651952
Ni 8.683888937049117 8.031163001655347 13.049275695195377 0.11344272790288848 -0.8847086273786764 0.6319172503404149
Ni 9.47183963568813 2.71391362895689 1.5190146634407262 -0.8231425337404211 0.5220714957601653 -0.6902206140669984
Ni 2.4359053564639788 1.848414082102108 1.283939513131693 0.12786635952738623 0.8157853220444016 -1.333044226907272
Ni 3.33659886879392 8.669955679424094 7.742060858499642 1.3790296924984506 0.23834434837499596 1.4692095932186569
Ni 3.851093195837442 8.762501745840499 4.88385567182704 -2.7723909711282255 0.41784077337384806 3.318660404290833
Ni 4.107470687236526 1.2272738980574946 9.845274994799595 -0.45361613120124455 0.7599836416937492 -0.7509670400174357
Ni 5.193811442264818 5.774937456835177 10.410096507435972 0.34407479523529133 -0.5741170515024951 0.5597438134999585
Ni 4.711004636712467 2.4421595942823826 11.75523133214466 -0.7763235165043534 0.9880708311171111 0.08447873657037064
Ni -0.05542216897539137 0.21656408665953336 1.7849187653155643 2.974071131312969 0.6147155417501479 0.2474537668754319
Ni 7.742061783682751 4.899436680569605 10.380874598930902 -1.2550780946444384 0.22119946116459321 1.3008619857477726
Ni 7.942724748243927 4.950904616936142 2.024364480632606 -0.3262984450884767 -0.45162352625124796 -0.37471026073296115
Ni 5.09834179722324 8.446829268970781 1.2424200707387203 -0.259944700253591 0.950104379175667 -0.9937151738870823
Ni 0.2551581000611168 3.3500232757088657 12.126091906663133 -1.131172519537013 0.05664088842249601 -0.3733331778797764
Ni 3.115110032443948 0.5134645982429475 12.755626277057802 0.12332707689613599 0.047361520003099074 -1.4164492707974894
Ni 6.142410935990754 0.4225459289156792 8.947588327574655 -2.436220004121043 -1.519086680554758 -2.9732874590694087
Ni 2.197929757107506 7.556266511686924 6.094569717412405 -0.07622832363612032 -0.7431244040445654 -0.10277342111450041
Ni 5.523139621826789 4.942670487263983 6.142612625908567 2.8498253992573046 -0.386520880214644 0.16051268480749775
Ni 2.1049673582919457 7.246357925587718 12.242571534932242 0.10535532290906371 0.0757261871887212 0.22564387008919204
Ni 4.367484148254888 5.015204843027717 8.382698351388196 -1.000894722354657 2.0407701968478853 1.521704063572947
Ni 6.158296329976256 6.462792594886459 3.165572294770751 0.8119839460204403 0.2518030449830631 0.1400641871451588
Ni 1.2180775779517357 7.8415097160940235 8.400965166696858 -1.4994905035903852 2.3981172837120504 1.3328416239781626
P 8.30337962788447 7.674199602620637 8.215900789357324 -1.3445586553047748 0.23180011949857499 0.10678305649452578
Ni 1.3377130058064342 8.181357227607954 4.007848820400718 0.2865232220730678 1.2769301575225234 -0.40695523680959594
P 2.89715539557124 8.888918765885863 10.379845795313436 -1.2617529355614527 -1.478753785263666 0.6284694010011306
Ni 4.012482137411749 7.736001834317287 3.0219829510349445 -0.5898763712192809 -0.7620076141023135 -1.342643697670249
P 5.863875309125581 4.617403861551537 1.213359144094656 1.915227086137037 -0.13985592778909461 1.6284446968653117
P 8.824609287963195 0.7318494452614481 4.011964960053688 -0.6240455609018221 -1.2596027219876693 0.5396673544650578
P 0.5877225701391788 4.858349298688643 10.419764670927439 1.4539614088103345 -0.14140038945807906 -0.07969622758006274
Ni 7.018873902689927 2.7384217295204274 0.6929714006453307 -0.2868242982532544 1.383527066148172 2.695475134506777
Ni 2.3802833479369934 2.8826485244184936 12.309653786633277 1.3256926716382071 -0.6630687362425548 0.21896285852459063
Ni 2.00198522640341 4.102354424642477 2.466857357383312 0.15254715010351794 -0.6633638988854704 0.9459163092362485
Ni -0.06262934539630315 6.792490847692123 6.304481737516564 -1.191286196999458 -0.09430780684565047 -0.5553690814710306
Ni 4.11368791773056 3.6056606206205646 0.4749705046171612 -0.47396718405377075 -0.5433553448396062 -0.450549833571095
Ni 2.409176816438287 8.427946281711371 1.0517749888843015 1.243306041710175 2.3693713219276096 0.011154473954922726
Ni 4.879147414984162 7.9871150338248444 9.741049416812253 -0.8952946304246387 -0.42115158291463595 0.08754066332514601
Ni 4.561235994990105 2.940657505367296 7.959122693671943 -0.3849602205957434 -3.151116009447534 -0.8644879294564273
Ni 7.359702108299643 8.680835832788652 2.431542192920844 -2.2014942263352406 -0.7194298886411028 0.6859191584781671
Ni -0.07395728738573111 6.806470364472608 11.188459533514022 -0.5419108990835957 -2.356546659359116 -0.9472442840190525
Ni 1.738372803090138 4.731710234697063 0.2280474594113122 -0.5057138803377484 0.6612049435609387 -0.34325435621652495
Ni 7.428979819518882 1.880397662188234 2.8541288298933294 0.10965189340188858 0.1662094780819589 -0.4700261971281518
Ni 0.5448588366884931 8.888298893202677 11.118520316371683 1.1720252918873169 0.34200891384519805 -0.2678657548728806
Ni 4.089152061673746 3.8278340924713667 4.303854679917506 -0.343570344795047 -2.7067123979834933 -0.032490259318221464
Ni 2.3143733032353566 6.501493004345604 2.2290362636060803 -0.4905880804399035 -1.6604654727462824 1.2817144662850442
Ni 6.984549609337446 1.9171274316247162 7.472216401762588 0.2500390111041048 0.29120288693692425 0.02472964153619612
Ni 6.897989477637767 1.7668499391922772 5.184262627394441 0.5880490882025551 -1.1384428279461811 -2.0914746651812886
Ni 9.355174045614065 7.02508188135287 2.3606824185848194 -2.6079915496718113 -0.4121396092240128 1.4380210834309946
Ni 5.77790729461581 0.24454347424890616 11.390043980451992 -0.004448522689656854 0.8255282603637784 1.0306824951400508
Ni 5.962009481521744 7.501116346545647 5.492766785533834 -1.5673270036183846 -0.8581745856438897 0.07387165047848568
Ni 7.227252894382092 1.9840829332397847 9.791503352491072 1.12397625889889 2.5828027091110095 2.763683930272531
Ni 6.2347257066298525 6.52863787677045 8.103145023102869 0.05631770075512236 1.084630667221732 -0.021635833102220805
Ni 8.948593076431282 1.4366798430009058 6.122301155928502 2.3040316201795354 0.4463005713764379 0.32390012005962926
Ni 3.3652702933489973 4.817641241882466 6.299647655770831 -4.3469270909005395 -1.8918328755828127 -0.37576261325687543
Ni 0.5120694221142268 4.038868359687025 6.621517009106179 0.4634467441384212 -1.1110446384388866 -1.8236405348772915
P 4.196852627419361 6.589968265081392 6.910901333110198 0.780239820839624 3.0423377768998505 0.19172124919981817
Ni 7.574797929364826 3.7677619531889794 6.0767497655455 0.6806913344203245 0.6193378710135076 1.5639974250245194
P 1.446088955221788 0.27788522313938346 7.053569194469211 -0.317485217672221 0.6423320179158357 -0.5360498123171283
Ni 4.120117940339717 6.006575551893416 4.562298105199503 -0.44655871013383097 3.0736944368342614 -0.132102766206237
P 1.0048413749361074 7.00648570085732 0.5868704764955769 -0.332709233710827 -1.7962359176120937 -2.6027889224249496
P 1.8588779030675138 3.700177327059633 4.663245759430838 0.09863600190735916 -0.5135032944751801 0.13779750259816914
P 8.287873558973754 1.4516493057082678 11.855001228277942 0.27287812048580745 -0.7240735580607013 -0.6074457475616118
Ni 6.703571499063902 4.030661985508144 4.015093004145999 -1.990975127702629 -0.7599304198583106 -1.7532511865204514
Ni 4.252511643270715 5.207448641294887 2.4291589212314646 0.3150346992491994 -1.3422786010213463 1.3673640832350644
Ni 9.164410540321665 1.0748869881360086 8.627249227101975 0.07081332326813611 -2.0155314768857546 -1.02703847062956
Ni 6.617113137506238 3.969072545926616 8.464025647422064 0.1607001182279555 0.7204416177350689 -0.867258807333345
Ni 4.437076421731265 7.749592774191895 12.197344883820579 0.15242887935809876 -0.812837038049355 0.2726600909377304
Ni 7.45124897695808 8.929136475644148 6.407528632222746 0.3699064115864145 0.16878649478051577 2.367458421175613
Ni 6.7805189782586694 7.190560132269979 11.500444230510345 -0.194937956364903 -0.5116904096361575 0.7822383393268916
Ni 2.7740227755636475 1.964635584283743 6.37467815556327 -0.07089071347329082 0.28457149766333567 -0.5653675874446392
Ni 5.208216543275548 1.2059484273897134 0.0017698752879594633 0.16233688250043007 0.10184679553517298 1.3564533498598317
Ni 6.995901606087714 3.2322197104104453 12.197208881903522 -0.22985816528085573 0.15682803686705893 -2.972847286208196
Ni 1.3760896011773482 1.6288773821126143 3.445884273205648 1.1494664327501944 0.7780381852026148 0.3085583474962363
Ni 1.3056184037472007 5.766370261243695 7.827856788951097 2.2726988715045247 -1.2224112005390366 0.7047272923236058
Ni 8.223064482172102 5.105604484630706 13.08430682844331 0.1618126345658439 1.1691168599912702 0.185340542484455
Ni 1.2913613320339465 1.5840245049770814 10.475472721483582 1.1193945530654787 1.3326297650776726 0.041433327444122196
Ni 5.4545002869529196 0.16217257166782567 3.7284712769061445 2.698403878117798 1.4787735827580082 -1.205434463475382
Ni 9.040519270164502 3.788689595119791 3.9621068422972137 0.5174054577430638 -0.3907207772286045 -0.3426334348030744
Ni 0.7853453830034199 0.8117750888848304 13.221653036558022 -0.16280970837179057 1.2262835390102496 -0.4530587160358778
Ni 8.109248456074468 7.9008972198755805 4.53245354846192 0.5999509818464634 -0.598480310838208 -1.6186405662906962
Ni 5.101922255855965 0.5065766099947207 6.773433000825067 0.39183689311091874 -0.22891457042066385 -0.37050856394678766
Ni 2.5199489901065495 6.574230900393368 9.804583591289385 0.888542656412786 -0.18862872631742356 1.4429648005895148
Ni -0.14975476397572324 3.3033015286926855 8.9527341960282 0.6381753154349848 0.6021240782383823 0.1391596730530184
Ni 5.674980673713828 5.31170752587416 12.863344421282491 0.6490454253802693 0.43023091950808484 -2.569597009054013
Ni 1.3690582095471904 5.857482293840793 4.506454977909411 -0.061249076618468706 -0.5753480956961189 -0.09282865119696271
Ni 7.535496150884681 0.6007944822895078 0.20182591972947886 -1.0751078153329614 -0.1260691584176474 -0.44277173228757294
Ni 2.505025786554649 3.7064870758645903 9.775538392758177 -0.020905382694099483 0.17613470761547084 1.8328836507421142
P 2.274100082490518 3.753467874151356 7.772880558234355 0.25104971175680635 -1.275481598001455 0.06770228844298018
Ni 4.985663746349961 2.2816773321551227 2.5656252802092987 0.1897499844060603 0.6629244973552066 -0.6876034881591255
P 4.996294100275028 2.2365839074111893 5.597330980539154 -1.9111747704445343 1.2714362242874877 0.16101533547552915
Ni 7.636026547533754 8.928803409724823 10.228254542865889 2.873465664384064 -1.4234118181582518 0.25070415549192954
P 5.545621571381109 3.5860097313804915 10.212628200150974 -0.29000269598123607 0.35905918445926555 0.24828063365210143
P 3.4948329359657477 0.7116388202402906 2.606166804055814 0.5558028265743397 -1.589977651138365 1.218810884782288
P 7.447705525649724 5.733868578616399 4.9741202366960815 0.41992233849322524 1.169432077238844 0.4260850156605114
Ni 6.835363832973901 7.138888655619411 0.8242900408034021 0.7212803115862804 -1.6602723828988697 -1.102179988959405
