# total energy = -340894.2742674541 ev
CRYSTAL
PRIMVEC
9.05758176690777 0.00000000000000 0.00000000000000

0.00000000000000 9.05758176690777 0.00000000000000

0.00000000000000 0.00000000000000 13.25668647027023

PRIMCOORD
 96 1
Ni 6.503715079628922 1.854539869664854 11.482954910000783 -0.3741063086003751 1.0145382812800205 0.1202165562916123
Ni 4.565519384634521 0.38831030580885406 5.830436947341817 -0.7883151416485907 -0.9049241830946028 0.5045167747058538
Ni 2.6564256999025533 1.600909464632594 4.715641556589584 -0.10391807624190491 -0.42495218760764875 0.018615043998026003
Ni 3.420396492804882 4.115321339790458 4.708721564108881 -0.705557758644701 0.4424254046917478 0.43682888444057666
Ni 5.118493809947873 4.494227158436074 2.6602326015251183 -0.40802841526911665 0.2574345322372276 0.00991571645181518
Ni 7.257097559429232 6.056170906246698 2.7357030901991517 -0.3731241471927639 -1.1754145200745243 -0.8678805000777441
Ni 4.813724298179946 4.74067490111598 11.541934259526105 0.8916295228682257 -0.10804572525703328 -0.8427945036433937
Ni 5.550377424430704 8.153191297771372 12.550370090456475 0.7614897939256304 -0.7992096770739074 -0.14450345386343502
Ni 1.7296448744863013 6.485418764431251 0.40137496176980436 1.084446319125068 0.19833181253780038 -0.12699526977634257
Ni 2.82130086106255 1.7732209004348125 0.4008215435229838 -0.3385075855601589 -0.45395063172252786 0.3956079301175767
Ni 0.7061571541522246 -0.16555810282628605 4.58128591724075 -1.4030319689503192 0.6905330031010946 -0.21144649554288747
Ni 8.686818728400455 2.4490433074442066 1.4286469397719934 0.11490080050565374 -0.21326863635329077 -0.11029904006758423
Ni 6.696125289403234 0.6525824636756403 4.6696544023709645 0.6022603467059305 0.3541470918696288 -0.8659159201522054
Ni 0.80831037299498 7.272893982055339 2.6921152893943257 0.04045476558093678 -0.2982312545386154 -0.1464765184294058
Ni 7.457405980516597 3.634726050489275 3.8914740751705637 0.6525315841566568 0.3232768846533336 0.12015202160226403
Ni 7.701453464024533 4.001069003204609 12.55230569568308 -0.1558772429180154 -0.3173016409065052 -0.341544829724586
Ni 8.017200764911061 -0.11442624215604413 6.8374942143251145 1.527454592903479 -1.055716298180227 0.1247571244744432
Ni 6.93964743316787 0.8153472082806583 0.4773309368273013 0.22908297767772806 -0.5072328880854362 -0.13090951722908423
Ni 1.9622616897865837 6.648029530145991 9.10400279341086 -0.4603979300097684 -0.13405191951280787 -0.024885707498086176
Ni -0.005811344470705595 4.89470813688409 1.2790519190765857 0.4764305579925988 -1.405942714839211 0.9121199295120936
Ni 6.494195561177064 1.6722288635763844 6.764780853545225 -0.937875698319959 1.1118424517498335 2.0067038512917956
Ni 3.4171810512726184 4.502985840018325 0.2898543918491131 -1.168924027254174 0.5509172163472641 0.4587341691541003
Ni 6.047022748647863 5.5361117331255905 4.856242398576434 -0.09250649197085359 -0.14330789089343707 0.336980093172039
Ni 5.247365083528297 2.7571731820528935 9.41643683088189 -0.15770349749347679 0.19462531022049062 0.701650710280811
P 0.22583178078811647 5.692092348976621 12.273451736907022 0.6680875296133849 -1.0510798278494802 0.2712110171960297
P 3.9861602235930422 6.396446138596243 12.627736330997276 -0.3653702142789579 0.15987093745844078 0.30217532678802794
P 2.292636985249468 8.443359987708286 1.5305909284756072 0.13036547180015615 0.3980422505906822 -0.5624504137978442
P 6.52827018383728 7.815325382175579 5.85216427451814 -0.9717615524341264 -1.0985179667267855 -1.2898070134851918
P 4.790237988621749 1.162622139830579 12.886003312143243 0.4409840442595309 -0.22729220432589245 -0.5411678502699842
P 4.276736504710103 6.254042837834969 8.102619195655196 -0.7650266034342954 -0.1780859178045707 0.04327115198380934
P 4.656348814734638 1.0574002122804123 3.585416575273375 0.12248915437587292 -0.795153761836979 0.5838733595583105
P 0.08093311624617015 5.397757171420434 3.647895774398885 1.2087154482194988 -0.19338629560706697 -0.3594453641540906
Ni 1.4214153664780231 1.0453898588387733 2.567674079063002 -0.04499970463914186 0.11718702543666913 -0.2689512746275755
Ni 1.9425614494128545 6.201880224358047 4.9286903722101405 -0.09818245930970833 0.33233205287706635 -0.43728165570727917
Ni 6.017920738385429 5.727190478378092 9.468932763368354 -0.17636019336271563 0.8049357809244072 -0.9717610382134941
Ni 8.75870875499645 2.7227996591939037 10.260224845954966 -0.12793809330558611 -2.1071599371270286 1.5277592686280914
Ni 2.6244524362155355 4.984649923969668 7.219021297138159 -0.8754362009378148 0.9695982262342205 -1.08709404116056
Ni 0.734095265155796 0.015373433556933611 9.228072642889162 -0.06752822475896111 -0.3206888122111832 -0.24468391743977858
Ni 1.4528995207488657 1.0011798021655904 11.560784898728775 0.01393872156827922 1.218686957609914 -0.6582988256577372
Ni 3.782246884956828 6.88301037429112 1.6138156129123766 1.2847355124995552 -0.813399081200412 0.22300206159097077
Ni 5.803717986845972 7.9557903604357145 7.805762387331173 -0.7364423640386994 0.06769277536128342 1.5524865961714422
Ni 5.084210862906694 2.5907038864994365 5.1046194061757 0.7598818260085622 1.0747339769333104 -0.7817246329152666
Ni 0.9702662755469524 7.410958701143501 6.798081958721341 -1.1352726577483157 -0.9689407951558795 1.0186813569141167
Ni 5.065769626400527 4.140139113870466 7.484963673085367 1.0646567952029664 1.1145282261121128 -0.5882928287822449
Ni 8.140936389621643 7.197679822945708 9.204820018940913 0.6638182128140696 0.1672505177519636 -0.6355782441317699
Ni 4.705558656550947 0.4047670261467982 10.431554439892121 -0.4735468086869006 -0.18228452926695057 0.3490884463997988
Ni 8.199357792109256 7.152391914040583 4.605360063856536 -0.1395625649183919 -0.011938917529431051 1.4110481543865763
Ni 7.20564143733123 5.884104025152568 7.175313936253823 -0.9137649213146845 0.30341048474670973 -0.24301141483336214
Ni 2.358721101923826 5.125232650792956 2.6989818421425205 -0.46247898090851325 0.5798842930035755 -0.4057892415259527
Ni 2.1453697630717836 5.413481133392294 11.29754711670138 1.2582891453825684 -0.25459474879558736 0.3041082821446827
Ni 0.9716520855594493 3.1731154526011203 3.584833267006677 -0.37674091800974474 0.9917266827021437 0.40603683876038454
Ni 3.497965623177579 2.6742963087565155 2.674987402246408 0.023316049018121135 0.2606813213092994 -0.5095088286038064
Ni 0.9934355697428142 3.3206725173957974 8.259711176790757 0.7345721435991801 0.2977337460769066 -0.6361456865994657
Ni 3.3763404150219767 2.747128323857737 6.832124879845323 0.04986551737187542 -1.0765136945415525 0.7527429009709359
Ni 4.252335379392021 6.9845639812199725 5.8778026655075095 -0.22709885736816374 0.14412601591935822 1.1522810193808541
Ni 0.8530928688367235 7.646138812087814 11.509203782002192 0.7374924025697686 -0.4797012583240706 -0.41248285149604447
P 0.13383211112189003 5.5396713627655325 7.875054699472369 1.2449371495556947 0.4521002087773504 0.9384369701400677
P 8.605010649754238 1.5063392532569129 8.107497609202456 -0.3798056729779975 1.058827847226015 0.8393795644245737
P 1.9672977052568337 3.2112025839903304 10.40767865431734 -0.3716922998422437 0.22399913539691746 -0.42055020188521125
P 4.0435671769211785 6.0669766013114605 3.9485169137111025 -0.3971912154442966 0.06949691844955773 -1.3493617331203729
P 6.752318526772712 4.055559415199255 10.516370541447817 0.468353180301103 -0.7076133556221491 0.24211204294754432
P 6.41833831376098 8.073855938951374 10.203499022776764 -0.7072269188170078 -1.4332863969594862 0.8899493069523254
P 2.2811882018782526 8.693738720881157 5.81938035726172 3.0542126739605657 -0.3359480523630988 0.22442928095580056
P 6.958161130328285 3.9811785536134785 1.5496671014646237 -0.04352260587298311 0.339557366980912 -0.15644828493013702
Ni 5.2249294534566975 3.231147379072147 0.27033258583647 1.4652560078875476 -1.4401967509260745 0.34541254021010837
Ni 1.3598328679488345 1.2612410902623783 6.9442233234836435 0.9348626225252481 -0.8130740937608255 0.37927988238151455
Ni 6.791075919213718 0.879900593634023 9.2200920075819 0.682563868852689 0.2675559369419457 -0.9659793985347106
Ni 2.884568069803009 1.5458303098221817 9.155147334695595 -0.47105540972361454 0.21589321846033144 0.19313535593852543
Ni 6.272647110813194 2.0907797176775467 2.4476221728627636 -0.03863648142527539 -0.5302686868589771 0.35703546916101736
Ni 4.0703504462476685 6.986891779737696 10.477594128085073 0.6273283454181519 -0.04769576341406624 -0.2802438168222593
Ni 8.45135783242093 6.936205552091081 0.5908677244524488 -1.3006745523273149 1.9686823777426996 -0.30290834829931057
Ni 7.566187537706707 3.522484497058814 8.411526210780695 -1.0830635798449282 0.6487263514779538 -1.08840967464819
Ni 3.119965562710066 8.50014196789353 12.616242259717156 -0.10775467637917573 -0.18693616910634903 0.09727048901840023
Ni 0.22341250069440471 4.940068506443463 9.93775591362874 -0.4185470554122534 1.1179765896720293 0.6533556227198489
Ni 8.547739560152817 2.187623382080265 5.906437304550042 0.47206842436916124 1.6404260375969038 -1.5091917900385492
Ni 3.7804534837641848 2.61256888891883 11.536233417553127 -0.2711392834178298 -0.15775080579164444 -0.5909415792590016
Ni 1.1152600446975995 3.428349049608622 12.482190955116167 -0.10497917051656758 0.015761633709630917 0.06808795391717305
Ni 3.156204947415947 8.371261636731328 7.877547345978508 0.5833069455318793 0.35273581334439896 0.02207909128722649
Ni 5.6424749159801655 7.680947098872293 3.8005993571615404 -0.5348737897311562 0.509755911617606 -1.0684861962513856
Ni 3.0954285736652696 8.281836131807268 3.624629564077966 0.3710713784287932 0.10104024047347761 0.5978755873746735
Ni 3.532311973291226 4.438758527609076 9.36081150389008 -0.2744855741822434 0.2364167923349799 0.6765428594695897
Ni 7.4810643841286355 6.364210205037575 11.502124376082145 -1.2584328700492844 0.27195946532628 -0.5395966491281223
Ni 0.5289654932863902 9.116637214237212 0.42315844595316937 -0.3796249244257591 0.15199359159289308 -0.2509388972105549
Ni 4.736291031533964 0.07359466348718376 1.6207093384059148 0.027788225856861824 0.14964823128916807 -0.20955339228523268
Ni 6.002839864720024 5.608563329792008 0.31266681732280244 -0.03335723530420707 1.1347586942263748 0.4896295731813761
Ni 8.109089932079561 9.00022917318748 11.224449714453975 -0.42469507729152023 0.44992685527511544 0.4738026334514486
Ni 8.947858235329594 4.893811436287769 5.783282270831623 0.3000775637187348 -0.9372064401670763 -0.038934472281668436
Ni 7.903944762321127 8.746408558937818 2.6757292181942733 0.026857229402160197 0.2671982964922108 -0.7906736145784383
P 8.46611263314222 1.5404229334989097 3.6796190488287466 0.12495329964564934 0.26974625972504507 -0.5733308081557739
P 1.8131195481802271 3.498110544486076 1.3955713683822248 -0.5652763132824135 -1.0868261322111539 0.23228117290005157
P 4.757032893812512 1.210228789671646 7.984250188149872 -0.4378524406090846 -0.6994429039962148 0.078327115146678
P 8.51640938477225 1.8328379037175186 12.435050770736822 0.2719669215254477 -0.999845455154536 0.5295284662588429
P 6.51987380552627 7.559946863859581 1.3746392968862762 -1.1754551435044724 1.2295886921240824 -0.38140772735779477
P 1.5580761603901274 3.2944145878126063 5.806097413579847 0.17944603137689094 0.142953849988128 0.37629971670726803
P 6.74001833071408 3.8931116859565726 6.051677439925132 0.6640935779626433 -0.8580537437953093 0.48085054143716544
P 2.6164908218300145 8.564713468410458 10.29237201521218 -0.8363042679333597 0.507212576370462 -0.2655821010450265
