# total energy = -381168.99555008585 ev
CRYSTAL
PRIMVEC
9.24509434901763 0.00000000000000 0.00000000000000
0.00000000000000 9.24509434901763 0.00000000000000
0.00000000000000 0.00000000000000 13.53113008825358
PRIMCOORD
 96 1
Ni 1.943540669914159 2.541707505689884 11.241053566436465 -2.042614706255792 -0.3535271988974428 1.4540994770500957
Ni 1.3403445029277574 7.240813198877334 6.706027954978515 -0.5168637263069809 0.36247103835429184 -1.420086610439761
Ni 6.795458524096602 4.810435116788497 12.817254288447273 0.11586676396334884 0.13074882328150386 -0.3131796483183316
Ni 8.225914959580363 6.434197225588507 6.553815800593032 0.12750074865785138 -0.22263413672859075 0.38835639076148604
Ni 2.651243381028299 7.004120298774862 0.3515992506252302 -1.857672941871652 -1.7517234370220156 1.416394249189838
Ni 2.1158414893505233 7.4134468417026405 11.514369057944918 0.006056747717041182 0.2524337365885265 -0.16103050498418073
Ni 4.524946609829495 7.063427577665471 2.261701339554285 -0.8065023540805787 -0.680612401553273 0.5993431730591355
Ni 5.750670435643337 7.012357677651173 13.42450442921287 -1.0247594447873964 -0.3401950005649109 -1.2397460922730585
Ni 2.3792619566038535 0.8841296160639691 3.790800155954512 0.9753947783113396 -0.7225326959361428 -0.6367894908310517
Ni 1.8407537132959537 7.665542068637811 9.048997370037087 1.5686382662306404 -2.1240559415514197 0.10086720523072304
Ni 4.058698022298524 2.4442457232947477 11.09961287123032 -0.7167536273605204 -0.25026886772672385 -0.39221227417246646
Ni 5.9171006203025325 5.385988452304452 6.781774860264023 0.06318228908543959 -0.6330721898804645 -0.18992456231071164
Ni 3.120062104729432 1.702789173485423 9.074854973829627 1.1999266462832752 0.209058197816369 0.0037638379178064215
Ni 5.876542392322314 2.7647823821281534 11.964617161052512 2.8005669193418092 0.8404319169484881 1.1908635076397427
Ni 6.979343446486969 2.395912371145083 3.0013125685738102 -0.0501334263212814 -0.3067207800668653 -0.1496672574525616
Ni 5.217302464675761 4.416797498611671 2.713478581232182 -1.9986580981691835 -1.1129863355462897 3.017657243434035
Ni 4.798647621763473 0.9485096781076998 4.985666631066377 -0.5237756229354658 -0.2040026376703325 -1.1225750076759893
Ni 8.211076583490039 1.184425990302642 0.34046908179336677 0.4100192204469003 -0.204007522766339 1.765728750162172
Ni 9.05385936504388 4.165802437878836 11.356257608990443 -1.096587325362976 -1.4169264675442244 -0.06525254135090697
Ni 2.1777096593171565 3.3600092779682256 3.7336987565250563 0.09517632549353286 0.5418080549571443 1.1504082278381735
Ni 8.165877318252909 8.071642073711681 4.645047778747986 0.5876662509418396 -0.9830736350128361 -1.2939500891192877
Ni 2.270798512185362 1.8252866708042952 5.915539123902747 1.5057765937094134 1.622099214263258 -0.037068365607207124
Ni 6.049813946643091 7.89282346290854 5.5920098280971064 -0.9725457388983185 -0.2673582191088428 1.3255618024872977
Ni 9.13584485985322 2.7257680848688595 4.329826124534099 0.06410377245844444 -1.3245994385740283 2.9189986158188566
P 7.653384769847297 4.305902594435077 5.9174066329184765 1.7244764283806042 -0.04401677190058226 0.10401577816203376
Ni 0.6156446862422402 2.3850493855337866 9.491843850778379 -1.0082089966278829 1.600577281031082 -1.0253770237667372
P 2.5187796722294458 5.68223824883924 4.954030843438041 -0.6219151448223805 -0.6335563286057347 0.4176296858043066
Ni 9.183845388613944 3.8802399701667363 2.5890867641245827 1.7525816712572526 0.9287002024682779 -2.0962972833809124
P 6.146610082260344 1.2480877085319064 13.47512409314268 -0.5635606161428875 0.3705296469927103 2.401437606334535
P 6.392233743299423 6.921524627752461 3.591905823232281 -1.0525101325381034 -0.6777433075355941 1.3940066255232573
P 3.1129341371495944 3.5502363349367623 12.812099223956329 0.8479433948341849 0.8250970863636307 0.6418265390343268
Ni 7.321180802212653 4.899798196719382 3.5576046749641694 0.5214719145029535 0.1083300892666715 1.9275030752909126
Ni 6.4748756397925105 0.29566273305707136 7.409904121629237 -0.11569964225786525 -1.667349087239993 0.5806417399948902
Ni 2.0731014191539083 0.22675812194255912 7.65668434394489 -0.6972101580109542 -0.43509467535828933 -0.7377587688572779
Ni 4.360199032303283 8.761936272565336 8.151179467593472 -1.555656766369308 1.4585289735763591 0.726784272123645
Ni 4.939977375839971 1.8483069552061058 6.972429040581702 -2.8158413290023763 0.3643852246578692 2.318677652227484
Ni 1.6066032140812305 5.04129436249035 12.610444306124709 0.4899705014605626 0.5345115212957311 0.426626232875962
Ni 8.687134215900658 4.045533008247046 8.206074987561774 0.3720136877374045 0.49872382217316047 -0.37396026994081405
Ni 5.658247229553015 1.5632067422008695 9.599578781778854 0.3486935249542253 0.048201756516207304 -0.9526307451419465
Ni 4.019665234850955 5.955671153043237 9.442225430543633 0.49984790847527455 0.8917804466237932 -0.03717763749156178
Ni 4.385105315909097 5.556042713865457 11.814381607793578 -0.4132582962094883 -1.65953319074 0.7794049836431544
Ni 6.3328617487498535 4.425885426148611 10.386779132869993 -1.4005580534885298 2.2189882693549463 2.1758783255393492
Ni 1.010507279392255 0.7434118872193584 12.351715724146045 0.39721049871800623 -1.4093553400651857 0.42251401047980136
Ni 5.445221770441962 8.917679128401844 1.3244309223892685 0.09009145477145775 1.6420167791227915 -1.0700694815781056
Ni 4.277991655234649 1.4300219160593093 2.2998724842282594 0.39810010041181115 0.03161197047832621 1.2747130952665466
Ni 4.84582533714598 5.899867764830655 4.881002920338305 -0.2062626373491028 -1.2902309883964875 -1.5269573415520865
Ni 1.045065441277383 4.0891328721984275 6.335613088765106 -0.25241753863861044 0.009703600441009095 -1.3127962752915132
Ni 6.215791121689561 0.4546885218217245 11.662385788610907 -0.5973708798241131 -2.1230663239446406 -2.2372150767756183
Ni 8.077845531877792 0.7235284632583247 9.219002632599167 -0.2853086329396764 1.3447180637007745 -0.07754267157216968
Ni 3.1673877416181346 1.5893888487976275 0.31894650264179436 -0.5369386426799849 0.4575712591942507 -1.3339919355325218
Ni 8.860091437020767 6.337595236948138 12.63499003105917 0.2842210563024525 0.1604185824317947 0.5786452783901519
Ni 5.431603746777759 3.09290926324826 0.9319212056971901 0.44672763161152734 -0.6859636385628574 -1.3052027792149714
Ni 0.2625015048960855 5.871799659029892 4.498532451369892 0.4351854352998828 -0.38849831565598897 -0.1386436526485483
Ni 0.19713499130790774 6.039126617820403 10.217315632824358 1.0987899894412496 -0.26301948252417284 0.07663070128086157
Ni 7.171798571142589 5.698786967344958 8.688270437970127 -0.0762954294286299 1.363898493283967 0.9959723453523749
Ni 5.769955702013689 3.269231698634338 5.462057086865937 1.5007063782753574 0.6552230149458909 -1.2846630073904068
P 2.7883203918016513 8.98380928676576 1.3414807249972283 -1.0998184307057641 -0.3458192887302238 1.7542068655655012
Ni 0.541227225493672 2.819975594127676 13.46097077852793 -0.22229757932477842 0.9712043943790758 -0.14758492100223614
P 3.205995254735388 0.05657812710128563 10.432054207879048 0.1283659248716241 -1.564548412431983 0.838374520198827
Ni 8.81406935840542 8.299746281360628 11.195576023865804 0.025911577659439248 0.41022130915537736 0.09961070711580265
P 2.1712473385152027 3.2728372853478747 8.098719105420928 -0.7531367939752448 1.312979080726281 -0.9562858253960304
P 3.2845508196198003 9.003297945207132 5.955726623608061 -0.7204968964530365 1.376018930696585 2.038375985584096
P 4.2646602294887 2.8662380451905918 4.00773074282915 -0.4079176007228652 -0.024940214885105436 -0.2976779531383067
Ni 2.3510181940144834 4.614466856360713 10.3438855941107 -0.2814357802478314 0.351192380116679 -0.48457864102103
Ni 6.18469987010591 9.162637142663039 3.5603782032053517 0.7387792397019922 0.580379230362123 -0.6671932999338896
Ni 3.7116371883852812 4.010410895619545 6.390915392875448 -1.1738556602278363 0.3683712058888108 -0.12740253251709027
Ni 5.101905199654315 3.9881117285604413 8.645823437257665 -1.0526903668697096 -1.1211663002539207 -1.32672985465347
Ni 3.448179740755402 7.673982839585142 4.495541663416483 -0.8380454189941824 -0.49156124298645026 -1.6484273106348253
Ni 9.077878119612517 6.15543914716144 1.5359993546642876 0.4079003743316845 -0.3610844424194104 0.024920160280447405
Ni 1.7685402829897112 5.49934255152156 8.077975887705128 -0.3055015629477835 -1.2657456016606137 1.6206995057022537
Ni 2.0131192483912783 5.748904622663117 2.697214611625891 0.866938704989765 -0.30687298937401347 0.19612452047383644
Ni 0.8547829137440222 0.06333813993445993 5.321576956940654 -0.4384347954751159 -0.3090728252388097 0.03711104591968448
Ni 1.0124395040669452 0.25273128941181494 9.854775737797079 0.5684045744987501 0.3162940255775972 1.513688135247006
Ni 2.2029395212177754 3.5037335114262778 1.4559765933402904 0.6350912771930223 0.8319732446581737 -0.8660704434521986
Ni 6.989439089284872 2.4766590233400283 7.552873955405689 1.281742234199186 1.7565213726312912 0.47907390915271675
Ni 8.643377185348943 7.652266113456687 8.973249540242167 0.37302850215516403 0.7301845560544458 -2.356899414712844
Ni 0.9136131457771477 7.874444215763641 3.045586399887799 0.05316578538970199 0.9266962846643717 0.09113866508904948
Ni 4.086322363580696 5.106204168428147 0.8377876571914725 -0.6436592213676914 0.03565554442008053 -1.2121640688897317
Ni 7.5504868720994445 8.340443185752905 13.071166176380418 -0.12286350699615614 -0.04990665502245599 0.3509393835656085
Ni 8.237850376111583 1.7168694518564904 11.675091321483762 0.24443246355060486 0.5784377903650362 -1.6142347239135169
Ni 0.24831213441419825 1.7387156093028673 7.026052435596716 -0.8414503309106734 0.39649804603201394 0.9255747694654188
Ni 7.6730490850772775 1.1261264266729958 5.520511968077089 -1.2777719366975284 1.1188618204904601 -1.4098304799293913
Ni 3.6378890724522517 6.487134634618534 7.130540489536179 -0.1661374871934429 0.33779616131543116 -1.4176867427490165
Ni 3.9054328516908057 8.520038384463579 13.092301386087637 1.0790405747284642 2.1580590379697413 -1.8636564131485969
Ni 6.483686214505331 5.70383478874391 1.5249181848313518 0.1750129353062018 -0.14524418868420147 -1.0729691717234038
Ni 4.744258732953894 7.638934687710739 11.144563443435157 0.19104530617871612 1.2992416765355301 -1.4181140600944222
Ni 0.9838814082769077 1.4155533437344763 2.012687502495068 -0.7378837244709163 -0.3433731411825764 -0.13484690461027743
Ni 0.4140248997683413 8.469754317450949 0.7509124320929282 0.5508539672094965 -0.2847116227856258 -0.4939168877028204
P 8.338094931842038 8.817490043236212 6.733090194537142 1.6073999603798703 -1.8002350114691577 1.3028720741992659
Ni 6.507464596626399 8.333555590620636 9.534169740757644 -1.3232061577709278 -0.7980223416340256 0.17485918333715691
P 5.527345941663361 7.113314105630198 7.9238435272673335 1.5711404638272037 -0.6032522783055546 0.6743180839041291
Ni 7.296514891054407 7.733179177346103 1.9441120167318424 2.5005868004328873 1.5956772726263035 -0.47361314314846176
P 7.922435499430226 4.269162590333552 1.0177979606289087 0.3426519467458357 -0.8504155105237612 -0.9215736187258258
P 7.4784213632993985 2.9299459888905424 9.866426405428872 2.4086423516130906 -2.22551038674418 -0.963512682161773
P 8.576978919255046 0.7077359934530342 3.497147306362884 0.21294364891370424 0.11711580587910153 -0.7091776147854754
Ni 7.092327741938587 6.597530303711715 11.057504240963283 -0.4785020958096468 0.025260831449317785 0.41907541711189755
