# total energy = -340871.9958865232 ev
CRYSTAL
PRIMVEC
9.22564164654320 0.00000000000000 0.00000000000000

0.00000000000000 9.22564164654320 0.00000000000000

0.00000000000000 0.00000000000000 13.50265909186696

PRIMCOORD
 96 1
Ni 5.900794161679782 6.525997440482917 0.5334146030004547 -0.03391927845526416 -0.047163030839047805 -0.3014366488497905
Ni 4.859781991085004 7.570939734392093 10.638272744861863 -0.5241425193565812 0.6491277006814306 0.6438250575215944
Ni 6.525776025084922 9.222523316239219 0.04248869231094082 0.48427216552420466 -0.5897154201613843 0.6060619798402078
Ni 2.8069014516564423 2.119056066504097 3.8349174609531156 -0.9982606271659193 1.1758732048784974 0.8737356733069404
Ni 5.033722237492664 5.310030202906338 10.121431084401278 -0.7843165620121589 0.8557600626651262 -0.006937350549781601
Ni 8.690618950765916 6.26086172702637 8.055916028824669 -0.5854782421515852 -0.7835938249135214 0.2945417215021702
Ni 2.943542429143652 5.842598814573623 2.52118978977712 -0.6132001335468859 -0.685972894534238 -0.223752309493434
Ni 0.32917089168480484 6.0776497108277 1.387911055145657 -0.37751919093666597 -0.06120073987903653 1.5415658354938806
Ni 4.105152186512639 0.555454660742467 2.693092091959074 0.9443224823865672 -0.25654004544741627 0.013541229019544422
Ni 6.232234561194028 1.6686971469837655 3.791425018837934 -0.7657146306402554 -1.5818154270425469 -0.3678572423668697
Ni 1.648492991916789 1.1005452357304857 1.7651484620425415 0.9941869713171781 -0.19174773156237945 -0.4068104837016155
Ni 1.4287382094074828 4.354816499034337 3.6178482627086477 1.1960944170213788 -1.0612043178779917 -1.9350454064145448
Ni 8.952018279381312 3.3298015909446446 11.836849648054308 -0.8328299362315141 -0.9409844191522697 -1.09435560781898
Ni 6.686385219405011 5.848281809788809 11.788928897979243 -0.6133389731175953 1.4833015525353488 -1.345596609650986
Ni 1.718238842284982 2.91840255582972 13.259746181211375 -1.49530089098907 -0.7110768886907173 1.1329938890164681
Ni 0.6025515610241634 1.1930415182425893 11.288263477470457 1.2365365841968252 -0.48125626151601636 -2.4479838295251906
Ni 5.415497737484272 5.45299997051955 5.749850672046302 -1.502613108379767 -0.11557082998948483 -0.6462424087138354
Ni 1.0220719284246855 0.46868842421762336 5.2084614244614205 0.3131979031507767 1.20390645686663 -1.259309873337599
Ni 1.9936426948235133 3.7355084052027996 11.214930697654754 0.20764203419513272 0.6973309998595345 -2.4523009688433057
Ni 4.953348448020747 3.089418273855539 6.23536574394733 1.1793521645660334 0.03640862053602117 -0.6303483631913983
Ni 1.3989209358109218 7.2562438743511635 3.920672567160452 1.5679378977295062 0.09416433928925073 -2.3086210393224307
Ni 1.7314315097488069 3.056316671855397 8.656068923037228 -0.11476967424442816 -0.2041705307067645 0.012268790065024033
Ni 2.2337307913819595 6.856672111745766 13.479583071930772 0.9462189280783317 0.5304941726062218 -0.23924809113618795
Ni 0.7258697895012267 5.2278943158920494 12.769248340291318 0.14703264804319194 -0.6303550480596176 -0.029579256319013574
P 5.689121041197266 0.348437721566939 7.17100540407248 -0.6283285045478921 0.4042280676864199 -0.18399097043509605
P 1.1192917394273334 5.583644280977749 5.270384853331308 -0.7886786956355964 0.39226035380158253 1.4522583100762987
P 4.71892489539432 6.536892923192552 7.895180443214892 0.5004649732339832 -0.5066541327638306 0.6292610436644905
P 2.896768426317364 8.81963954830549 4.514303855337921 0.5987284222932721 -0.9429330582382083 -0.08574706175983297
P 1.4995357829161482 8.067343831053648 1.7118943685682881 0.44051481793259617 -0.08646337110056722 0.8197036832622011
P 0.47464542098782736 7.987855703173708 7.4844567250638505 1.3871489791714755 1.5278831958004655 -0.7692079885054945
P 6.608465450594197 9.199366955865653 2.4073887331571764 -0.37291023140974483 -0.35893140063214957 0.2323845312471353
P 1.9373570555250545 4.644464742177166 0.9634079187261055 -0.26538772564603325 1.1376856380651825 0.4800128760272184
Ni 8.427171529719075 8.974141367897571 8.963335373911294 -2.1266620117156987 0.9644845591567389 -0.0900757710421739
Ni 9.077348620287646 7.719352630539332 5.376029520227637 -2.3303599736614187 -1.0543842096323648 1.86765422145408
Ni 7.126595933183939 1.825200930799377 10.937653117310697 1.1306174183644917 -0.6773046773362786 -1.3214202695150985
Ni 5.999591557393139 3.7153596039853216 11.933163501053498 0.0698365611771636 -1.0771220175495126 -0.5732205078301547
Ni 6.836624792585702 7.094970433837092 2.82248817311108 0.6348431657379583 -0.10217486829855307 -0.8554173346137268
Ni 6.37496446212608 4.86999477631749 7.678219184976948 0.27057261228108237 -0.08396914392380378 2.942674619279558
Ni 7.6571994831940255 4.384587644422982 13.457709075737256 -0.15811718799212768 0.36343263093661277 1.6319773926089185
Ni 7.1400745955368405 1.9735953756634492 7.98730862262783 -0.7120701058419221 -0.4327822251750289 0.6565810716356821
Ni 9.28579276621608 3.5973544224959624 1.741181167773821 -0.446272803462296 0.20149658341902718 -0.37910684713876
Ni 3.16362933474995 0.4598428790677525 10.697454313053255 0.01006381199390525 -0.0761640460570882 -1.53449890134477
Ni 0.8025588577248565 7.421687304860794 9.63890050755238 1.309869074342389 -0.1886402962816493 -0.06726828622935511
Ni 4.685408139522938 6.841375998000996 3.9872134296426784 -1.4102166596242165 -0.5082309903326473 -1.4608028572122003
Ni 4.349604011539889 0.9962954858415202 5.266509161302249 0.563579642306281 -0.4584462056000363 1.2588337050321288
Ni 4.0452131931472755 8.277236402710628 12.83631598690794 1.4042915523890331 -1.0227645258445546 0.05654807159837358
Ni 2.6494935549656873 6.392253314452799 10.703706530354118 0.7370725414235306 0.126822234533588 2.6964156440431757
Ni 6.795672169598347 7.6487764724286595 7.071328804716255 -0.5320257787593999 -0.6311286930008485 -0.40106303969487705
Ni 1.3883114479903633 0.4615136427584509 8.818762189790938 1.409029581294651 -0.009713370633021983 2.31934073973278
Ni 5.231067936596634 1.362165979743874 12.239282282114623 -0.9793709893502682 0.21969125205018292 -1.460559887963459
Ni 0.24940968481400466 1.4223356141488153 7.181591827789081 0.16621256340575247 1.8039176025270676 0.14646083470012194
Ni 6.8824116517626 7.178416361956179 9.521481154303547 0.24276716003304 -0.7024739775130547 0.09696324219062656
Ni 8.616131120624013 8.084374365416041 11.383376151935526 -2.699779675419402 -0.5668385155632109 0.5198667747993627
Ni 8.588500324082647 5.406696475414 3.6716023859567053 0.3150825217679993 1.1554666161976874 0.6175596960671622
Ni 3.975522696628581 4.3541891554066865 8.043182798311683 -1.3869682306192372 0.9581753291092595 0.009625181794589877
Ni 5.345548923001251 0.4806051854505063 9.510408539275518 0.26240318909641264 0.501944128882671 -0.985573261506238
P 3.7576499450022256 2.693831988414038 10.364209378045356 -0.020541571596777528 -0.9530948292625585 -0.38805171503687363
P 7.289041030179064 2.6901232804976347 5.968310174477341 0.5315876627807168 1.0580066368763004 -0.7632599984521758
P 4.363018094401708 3.862766905200002 4.0937898863389 0.3959234044754665 -0.21780020567505717 -0.39335898618239995
P 7.478913959600728 2.167370751474762 13.070236742068086 -0.10635085405311362 -0.07921851661269583 0.6165803628730284
P 1.9767505450848675 5.177891338511679 9.203709465358815 -0.7420640811008511 -0.49877832956017965 -1.1409835920901639
P 7.013111316070296 6.629702877518479 4.9339524591564485 -0.3661669991486403 1.7413179254179751 -0.5256872381358817
P 4.384569193139816 5.682949086978176 12.474593341461345 0.571007559339236 0.9739107375666453 -0.8729206336048129
P 2.200850604779811 2.285292902189873 6.2564574057346 -0.09587617977403488 -1.1973522006878798 1.2305343438668035
Ni 3.9747200658108515 7.615305844765194 1.7004979335206913 0.42870882643660363 0.7338882301582781 -0.42045224285476623
Ni 0.20262553378197515 1.0726561212247916 13.37272246547379 -1.0849679959564926 -0.2755536104354416 1.5365187599882764
Ni 3.372239542226878 3.2988956916412784 1.5756925316204335 1.2403135347407543 -1.0267391942215867 1.2299355339405398
Ni 2.5433617741937704 6.416387592834173 7.05770437722634 -1.389215117671885 -0.7136042830982614 0.48921228313829934
Ni 7.870440962745667 5.076815209327297 5.982420793278684 1.597737754699758 -0.6389625872229705 -0.5428709490040199
Ni 9.075540394537361 9.135248746863146 3.1250550821627154 -0.29062850249069305 0.18919539745417094 0.25929986758074053
Ni 5.9750974789900235 8.625605854529852 4.540066459458712 1.0997852634749834 0.23176206717178796 0.36595642579973103
Ni 5.1983076833350665 5.053326725856739 2.507052416615186 0.3872497879608685 -0.6567715903799334 -0.355353196362588
Ni 2.7982939280594152 4.220131357562743 5.6191454723536545 0.9022790321622718 0.4394480672309786 0.6303715031198498
Ni 6.845416829014391 3.6973972798230372 3.9733196134185382 -0.168650997643916 2.1000490371138603 0.17825432506163494
Ni 8.695849889543531 8.186539120307227 0.9335924902578615 -1.2999800973634514 0.7255218604714537 -0.8457643849049951
Ni 4.273806140293186 7.654662431758674 6.055726818733793 0.4385643790744447 1.5005824511029833 0.894371347279421
Ni 7.735073123796924 0.5378705878850892 6.036309610893855 -0.8169196927591609 -0.39347699981750295 -0.6591136082495487
Ni 8.739072020360327 3.8842903270133613 7.7972862378125205 -0.02307642220348929 -1.2050480266702408 1.1723240540746585
Ni 2.6755098642300132 0.11851535946890436 6.979186786840942 -0.4245809203111591 -0.8734675072472182 -1.3743070902118009
Ni 7.813675590084888 1.544787554881226 1.7047647927528726 0.9282386894508272 0.22518647083679927 0.25595743347106886
Ni 5.6309902735821895 3.260129545709116 9.427448802467861 0.39951009338546034 -1.7368452343586023 -0.007893286705147697
Ni 2.6860086443515745 0.8099974925333053 12.83508713144907 -1.8466881607253745 0.741048238241827 0.7161373339327602
Ni 5.901236992475771 2.8342647045919 1.0771628471381334 -0.47859902639882734 0.5273833948913821 -0.2722183754146215
Ni 0.238063068230957 3.1736207045844407 5.252696530724041 -0.4718699352051099 -0.6028563284187166 0.8130026170929417
Ni 3.856963976644236 3.477956169127556 12.654840236455206 0.49267298799339027 0.1898435725611311 0.02354410586852719
Ni 3.8092397327348895 1.8034284166632746 8.066245057141101 0.5041169681642738 0.3129297370910546 0.6925762587833686
Ni 3.1966479059758446 7.940832608024676 8.926864567605005 0.7775015959728545 0.004453922006295555 -0.6073452174280056
Ni -0.03196131270047191 5.4357572464007475 10.666546568621571 -0.01233461030595295 0.3902456373643989 -1.668540793555249
P 8.892586696303017 2.0114112805125526 9.521089064536266 0.7138089429098997 0.43708805163923437 -1.3977375533205993
P 1.3394063219583805 8.33919581158269 11.768863127536013 3.41948750031224 0.07544130895845072 0.41070904742507325
P 7.340252566606821 4.672030959227452 9.954470958415389 -1.0855642347795948 -0.0316209693393907 -0.8446621529797518
P 8.153714287554578 6.529180286829085 13.041610498799903 1.2487259271741655 1.3751103028393865 1.2066721925372252
P 4.257458303407943 1.3433272196311954 0.6076090577400157 -0.13811837627269763 0.06995200370910534 1.6731111865347508
P 6.6019152450702006 8.88949610637268 11.038369446473338 -0.580075068858143 -0.4250912842886743 0.7104881060667828
P 0.49565128430837474 2.1347488828369405 3.242123861031391 -0.45010760382735376 -0.5552590382557275 0.8284950563015862
P 7.352937823783575 5.050374520550149 2.01905287943583 -0.7761831342717471 -0.6151929956071985 -0.5428087283075168
