# total energy = -340855.8287279785 ev
CRYSTAL
PRIMVEC
9.37357478962083 0.00000000000000 0.00000000000000

0.00000000000000 9.37357478962083 0.00000000000000

0.00000000000000 0.00000000000000 13.71917420006433

PRIMCOORD
 96 1
Ni 4.008890410255707 0.4458990718242189 6.351758217522614 -0.47685813244832065 -0.2860491106501267 0.23566345910872316
Ni 7.0176297779471755 2.3403753737650215 1.0374025656174497 0.017942443411033616 -0.840284078516714 0.9023769911927169
Ni 0.8857193804819328 2.3735859487826416 8.548073934422465 0.5966057195233144 -3.415628788687782 -0.6674668653102505
Ni 5.554274170022863 7.316487458807123 9.576408503914582 -0.19279648454186796 -0.6510434296469045 -2.0716586588966255
Ni 6.306653513619908 0.9896245182219335 6.307363093221611 -0.41502001609560135 0.1268471742342525 -0.572075081371802
Ni 0.8308371008521929 0.9607351611222139 3.303234586905015 -2.0952035360961014 2.003395612854169 0.29885037617985305
Ni 5.953775921998869 4.912165558716895 11.149517422808783 0.0797309374727401 -0.43278016829249977 1.016262977280611
Ni 6.459677119931694 4.875917945509687 0.35033922760332276 0.6232834859248169 1.1300520327793249 0.6865614200478563
Ni 0.8036949780689521 8.868282743641187 11.001624911265456 -0.06162677167286161 -0.22786658877212368 -0.4405369294197832
Ni 6.983969271345912 5.440047789225594 9.24325197601908 2.109086721836097 -2.0931813634597503 0.504395418636641
Ni 6.7543541864936305 7.8329526753808905 5.483060311264362 -2.294317221105249 -1.923728695850145 3.2748148678607922
Ni 8.759174334607852 8.893788240288927 0.8623735554356765 -0.16375998810020184 0.8672289825366741 0.7100155373057385
Ni 1.3798464312853105 9.617475071854097 13.271983431755958 -0.16348205184846684 -0.25100651722369677 1.056476059164387
Ni 7.649999245182212 8.758386954336478 3.965609803981685 2.178258652846068 -0.5014725885628912 -1.9340030811929598
Ni 3.600446268054804 3.3352584673707777 12.274888174530627 4.224554150387556 1.1042145028909305 -1.0416163684437352
Ni 3.6087231344788964 9.042603111578723 3.9561434309333374 0.16142002711311554 -0.8128259823057614 0.49690888045160864
Ni 1.6838220839091935 8.496892342068184 2.5958324665953096 -0.6988836890586351 2.63849228936383 -0.567518572349371
Ni 3.902125394887178 4.7314805335857475 6.150895635580029 -0.36521414831706783 -0.6318195484202861 -2.827317447962776
Ni 1.4904921065627572 3.340554537053238 2.1318770779050333 1.0295499241975044 1.0716710217372705 0.8921946513430763
Ni 9.115538896002123 7.523024802848402 6.5761625322218356 -0.579973253172956 0.09237048061362156 -0.4972233263682341
Ni 8.6100970032276 5.1061235655654995 11.057750126895009 -0.610743187365961 0.05715639460633382 1.1402330870773847
Ni 0.4058289148709802 4.2245013745671125 9.199639545202121 -0.3101534598974981 3.7804590713028703 0.5329652598545337
Ni -0.27941782437418955 6.951902272436716 3.399309040374702 0.2343552818202609 0.19505468444842536 -0.9969210824188895
Ni 4.177895961361465 7.148231793674103 6.507374554585142 2.483555555982213 0.4689897854438375 -0.7344088785484384
P 6.34612563650989 3.24978084005334 8.88044870619139 0.8454692222620794 1.4492002399762653 1.0621738808801127
P 3.68630821193327 6.266515866929123 4.325380722407116 -0.67297648227457 0.017115576634364072 -0.08107459598482811
P 0.10211478498008943 3.3833917732458785 12.817605024295009 -0.2477029067717605 -0.4637179955219369 -0.23636794137491549
P 0.977701331255404 7.390960509474636 0.8731372312168603 0.13707347994795102 1.3438253766831758 0.4130227831599145
P 4.814586646514403 2.1653332405787253 4.853651956264173 0.11580505748747796 0.1761514197860192 -0.5005593327200024
P 5.662585825210163 8.616874097706216 3.0931521569276184 -0.588331138219348 -0.26734819180651376 0.3001814362864508
P 6.914454841673128 0.3723399446859808 -0.009849752251909597 -2.179548318191769 -1.7260581710454272 0.8337851010559317
P 7.26814793428952 6.26632839543594 12.457256693670569 0.28052226729462654 0.47530852857301364 -0.09401932907095421
Ni 5.406246679004442 6.250215220596738 2.1046721521715757 -2.28883408650349 0.7270534666246317 0.27351678251107087
Ni 0.31960983779799806 -0.0975151718948096 8.133933470901153 0.5016353393930005 0.339755341924331 0.2797511934565569
Ni 8.62946280847355 5.6648073624043995 5.2243571495295855 -1.1270484700663106 -0.8012948417377104 1.6625755771107495
Ni 5.418769774749162 3.1094303066808218 6.974800977971728 -0.5431386008431098 -1.277914890033296 -0.8273550291598719
Ni 4.998430566305707 1.330794515093606 11.526082037593676 -1.4436461429272558 -0.22333321967814437 1.1442265245074938
Ni 2.706319728461015 2.163655370714725 3.950134032219311 1.1456606858508591 -0.3642294158062953 0.9356254688332015
Ni 4.423118048021349 5.647372513538247 12.776255374400787 1.3268051879760956 1.3964283475908725 -3.0714704325997486
Ni 8.589043954542989 3.9042344491855028 3.7123123827528812 0.5624956652134829 -0.8379623723620729 -1.6021937335885825
Ni 0.296947346344399 6.955417362933924 12.62666155905681 -0.6539631743968608 0.4561388976230983 -1.6573588087965005
Ni 2.813684652607735 5.6866384177857245 7.869825506017869 0.44196106346081954 -0.33004094285004454 2.3315879325312494
Ni 2.3750482264294805 2.8019770578583674 10.454408745664647 -2.5080566264473707 -4.593531622401799 -0.40190147643577234
Ni 1.3759751449510522 5.358328965346503 4.267952579899932 -0.30976753731298906 -2.686319693259754 -2.4254722786862355
Ni 6.311021599411107 0.707269015549544 9.725933892163548 2.699246171513435 -3.994463300270604 0.6835426878261905
Ni 4.031386989437838 3.059900338181497 0.956750454534579 0.7196535746161348 1.2240906451239886 0.4810549441384876
Ni 8.34675579675144 6.550310213311704 0.9284028900501623 -1.1764051661225674 -1.2215655647092898 0.024598515274970537
Ni 1.3544440439588212 5.371142641905659 0.46801039708785563 -0.18223722096878292 -1.6710314211875865 -0.2375794451845134
Ni 5.444622093659294 8.509143604147788 0.9581208711497571 2.104145318670421 -0.6662579326038138 0.7153557185717293
Ni 8.82419882201887 4.015386297494548 1.0072796460925766 -1.1094407842868763 0.9226084877482433 0.7651124782798823
Ni 4.059929524275166 0.40091903646448024 -0.13529723927373233 -1.5143504514213533 1.9481690882806963 -0.5594206258325849
Ni 6.798691194631746 2.4707992915734245 10.93628078495856 0.7506605645206105 2.633329771326284 0.7332799071503178
Ni 1.6017189434690753 4.513488681310901 11.623268197017946 -0.2578525936112527 0.5495887273438278 1.3624810441111503
Ni 4.567696063565176 1.290394408312363 2.4376093384200543 1.5033273608379725 -0.5691064856617812 0.6977470043510305
Ni 2.034993684942255 6.533718986164883 5.8453695937075105 -0.3215249349592334 2.2503698689900213 1.6345693217058106
Ni 8.271654716581759 7.726318890057591 9.385753744775888 0.5834792094436855 -0.18908741112139693 1.0887099794974282
P 3.1975325349028414 3.29274930629121 7.887331594051431 -0.9542489974716598 -0.10247697292000416 -1.0006147292203929
P 7.257621409947213 5.668406815073539 2.739073810392732 2.300158253267058 -1.1580958262904184 0.0006396904665279305
P 8.643448181865109 5.382044109234333 7.528190579843099 -0.1610040226216195 0.061603631744410046 0.11249296239510947
P 4.900561073288779 9.267793869191852 8.430693345752367 -0.7697186095933259 -1.1710603568708862 -1.2578039782160337
P 1.1042164684309121 6.276142528104144 10.623167771756867 -0.7347076407357798 1.1588622721427977 -0.4728104447415083
P 2.572099512915628 8.216031924553942 7.364507344428847 -1.5807692451662194 0.11330414544249517 -1.8622718740962445
P 0.9791448617529241 3.151358306131518 4.9435126670922624 -0.20338634424257226 0.28120798050774154 -1.2942658205874935
P 8.674409098964516 0.52235838296202 10.117342499778783 -2.0099601534455642 1.1688247826721483 -0.9799060359181316
Ni 4.68607493793648 1.9420078243227812 9.127174314226613 -2.9536030932666035 1.2311886896213506 -0.5956284432117096
Ni 6.771235994454887 3.4467477643675544 5.04757246881414 -0.4329629737272673 0.26712630560369477 1.07180189088818
Ni 7.7330491166629125 1.7038627865306084 8.208662420156863 0.8150417590101575 -0.01776452307227263 1.5059653126814516
Ni 1.1309124090603742 8.837012498578025 5.121682762142341 0.46374730609797554 0.12234542970915704 0.4635259341157888
Ni 8.319581803814359 1.244754473296615 12.663538139123652 1.9119569000261976 0.8611694066061556 -1.2830416697369
Ni 3.4100314724273852 7.598482078855133 0.5528140643872954 -0.6312567339382806 -0.7899449639425299 -0.2416806118370805
Ni 2.057865207110755 2.5760364142725005 13.41227584896559 -1.0931531028704464 -0.650380599251925 0.43204020480268174
Ni 5.774403197320012 3.3911155987650767 2.9350255765713524 0.20065968934002862 0.491640690074134 -0.459239390925293
Ni 6.978270137953105 7.014667728354861 7.783545500709602 -0.8810401773881535 0.6031728312178709 -3.3522256418407883
Ni 2.5762145121910263 8.094391046201228 12.135803073737103 1.708757989204083 -2.69408956701316 -0.39376702025409605
Ni 1.167403735208722 4.270150683157519 6.795422629148075 -0.09877561280901698 0.32025403866660973 -0.07485998253368398
Ni 5.094303487920222 5.115431525202106 8.04050611491523 1.1569624840169235 1.4078401889722398 0.13219584014067554
Ni 3.8426031958011237 4.036223753961996 9.756816071235818 1.9895731051487804 3.389781231497059 0.40594093661246866
Ni 3.5094850995617217 4.331791310116557 3.300448760516294 0.4510529984597587 0.5520310182367333 -0.35769701400441617
Ni 0.36181060827127765 1.8555928395394212 0.9341798241126403 -2.49339413933919 -1.3368764561691686 0.8168327894723093
Ni 7.330922763782324 8.49333975727234 11.379163440457441 0.05120300523637633 -0.07843150193502621 1.2733907769106971
Ni 2.383850013034489 7.758479624713379 9.410296575306129 1.3194749728632695 0.43965658369735894 2.0635979933756783
Ni 4.952612533371434 8.220268780299909 11.35263060002705 -0.8668574581298683 1.6042475307938178 3.2682523841519266
Ni 2.6203546752612983 0.5379419508329751 8.667595447544727 0.8120335683114531 1.739913845981597 0.17829829092569294
Ni 2.4196195739340767 6.596550057105642 2.353113124369437 1.857957820101923 -4.326014252007273 1.3539359827546167
Ni 9.126852800615803 2.560241940971713 10.80073514595636 0.9265312198414172 0.29743164145545553 -0.5090982234289491
Ni 8.85572215359783 2.2614123808357425 6.393341269425852 0.3847429623786148 0.48325889376834197 -1.8150152551021255
Ni 1.9280786923791784 1.8656319379994473 6.50336828877579 0.5536315299546336 0.004870697828739999 -0.2944787294747187
Ni 0.8258672315678739 6.552869199193672 8.473881153637263 -1.9232252738511653 -0.27877006049021025 -0.5703730110790306
P 6.435568285908177 5.618858099424896 5.980599343243696 -0.559988582520913 -0.03489064122959797 0.4382766726306968
P 5.817456025729816 3.172083279703056 13.156784073909062 -1.299071469506253 -1.3688622650471458 -2.373176554606313
P 7.923613889484878 1.1081627433624441 3.1564800273253164 1.1211015084542564 4.31297027433912 -2.4635081504130345
P 3.55896820018775 6.568485574575933 10.777933925597802 1.4116641907040204 -1.696297909063859 0.05527229020974352
P 3.459814527442509 5.3497521445333165 0.6674641307591613 -0.8753210155161893 -1.2041761655882488 4.304849702114515
P 2.6218544472067737 1.2739625319347483 1.6539831836964947 -1.7017129094318435 -0.03284301467194989 -0.2843213293257426
P 8.178668855962286 9.55617189358279 6.554692359464889 1.1270662106781235 -1.2569010067857902 -0.5421708376132017
P 2.884333284814285 0.7197461807784332 11.651227695511473 -0.24258641148080157 1.7910577158452639 -0.5244533657287807
