# total energy = -340864.44293318194 ev
CRYSTAL
PRIMVEC
9.35396620670159 0.00000000000000 0.00000000000000

0.00000000000000 9.35396620670159 0.00000000000000

0.00000000000000 0.00000000000000 13.69047505690358

PRIMCOORD
 96 1
Ni 7.895804300271933 2.6756645577968654 2.5652802758504327 -0.7164813475357402 -1.3055727609598806 0.6554695837390582
Ni 3.3039704538667816 1.2461727660863273 3.805021254916696 0.9916161252662083 -0.23609051934381275 0.7328890994698023
Ni 0.3544255132417385 6.402649415980601 7.425700160329026 -0.1677696234802272 1.1164208151491353 0.9465212898100989
Ni 4.481597357121482 8.433994087919375 7.524695988673178 0.3646395067605204 0.9797666821267901 -0.8112887197256287
Ni 3.514631122102461 6.456434720467755 7.995360431179351 1.0540844190037588 -1.1150830701743184 2.7428875623524696
Ni 0.8928304421071299 1.1489476435055512 11.442649545874099 -0.7210067462099196 -0.6550281253262654 0.4397396303294685
Ni 9.00780377808631 7.039542252836467 2.2970833627624967 -0.6236681229577453 -1.372759286108707 0.1605957314396073
Ni 4.456987072581361 8.80262453392532 2.584611181981415 -0.13303401977125476 0.7908656759845863 -1.411805344267575
Ni 0.8176451342102895 0.6612907863678378 4.324602262608184 1.0493121944260961 0.9503879718543566 1.5952730952093492
Ni 6.1377076830598885 7.905364053521648 11.265713666646763 0.7057205094748105 -0.5664543927509148 0.1361684516351784
Ni 4.198508930165104 4.735117897558924 9.703726688164274 0.1991026292655539 1.6775710220783173 -0.18504435140027486
Ni 1.5482871598821613 4.726362585385016 9.200588081903659 0.66057193796263 -1.0938257034574388 -1.5193239933765448
Ni 1.7326257678001284 8.234548824915016 0.5306757467614377 -0.11424748319237099 -0.17637664842294787 0.972774567079673
Ni 6.839601229634227 0.584163595129861 12.921480702033051 3.618124759905601 -0.6482545540478577 -0.12115758004864295
Ni 2.9750008236913628 5.131258357564298 3.959833133766116 1.5226713125822229 -0.14648397462857352 -1.1325485739489334
Ni 1.8203191990291812 3.086574930112711 3.333439188346143 -0.13690995778689324 -0.2264874490364099 0.9569928787653841
Ni 6.74279703552335 4.025329603682471 5.1562156742429375 -0.1560767605233312 0.6460719445742422 -0.1940720088201819
Ni 5.091026949807908 4.581768978991555 0.6794496405593001 0.5427421367356394 -0.44302704283148864 -0.8566962013261504
Ni 8.730252899000607 3.820178421419475 10.020332246083846 -1.2625646328294708 -1.502406905906232 -1.6817629486724779
Ni 6.618735384494986 0.6533193365445419 3.5064314355088197 -1.958583341635485 -0.2975018325717586 -1.6539333280547195
Ni 8.404444909332433 8.103471699388328 13.630223222510953 -0.7951308790188435 -0.6450157353955859 1.0116517037608446
Ni 9.211121583013743 5.521618066583053 11.254898611160147 -0.5529103355178929 2.130422764309712 -1.5701984116289087
Ni 5.422840185646648 1.5001422968916616 8.512874212385334 0.020231239445210318 -0.8636242959045513 -0.34955664428546895
Ni 9.043292725081832 0.08089777493167598 7.566341716088431 0.3240860108181903 -0.7446855778840981 -0.43291643676004793
P 8.15277645416255 9.092803267108007 10.880696007609332 -0.26200338255483263 0.8750520781255188 0.6197659596898616
P 1.990580088120511 0.2958696860957257 2.5006340814432746 -1.3690756666095325 -1.2295159299046179 -1.0126271803002367
P 2.5179660450405343 8.75523734218064 12.300782386509116 0.8020327483449994 0.5967437877630755 -0.6922579562120014
P 5.273223499512387 3.3449969487329816 10.85467046801375 -0.22373919686731142 -0.5100536453636828 -0.17582231858137462
P 0.45269360303126527 5.950085833076705 13.245479634677258 1.0371699026366072 0.45625176905187875 1.4337540806245244
P 4.909672257043229 0.037225043084708066 4.808765413445732 -0.46156906749973414 -0.4366375943653771 0.05943336356596862
P 1.115235950049604 2.425305657866668 9.500546386537009 -0.9235513112774869 -0.18515233773304887 1.2993663750388527
P 1.1613790643165818 5.641835237586338 4.616852899259374 -3.4133996422469473 0.24442912111649515 -0.9265438182469075
Ni 6.651885839991067 7.677632397340047 2.5685522931564506 -0.3691409941752997 0.1220950042612478 -0.6878847668449701
Ni 4.663344916458068 0.41213387106835375 12.913020039788071 -1.0388658022817916 -1.2405858145655344 0.6364177093139298
Ni 3.365463426336093 2.5730702587333716 9.365325454073309 -0.3937420805534316 0.10204862713333393 -0.17833994279690576
Ni 5.9578683327868465 7.48299507285854 5.3590133986608945 0.4678243043808265 -0.8103906333913914 0.42254563504868514
Ni 4.8861189706608545 5.588049933099184 12.061376980762304 -0.8482472992278488 0.06615319878830542 0.004721316735069288
Ni 6.86646581997981 5.727442734397888 7.511936243655627 0.36214553669407307 0.5946845912412015 0.07443857872554922
Ni 2.794890208404386 5.635427770877867 13.67377248200675 0.0823812306113936 -0.20086743447546052 -1.5351655883944917
Ni 5.487532214487195 1.969823637571469 1.3037548453719725 0.34648211912520327 -0.13918486986399903 1.2601102577517072
Ni 2.426951955882275 6.267213342298953 6.144244234499126 -1.0968552343123819 0.5330403360668432 -0.9311936583140931
Ni 6.6459928414124745 0.4118757016068154 6.27719215322537 -1.046612793217062 0.9064588745715743 -0.634260553761611
Ni 2.4740585286470225 3.4010739748895866 1.1064301264593075 -0.8575017279465813 3.348815844828291 0.8203122633804776
Ni 3.6918981317261177 7.798364036473208 10.695929923445266 -0.38519393387310435 -0.0026199541213503268 -0.282366776702533
Ni 1.6927591647176512 2.1126399904253543 7.469563713082349 -0.6618196943268021 -1.3991945974820998 0.901881282503221
Ni 1.2236577699297053 3.5475851443125896 11.407150309515979 0.858863127070482 -1.858254011186103 1.330873187397882
Ni 8.756359818100373 7.313968907278915 9.719429190884723 -1.5541673263079752 0.4574416755949219 -0.45851768226791995
Ni 3.966773776536458 1.396921282106318 6.58840421435063 0.1623638790836236 -0.2994327310458843 -0.8034404273258033
Ni 0.8055906782289689 7.964004066361642 5.744440761409027 -1.2210909390657163 0.6398650444325819 -0.5341873051870929
Ni 0.8504401389984557 4.230611741469436 6.3842239737582025 -0.056118697370438834 -1.0022628063467771 -0.5336442881994293
Ni 7.900013584970926 4.560367104788667 12.615320717943183 -0.7294276232837632 -1.0817739144992273 2.2240661980984857
Ni 9.338111025399408 1.2923439422512983 0.8441767233663517 0.168658968063716 0.8419694366389371 -1.3419083621661212
Ni 7.352413707529731 5.656754813352773 1.3280910587083594 0.32559576259449735 -1.557142349775899 0.7371944117133755
Ni 5.983292412368773 0.9793134701360717 10.814762707480883 -0.26842702669298935 0.6172899873455433 -0.7496966579454444
Ni 1.68100122945846 7.594672072905864 3.604564828187979 0.1712195297020406 0.07156305694996706 -0.9416081687791976
Ni 4.936471369626827 5.751416949250161 2.6082954238877574 1.7141601340562609 -0.4028111327342353 1.3616917154406356
P 4.408365157324976 5.72374791782877 5.96283154714526 1.5989518296125171 -0.38821986518362167 -0.3934716005008643
P 8.103368805762353 1.2423937638232299 4.70067940094495 1.735149334713418 1.467264553677144 0.980617974383492
P 6.025123348310781 9.059400254529985 0.902517409294416 0.06790951935777982 0.1703103876242099 1.8282134989599546
P 7.18789615356103 5.812451577385581 3.63583420112191 0.17207673549601332 -0.48042270987112745 -0.10231190809704961
P 6.699357217429727 6.209677097446696 13.136475998112095 -1.6269809678355915 1.8998778573744768 -1.3282390922091447
P 1.4210451604145555 6.823026001886187 9.267712141903626 1.7827795349968718 0.2213537273542704 0.6381537181684299
P 7.662656697777624 7.939318950093538 6.67083416891274 1.8571846893813242 -1.795933041659694 0.15080239949826932
P 3.998408889540902 3.571119722762968 2.3139644651986644 3.2836224388500925 -0.22744518496398894 3.297676345839998
Ni 7.974087641707232 2.3937640845222026 6.730648104485453 1.793869731372762 0.4516600359161383 0.09208174572860917
Ni 5.775465995830416 2.5899261054613456 12.786273800518348 1.6934342143628192 1.154499881409044 -0.6499705082977
Ni 0.3568734461433538 3.7647561728827137 1.5814965453640286 -2.8979461660239316 -0.8591215229381914 -0.7521476905890983
Ni 8.466564597523595 5.951432804180383 5.451916988950702 -0.9493556739351006 0.7864634331518326 0.07852200476630349
Ni 8.97950803094307 4.045880266979562 4.109867006783878 0.3928645630444847 0.3487094657938253 -0.33130823959824235
Ni 6.483804424977216 8.543379366297247 8.427472502825733 2.114698925816551 0.1521411729143509 1.4412118224541501
Ni 1.4036187217607181 8.884481090371768 9.608207728981492 -0.15624593911134382 1.0867772812510896 1.080885341246687
Ni 1.9771758548457128 5.62583060176416 11.3283609185202 3.618876807580277 1.9684278385297325 0.3670064643308002
Ni 3.3549308606226087 1.3562034681180442 11.44729004840559 -0.9961394670578586 0.05814061289647406 -1.2242389977763948
Ni 7.991963070728962 1.3316305994419138 9.24039949658675 0.28020576449547224 0.35504749219671106 1.0187908859087873
Ni 1.4007657621313996 5.621742918623137 1.876115606205853 0.8455142165674019 1.2472668261301358 0.3832725484806754
Ni 4.633805091837124 7.5312428294750156 0.18084396622120189 0.2935611027564557 -0.7119636621710448 -1.0381479502791604
Ni 8.104304202362128 8.270084541740529 4.330105200804669 0.3687851534977778 -0.3061268552366083 2.024678176382029
Ni 6.486236456136635 3.519467122523306 8.957349420890962 0.5294896426011074 0.342734479157313 -0.4417245219699812
Ni 0.5609769842145996 7.757692992314922 11.878143076228673 0.6458518581436361 1.0950994279635398 -0.5610249942052273
Ni 4.018538624368093 3.2383149665284647 4.882447539006732 1.4842135228266569 0.9592135405657869 -0.12068989638360506
Ni 9.079651590915148 9.171853633755124 2.543566914579819 0.017688675529014698 1.295728521175949 -1.7704652364058928
Ni 3.177458063747002 3.9823574838887357 7.117883588860954 0.9899683052501401 0.6484440443508446 0.24366447503632876
Ni 6.8328757280818335 5.435963799941513 10.596878906701727 -0.22894413810701858 -0.12247115665374393 -0.3402361382154914
Ni 3.207540418395816 1.2357711558968119 0.9911069504660547 -0.07113111161887105 -1.0083786894365279 -0.05361958509766894
Ni 3.9775214834678914 7.2562268751747085 4.183850330050005 -0.4356402634491143 0.14936386727952985 1.2775482507224964
Ni 8.057712097727258 2.3950081619999053 11.77399976039595 0.07633862396173949 -1.0804490250402168 0.025289884915040316
Ni 3.7214286023810637 3.3555856382424527 12.881888170154308 -1.399926590552118 0.42703169584449685 -1.7626598814288612
Ni 2.1781271063757117 8.445798793008555 7.515222291910642 -0.7032928738699243 0.12659289213160133 -0.46830741466483217
P 8.8102480162135 4.596641784928002 7.9895142024307475 -1.7234294751733288 -1.3108556066253747 0.2880887667879748
P 7.654322314073616 3.1623046388306215 0.5409548199963823 -0.40520920065276667 -1.0553414313393115 -0.38230864190550934
P 3.390952983680004 6.736071533970958 1.6694032470178302 -1.5650137821041756 0.8236449272981363 1.79380545379373
P 2.154218369285423 2.3235532157429737 5.4707137836232125 -0.545596575465299 -0.003759981263064493 -1.1820695634971965
P 3.39230930874968 0.4213989743891406 8.908309383354476 0.40568665450981745 -0.04772198866631136 -0.35825494339041525
P 1.7264802121395966 2.3022168193020702 13.391721409879525 -2.0763550359310305 -2.067671906334736 -3.949150435266418
P 5.918740693018193 2.6936148185465774 6.652557454749706 -1.7760072492700445 0.06946272277751264 0.5420854769882472
P 5.736441249687738 6.7061201348461115 9.240797040141654 -1.5243744113162585 -0.21022650709285728 0.4601858139989623
