# total energy = -340861.2800952586 ev
CRYSTAL
PRIMVEC
9.28968671947609 0.00000000000000 0.00000000000000

0.00000000000000 9.28968671947609 0.00000000000000

0.00000000000000 0.00000000000000 13.59639552987945

PRIMCOORD
 96 1
Ni 3.8633485155277536 5.184667123537588 5.737081138519043 -0.4486089077946403 0.5922171035373156 1.4499620578429544
Ni 3.2261967640771925 4.297009676698457 8.99842078792053 -0.4785432334602274 0.36440862169663696 -0.5356572048644
Ni 8.19002016231357 2.3224402899404133 -0.17837406396441974 0.7155881462975096 3.8792071733080604 3.6760483716952623
Ni 6.410924366090505 8.37451334300099 6.386621616342452 -1.5043187782169642 0.2518516388328114 1.2974575880519137
Ni 8.152749938702394 0.8047878663940043 3.1649006233858628 -0.8686513168054976 -1.669420882167357 -1.5000489471970166
Ni 2.4835513288458486 5.559459539188847 12.952810092439869 0.0001385824603933097 -1.129477134112461 0.2890341614203797
Ni 4.950734229475622 0.9055809686326003 5.993372450872976 -0.0747198574113939 1.1768808202074055 -1.2058574099454136
Ni 1.770372780278175 9.073859547860529 2.9759929835109964 1.377272600598028 0.5619557335496128 2.2021408587803037
Ni 1.8983939546514557 1.446134840422533 11.422033199322705 -0.2013739417982338 -0.4764171882561602 1.776017790793006
Ni 2.1678970596324607 4.043577729954574 4.12409980653466 -0.08556965564170424 -0.27513477773046807 0.12325868555204578
Ni 0.8594846135525877 7.29744847113488 12.711202059108823 0.09579596135540276 0.4852095897368095 0.3872641861385718
Ni 4.161761125961894 0.18433804291715508 3.4264545433359404 0.616805334399641 -1.0407522206712267 0.10484932980692266
Ni 2.0218724721588672 6.789627739902359 1.6471627347205047 -0.2702728216524765 -0.9631257311359994 0.22573488714110154
Ni 0.5248635907133438 7.207189873775414 3.732454969982844 -1.1208711376110052 -0.7090642291360626 -0.6483147178618319
Ni 4.016656217485684 2.3325753382853267 4.068857754758435 1.3962352577434598 0.586193523051055 0.7367758361187182
Ni 5.230223747812065 9.581475905982519 8.234710987774347 4.74534600810435 -1.477687548782681 2.132034845991838
Ni 4.624183157596256 6.802391769623633 9.45407714062767 -0.057590396819958874 -0.03522462753024901 -0.8380194508522535
Ni 5.399277468967638 8.511480485803373 11.08567128916922 1.7502064861568567 -0.7233101975321156 -0.20792125599844835
Ni 6.589722968743616 5.389402531854309 8.553492165578842 0.01952855695123088 1.5023619116009095 0.022656046836619044
Ni 4.915805006948699 3.5503325173775697 7.600466908305416 0.09605769965722166 -0.34846443966255475 -1.4567546552847557
Ni 9.223302740092077 2.6414667154775437 5.424064211400174 0.841669388900015 0.31446417145771005 -0.8297109309865581
Ni 1.1428451443962027 1.6285192621967592 0.052861105038551424 1.2997677242423291 -0.19023258046943367 -0.9099553177606071
Ni 6.941523409460265 2.0522404584462377 8.104254057511024 0.3555678834765554 0.386090991766077 -0.678051325694316
Ni 8.648438338918915 8.799144928561011 10.539776776413667 -1.137236466342906 0.389702106156103 0.7043318566573998
P 7.525370937809898 6.904355372404355 3.1946090419074324 0.749019943593394 -0.48610999006389183 0.7482087605460082
P 0.8430009932196694 8.979197638937828 1.2704705781100025 -1.8198152475939302 -0.6397902253305885 -4.139919862075928
P 7.694053071491781 6.607150421259709 10.323376308329115 -0.9901025168351593 0.1933680407746218 -0.11222453922507124
P 5.064309940809178 7.523884587915136 12.99997661944411 -0.6912680814949063 1.2291150949217735 1.18056906769227
P 1.4917379131312214 8.66497398149815 10.950944818833193 0.8430259029279095 0.3999350967380209 0.09965210187669934
P 5.220729687859269 3.3969040494906895 5.478123686041379 0.1596999590982153 0.1129130806516636 0.30767903021507653
P 1.4137138333430215 3.7987387435397872 12.01853421012019 0.28773472588266574 -0.40107718076226406 0.11817818570534486
P 3.946639847755519 2.128703870844937 0.263255790579581 -0.9355480786280469 -0.45611601480496283 -0.24694880221455537
Ni 6.134463285664642 1.7421692910250528 12.73484617005976 -0.749542134645451 0.5673704768072809 -0.3090584270611064
Ni 7.485601788438154 0.997619469991044 6.351841957773688 1.862629257435663 0.7188115383308137 -2.9285682617851627
Ni 2.7394357529160906 7.780419290064336 7.813249972333591 0.873155118213122 0.28153811015365066 -0.5438492537568892
Ni 8.54461679876974 5.361319808530136 4.884192202624465 -1.1308989541606522 -0.9959654033738397 -2.1555419279748422
Ni 3.2368148761379034 7.345634076785719 11.576351619209074 0.0640963162592767 0.04986885980598508 -0.6944500787673137
Ni 6.244843344724457 8.620132663110528 2.768511543763702 0.0435251769761444 0.00023422749799314498 1.2210834828665487
Ni 7.219647343830894 4.819517402828603 2.359368653075793 0.7186035360850657 -1.3719046514178954 0.3307600804042562
Ni 3.4157342447199643 0.8056415886148087 7.579895825761899 -5.244746287519245 1.4830187311876073 -0.3657579366356798
Ni 1.0708686507423186 0.20638897257464406 8.713032318439248 -0.5897742984237778 -1.377917690381195 -0.4821132101996729
Ni 5.411419089670481 5.771970415392545 11.779903521422092 0.20909367903999473 0.8179579042156881 -0.44035643797786095
Ni 4.778085399512092 4.647091525349286 3.7230463751489964 1.2013620931782214 -0.372274654708275 -0.1692418371503795
Ni 8.628093924734351 5.188791744495554 7.34558855732019 -0.29702000783933363 -0.08946976202705881 -0.4283015636958559
Ni 6.0662676945555605 3.3203848989709366 9.514146113687136 -1.793181704166802 2.6038942396739864 3.988536136152892
Ni 5.241213447346467 0.5922444762863585 1.0363277371254018 -0.47352264031718444 -0.33634657335309814 0.14002896303184914
Ni 7.178429003311756 3.979581077298197 6.269448009294885 -1.5691180340805362 -2.092593095056448 -0.5660669275045089
Ni 5.353414285027367 2.938625218187978 1.9804506874978833 -0.531646026822478 -0.8236552117107816 1.3847516825838926
Ni 0.8820018854895585 4.496933027230884 9.70570595915547 0.12354279245136787 -2.8220202041195788 -0.06092203229635315
Ni 4.857410035458209 7.004823335603472 3.4759453499881174 -0.7954324694196623 -1.4353155115743732 -0.18549120912970635
Ni 2.2595212409577394 4.103663424450357 1.4337804858910024 0.27371604300607055 -0.8533722791592401 -0.6967244766237871
Ni 6.918940180746714 1.4689874700545096 10.439476027577713 0.4011851670950381 -1.8866734428690604 0.7940936960035808
Ni 8.728766261043997 7.447226092092749 8.436414242305752 -1.5833879137359892 1.093217894670111 -0.6401725483706716
Ni 4.133919934495619 0.8021821092347484 12.046026109361195 -0.42639406226049786 1.1140320032019846 0.8181710486677587
Ni 1.1887454870838434 6.030520979586518 5.681947776078873 2.0020771511530615 0.3732251915470024 0.3988511196452228
Ni 2.7175771197762364 8.845621231832872 13.361858228321987 -1.5519525780448433 0.49317332466857644 0.007559300404496658
P 1.4945712676181127 4.1863509270333745 6.925487552033144 0.38722022027451375 -0.35848839955746004 -0.25120989148375444
P 7.542250298802298 5.336572082782337 13.509990645740091 -0.6203513998796865 0.45285534177582004 0.5859091590414167
P 4.16072068103556 2.212246024617443 9.274631975770339 0.3837908828779907 -0.23761929728351336 -0.2742436333747664
P 7.421688742963357 2.54867203361014 1.9952435848255095 1.2527661586818102 0.5352661400735684 -2.1081261576950405
P 0.9044141839652116 8.357327422342797 6.400190132944266 1.6315372197477065 -1.0502246789380365 2.362893941733382
P 5.794330691621881 3.740854704825622 11.7466743115873 1.0906642750103217 -2.0587175253549255 -1.877347023261812
P 2.5732339656210934 6.16744167395469 9.794761542068862 1.0250980590737375 0.2754188846297902 -0.7059786482322035
P 0.9180867450596601 5.081718813951586 2.744772678006973 -2.0172708281743645 1.000418811159503 -0.2006478622654867
Ni 7.435205237318855 8.887508429804654 0.9958683640212768 2.1298530078491704 0.31506298138397354 -2.2227819320694233
Ni 5.041057854642984 3.984829750364078 0.05417838263278488 -0.8326322183984112 1.9428957556968989 -0.23479468335052464
Ni 7.135139062626791 2.611563213532287 4.042235370205867 -1.1633912703614029 2.256658787322526 2.2211760210348843
Ni 0.017617891096359205 0.1472935586962473 4.857706376468478 1.7743709992182024 1.882455805243287 0.4283627559510945
Ni 2.8012493291645346 1.8999174632935873 2.299299680016327 0.6243589783771828 -0.26904486278264633 -3.293700649021702
Ni 6.405174049935143 6.267788871224857 5.644529846446906 -0.3876663066729969 -2.0303356317781227 -1.0165617394679525
Ni 2.632492877987914 9.392244985005542 5.395430609646255 -1.418919586714853 1.0561317884510908 -0.19033876702999478
Ni 0.3831847187445626 1.9986854138005692 2.0846261647157487 -0.3385790622280427 1.0574157973698368 0.9410363554361277
Ni 4.176624624909521 7.7401206285425825 5.4713803023625776 0.22939716648403718 -0.023418378923940313 1.0182573820028205
Ni 3.8692567563594356 7.957127713177937 1.4797365666996964 2.2412925892791016 -0.0032529597196589138 0.20617110607656103
Ni 2.0386589362828436 2.1417744602320066 9.443349410262222 -0.20959067328107134 1.6876723721783773 -2.114488095357326
Ni 7.606367717387624 7.367409102743991 12.630480254261629 -0.4937960458542399 -0.126784182206801 -0.8660305913531988
Ni 2.859170526626069 2.562272135147218 6.030341688630462 -1.01303341459972 0.8953769057257999 1.0875509261923206
Ni 3.6658219042006324 3.3269155488210505 11.212213545397212 -0.12391046020343176 0.06984915958265389 0.5054580555732004
Ni 0.08304701346381355 4.521476379868153 0.6530937830405751 0.15622999827174386 -1.2166676131870402 -0.32051629118906094
Ni 8.91568404999725 2.6533017765145916 11.27954240872391 0.6116903817705789 -0.44181373924967776 -1.1606507315017882
Ni 6.082459618721631 6.597470567570067 1.482455658038428 -0.6906168210641526 0.33462342001440437 -2.541079361230295
Ni 0.622112677421615 6.606843861593915 10.435423866177116 0.6160216621560811 2.82935736121094 -0.09145748188104895
Ni 1.142018362267241 6.122767569930229 8.023491378041724 3.3206717782939066 0.06816277301916648 0.6574575607033645
Ni 3.582437675104444 9.47640954779648 9.864783485611133 -1.536899540366463 -1.0459090822818182 0.6121318401833715
Ni 8.858348102806778 5.033356704250745 11.569403862419744 -1.720672738363798 -0.13274039979023589 2.4327981229236877
Ni 9.031795845838744 6.771754382417837 1.190825447967827 -1.695787030865712 1.1316571724829154 0.6911369552336807
Ni 8.31246752458149 7.629387561382761 5.729017690339955 1.1944293706141302 -1.8508628609283546 -0.21199079808213167
Ni 0.17764110767256489 2.514198005738487 7.8183899560634185 1.0469138693972486 -0.34820861489800675 -0.5433581730530835
P 7.70945537227626 0.11383210669040188 8.328608355469928 0.2944890138873638 -0.653923579408177 0.9858797370030634
P 6.332194270102294 0.6497940862742019 4.398488357826013 -0.3735830891070534 -0.5154714739451445 0.5727885624990587
P 5.070887039093503 6.866499898522117 7.2014126175282085 -0.8117453476470731 -0.780275816283882 1.8236351355606528
P 4.017027804959375 5.073841159509344 1.8633448951642668 1.347230288599667 1.6784673086403414 -0.9234536093573579
P 1.6118442743148902 1.8133840303578708 3.9910315452999754 -0.8175400999519791 0.16784907056791093 2.221901072126367
P 2.696210840039023 7.284470778616233 3.9030359156552863 0.5808289163050319 -0.018247890466594377 0.3752051980915087
P 8.088948369469705 0.6430934351548748 12.506930206165531 -0.6821175253438897 -3.7423859185802324 -2.5324450825940645
P 8.179104780273905 3.711973068433014 8.902362639065439 -0.6920898060652532 0.7234935171875152 1.2617621915328334
