# total energy = -340888.4690359911 ev
CRYSTAL
PRIMVEC
9.08396839372091 0.00000000000000 0.00000000000000
0.00000000000000 9.08396839372091 0.00000000000000
0.00000000000000 0.00000000000000 13.29530596581181
PRIMCOORD
 96 1
Ni 6.5655560677811735 2.17482006529899 11.813144632636241 1.1705589917544357 0.27565362634841556 -1.5750074029817778
Ni 4.572996739326711 0.3356617068950432 6.085341175808032 -0.09783356061072183 1.002580851807828 -0.09083604624696613
Ni 2.683358769945639 1.777687145972382 5.098218151470118 0.7420527682469414 -0.8017836084486708 -2.1594818864591976
Ni 3.551586277228647 4.935655999546213 5.10031836490505 -0.061606974178519694 -0.9603525392662363 -0.5187416600559841
Ni 3.8357237168099863 3.169387401531046 3.020161423239589 -1.7202281946272115 0.9507453551937756 -0.9811337376776457
Ni 5.116072690857474 5.147848411425764 2.539908378600242 1.5607380375469573 -1.6114928995023214 0.5176425134545344
Ni 5.704404971682469 3.3353969193656625 0.6075448734499035 -1.2739353365602577 -0.05779968461728756 -1.1621468564313406
Ni 5.863883116421431 8.277856811051855 12.791240917829297 -1.736634661009693 0.6073112788662767 -1.9678963915062948
Ni 2.5970701565442145 5.316564951767343 11.758022205540632 0.14917154876306565 0.7178733427872604 0.7185618842138528
Ni 1.0332196206854782 7.8666346571336465 11.817119777096128 -0.5505945429005228 -0.08666545980904429 -0.929112350305032
Ni 0.4163337027929299 0.18568811802532129 4.878233511716502 0.4381617443193873 0.26351364855177195 0.36088723880693974
Ni 8.545243413375353 2.3898920950802425 1.5768896637328709 1.1501629445965869 1.5611656120026791 0.029657674965432795
Ni 1.5191755805257325 1.363458198598455 2.903189890637619 -0.29400307538988074 0.47931816395303906 -0.5520796120864814
Ni 2.0534764188292334 6.828382518096301 0.5671884365726358 1.0538519912779785 -0.16382940788555655 -0.2614374827490336
Ni 7.585331415613287 4.60841513112081 3.902969607790797 1.0362859573697574 -1.8299333098645387 0.675695680977946
Ni 7.737651393454647 4.498253849436521 12.802276122330829 0.8364035125153853 -0.97070071526978 -0.24842795786324315
Ni 8.056026308971344 9.138926151437262 7.183932664846179 -0.04345807118363483 -0.6000954778441278 -0.9485131234291472
Ni 6.896385103623521 0.9914787870630399 0.5521299425800534 0.5446020727625136 0.05876076297897623 0.9371599031998569
Ni 2.0394689399509307 6.753730467887552 9.507938738976792 0.9048629908393643 -0.6220136180734578 0.19671227465650637
Ni 0.3819399826054921 5.336576933588938 1.648206080839082 -0.8138590515559662 -1.3816997831314461 0.22611978128434604
Ni 6.580299348079153 2.191825253664867 6.948339042630444 -0.48802777591189506 0.5040758305136932 0.4037788959641433
Ni 3.5643220005667664 4.632351387180685 0.7978721740064499 0.6252359816654973 0.11401402702532625 -1.7184047682652275
Ni 5.753612827119412 5.86706250527189 4.813910841684484 1.0546282073223707 0.7479513931195635 1.2757862737260675
Ni 5.464788059975683 3.1853479335603443 9.14501604368111 1.3037963857857482 -0.04040899994466589 0.23889173623803373
P 0.37981887604382963 6.030346832663256 12.68216607873505 -0.25533136985129573 -1.0125613600593077 0.1668900490887513
P 4.3318264690672725 6.5316637826352935 12.706735487374571 -1.2012780181048472 0.2740644274844247 0.765213779744437
P 2.565603290892827 8.701124306729227 1.4931954316334204 0.7805146717675655 1.0819742034354913 0.7330081415461699
P 6.326438774322316 8.067190505820523 6.196409945909923 -0.1346108773400714 -0.10531084282437347 -0.7420805361610833
P 4.85022127915034 1.527342067887337 12.813762800049126 -1.1201185757156966 -0.6687791563637707 0.9478526070270127
P 4.198382977029488 6.2988507630684865 8.668632769471175 -0.05607884527143891 -0.15768601399198007 -0.8550931185050887
P 4.673429091128599 1.4633182604072617 3.7405010207387757 0.5420571948534729 -1.8376882712196092 1.5922857304462514
P 0.3146096107209407 5.960155010813292 3.8941681510559154 0.4058051823655527 -0.4346511600629675 0.2316304266899301
Ni 1.0522051141067834 7.685909110905483 2.8142569341094283 -0.21288374221004627 0.3841192127516868 0.09886174476492006
Ni 1.9573407839595343 6.8604125897726265 5.190021641931866 -0.28324223732895093 0.5848472934358057 -1.1137196141678884
Ni 6.400236931525513 5.717358710256049 9.490122352255641 -0.8318814562753157 -0.29747252199571994 0.8105796094737459
Ni 8.853362528857287 2.861786072233329 10.161442132458468 -2.20111704550148 -2.167123462164855 -0.05531137097779506
Ni 2.7369996018369336 5.4614633276349185 7.242577854788094 -1.8522893089622359 -0.4560710204996403 1.0216784918692277
Ni 0.6734318027963471 0.22827921106605362 9.096169730176305 0.3365751444241365 1.0337179395322649 -0.25353853961693107
Ni 1.6176185433040495 1.2182146319414 11.435851099736489 -1.7913371947588956 1.2959390945248586 0.11004887172999113
Ni 4.417660884061489 7.095187746458572 1.6751418631801602 -0.9520810432860634 1.9880291577004277 -1.0033771224568784
Ni 5.872213115209631 7.880387784903912 8.383754078089273 -2.445069741202189 1.107762882363821 -0.25512799559123805
Ni 6.822468854834449 0.8405695494744689 4.897923921065795 0.9698183126648265 1.713049160380269 0.6672516639756508
Ni 0.8645357826292196 7.516238753908768 7.39907645797577 -0.2109415308820109 -0.2881885255906327 -0.30834211772037223
Ni 5.022616826590305 4.808344186005739 7.345137671929346 1.9559263636286122 0.930863528668184 -0.3367468941153104
Ni 7.992529371643631 7.774432380470371 9.308615584767079 0.9924640750888005 -1.251974001797818 0.007037366462755622
Ni 4.660884131121508 1.1277201412892275 10.575432171470204 0.5121663208313114 -1.5058465277154 0.3921675369774601
Ni 8.014567078361374 7.330389849647295 4.964852781558373 0.16078393619101342 0.25609781570367507 0.6318550296439117
Ni 7.261914897776579 6.3210338132765385 7.37440076690896 0.7261461243190139 0.10500179622438692 -1.3480607549207622
Ni 2.6040738959833662 5.594915903640848 2.760211865635718 -1.624415006880628 -0.34058863645890375 0.5586441526778766
Ni 3.6749283966901203 4.3999471461803665 9.789718888824721 -0.9719906377257969 1.5349411310885115 -0.4744536367718861
Ni 0.9940041302071178 3.6679337412191133 4.096549877339768 0.618112997467471 0.6723272787263453 -1.1010062803662781
Ni 0.7233763680497811 0.12132820372391183 0.5153435051834426 -0.12266013273609844 1.597903590853661 -0.08120675068731822
Ni 1.3993852926086279 3.763787773076343 8.279199421543563 -0.8771467558710184 1.1794784057312526 1.1403421018514233
Ni 5.409684709213178 3.288251124697446 4.945294998143986 0.4736365401872294 0.11017177046110058 0.030073165236296596
Ni 4.012379645309564 7.093334616957163 6.363039898768786 1.6726424744284485 0.9895767262386764 0.02313427202461822
Ni 8.563493105376981 7.398692206123272 0.8111810957344662 -1.4307476896980327 -0.04667914922409381 -0.2253430510193216
P 0.1751879592474809 5.996990501637882 8.87300751836586 -1.4317715029768567 -0.4473832629176553 -1.7605983709141422
P 8.767873304652552 1.9941944427204121 7.906891170361329 -0.17494968616843418 0.36300325670867806 0.7958829266935196
P 1.733829747772353 3.2337927356731764 10.568664615202803 2.106035593714599 1.0385264166645016 -0.45588281574823425
P 4.074604827097095 6.678778646730046 3.8187975589669634 -0.3460211203283847 0.709060886701953 1.006889506485511
P 6.932384869378846 3.954996218542873 10.713277754470653 0.43757578990893026 1.1178457205211199 -1.1462926630079033
P 6.269164355173356 8.411227631344486 10.501084434194286 0.4318103481800628 -0.016291795181488072 0.6956479557301568
P 2.1831500640871893 8.870494892777185 6.236243146222087 0.7894417990538661 0.16158303505354105 -0.8841918356432579
P 7.152135142754344 4.414817602032365 1.6778007406559574 0.3896833371030256 0.9105854951454382 0.6969396779583868
Ni 2.6731756416560293 1.6909897540044707 0.6292364809813552 -0.05519001490858237 1.536769442546502 0.4428524649268373
Ni 1.804003401686028 1.793938364982293 7.204274394711408 -1.14912936112575 -1.8212231836850505 0.5026735508495279
Ni 7.07851866491403 1.1503846418089194 9.14328827294009 -1.201833376387685 0.31728698561848584 0.1837379738840255
Ni 3.1703593861224717 2.1937056350707094 9.14429841019772 -1.3869335207265598 -0.4804301660702951 0.1889359731451972
Ni 6.330581063796055 2.553948559763863 2.7770035807502076 0.9509446156887752 -0.533217742184972 0.365032628433881
Ni 4.314494257848206 7.3032832887051065 10.54247280985273 0.21924285165885468 0.5440685688565469 0.8475345894315405
Ni 7.409275029011225 6.61885170888299 11.66913012686909 0.7874566503030374 0.695816362987221 -1.2868021652205965
Ni 7.9771956334162795 4.198364809093199 8.227388100836503 -0.08316336019305677 -0.6346156231081844 0.007465198028793594
Ni 3.219876096476316 9.033724716359686 12.443794579060828 1.2570095073391963 -1.6008284778099398 0.26958299467430347
Ni 0.42878509792813696 5.023452551659568 10.772309013058695 -0.8528899402061828 0.606210332492614 -0.24194594968332525
Ni 8.630977904719984 2.6829590753472954 5.771625427552476 0.2339228222685326 0.7350863642314373 0.9833430866241388
Ni 3.4108665267073857 2.9223034680097566 11.844947605108963 1.1096629276000114 0.32989233308732213 0.3647230676132622
Ni 1.0081387846394385 3.4055069855023286 12.719233210747316 -0.17340805271292714 0.2547603278391741 0.8199096286254203
Ni 3.256429984288436 8.746907506175818 8.203589012695604 -0.008095118303308639 -0.12031657220458634 0.5627879996429211
Ni 5.859577315521097 8.328327338060836 3.7630238113554184 -1.8805470182563482 -1.1386770554441743 -0.9009508002691516
Ni 3.243176474766099 8.785023836508735 3.693808516080953 0.19678606531723528 -0.3031256065164392 0.22828490725646494
Ni 4.093181541951912 2.8507036310974474 6.859805780700597 -0.6501934229417834 -1.0983266766515858 0.40906894071848904
Ni 5.168232835941271 4.89656768462187 11.693766756872881 0.4265501282223879 -0.9136222250892331 0.04192132282413425
Ni 8.159801561050285 0.1317338892330529 2.703268102927205 -0.34858913816587705 -0.5005156239662605 -0.12134552768973295
Ni 4.756283964571529 0.6205267723247299 1.5530242626245205 -0.7093241676656687 -0.3746017601795549 0.7327302052944348
Ni 6.361530143263226 6.217503828337488 0.37662313605071235 -0.7479074272555055 -1.4700143485081394 1.4905011556075813
Ni 8.129052328882286 0.29769617043331975 11.010680512732915 1.0622433006654675 0.43941541422083036 2.263997229965469
Ni 0.23444540864231286 5.403453107066281 6.1882198402311435 0.026345065652432043 -1.0914744296164427 -0.3328329037728849
Ni 7.283825428940305 6.554564466326734 2.787187617436631 0.4733071818722687 0.25801277333820083 -0.784928484564545
P 8.44534701569397 2.027042071529713 3.768129001452439 0.22394205690673688 -0.5706380918149592 -0.312572610861952
P 1.9008748379754044 3.6652630545847287 1.6533639579513388 -0.34309211960704783 -1.487437171970277 0.5586068716820379
P 4.898175546983388 1.226708142156194 8.302958540224626 1.1755556736380786 -0.039231691807113084 -1.4015175891883218
P 8.568107761194218 1.7741262304598693 12.74678125254131 1.0848934339648155 -0.37466089555226445 -1.0542703097623198
P 6.461626388243781 8.141524617144226 1.5782459001767948 0.6579350145604153 0.3029446008538847 0.5187306043123905
P 2.0682832869042223 3.6032649720008023 6.035736350963189 -0.5334218877759781 1.0763555716971334 0.5752174836555255
P 7.049231951617243 4.506374916957404 6.099712921808916 -0.24452579459535947 -1.0220531015998269 0.44514460339512374
P 2.363857442379065 8.720709342048046 10.27636704703756 1.2188813330089072 0.21602794426598282 0.4431676821744109
