# total energy = -340859.5608575766 ev
CRYSTAL
PRIMVEC
9.36396857128380 0.00000000000000 0.00000000000000

0.00000000000000 9.36396857128380 0.00000000000000

0.00000000000000 0.00000000000000 13.70511452852354

PRIMCOORD
 96 1
Ni 1.496652450179862 0.16826864124758079 13.35868990796724 0.7629468380871312 -0.5676111320631773 0.09047969134881191
Ni 8.548413668383771 9.174488602652003 8.013325606891552 2.754490693809037 -3.369787047763319 -0.17132083116659527
Ni 8.536998990775741 6.985389409437934 9.493888886385509 1.1964060347245264 0.8854267364916236 -0.27345636158678066
Ni 7.362214230030547 4.804062310083311 2.5875529082603586 1.9126397850258348 0.0536362972682173 0.7059843046591583
Ni 5.087547092614517 5.69118595834391 1.6762861400023954 -0.46943381495979153 1.3628476834219496 -0.14030149996694546
Ni 8.158076641237928 3.3070165732262247 11.386455543353009 -0.5398689289529024 1.5077460587309581 2.310833216482401
Ni 0.19101559354079622 5.313031454223536 11.227476895259592 -0.6988284103406674 0.25660072348202256 0.23345668126539146
Ni 5.7240253958922 3.8982762725915348 4.0557819684390575 -1.3232904899546178 0.25770552651042716 -1.7494513531583868
Ni 4.525989901348203 7.7410054840092855 11.136337389796944 0.014749133284716534 0.854818010466831 -1.6933354840014256
Ni 1.7362108564524334 3.929842210423096 9.442302783889492 -0.4190638471476718 -0.25828916692803905 -1.7216356164976994
Ni 8.432759293374097 1.2795488403831383 5.922034937509649 -2.86848698022255 -1.195409218028896 -0.21914694951093872
Ni 6.442944077891055 8.561335944921167 8.512986966337452 -1.142297168695265 -0.7078534966574132 0.8048182815099365
Ni 4.059420806600238 5.8421331306502795 12.69596533736589 0.3795241371818367 0.2909285502296151 1.2284306672602392
Ni 3.858479406443763 7.064992505701982 3.6599098995096946 -1.8551067238063728 -0.8257743149363134 -1.6949339388367972
Ni 8.401745829684351 0.6896206973392904 13.644496954687774 0.054102952491990694 -0.917964818328645 -1.4843523623973662
Ni 2.642792831267166 4.444935389965825 11.394678980494412 -2.253668594345951 1.7047331843154063 1.1299479031012927
Ni 3.356177407879354 1.6639303835595756 9.021254749236624 1.5683983823056924 1.1023046874627274 1.7290627621997061
Ni 8.449708076368795 0.015297915347203235 3.444286733133669 -1.2532947774917707 -1.6597514773983932 -1.3669665906863295
Ni 2.8478637415345047 0.20562712999655672 3.3214342755339246 -0.8559120148619582 0.5448622684024358 0.9904177340827329
Ni 4.091286391423972 2.109421185201979 2.223682201698057 2.0716221492317355 -2.466886322856648 -3.0628862904751633
Ni 8.882548156560459 5.423189179720566 0.7999853665402895 -0.450323833603218 -2.0299602507165746 -0.08233135121006466
Ni 9.260618384964285 6.94656639601472 2.6083577734855625 -0.09758493493502549 0.9725444533467379 1.2991239200107434
Ni 3.221158346000598 5.617734989387882 5.37207595763407 -0.5400023692069732 -1.0807557576473583 0.22825431112884562
Ni 4.043511424109636 1.074637117580391 13.420692489028617 1.1342321322989433 -1.2406598623365792 1.7224735390179624
P 0.01703493150494713 8.790940452672542 11.7600984874475 -1.0568696950583798 0.10835220075385855 0.030981021762546645
P 7.273509356379291 1.294343910621604 8.237568306276762 -1.8791527090119833 2.670498152846465 0.3978021095554181
P 3.7141993797132087 4.937976423678435 3.158453467301319 -0.3375611624864896 -1.19624508366663 0.03778081829319945
P 1.7761669100647957 7.340433639287085 4.224067464829948 -0.3109538443116064 -0.4944714746547097 0.26862500163640834
P 1.3475780715745638 1.741979061051734 9.557521734363668 -0.354295444522035 -0.6691889902076799 1.0740130396068857
P 0.9338226955936691 7.6177569305417645 8.214941212780415 0.046014519056901404 0.749076250752626 -0.35828991039340874
P 5.332602148399734 9.150338927876685 1.448507606109564 -2.046127347394741 -1.907587310203592 0.4730721830433272
P 5.287121353369211 7.114097156544079 6.8606566669623135 0.06944138262127394 0.49808053216220677 1.1318618322945537
Ni 7.534511250529133 7.539183870813307 5.004367896778273 -0.7105171595325055 0.040121550611234125 -0.4591810268835318
Ni 0.9834788841807317 2.9959080836042133 5.850891250393341 2.0718149819688323 0.6581335037244666 -0.9194450024185972
Ni 0.5076853440581398 3.705125694231517 12.893812882328193 1.8451431848357578 -0.1212326562609525 1.3516849819369108
Ni 2.2894247517804738 7.59287686622303 6.492702333734825 0.05118217930076992 0.29945175720927786 0.5870941804884534
Ni 2.926811360003177 2.818086321687466 3.694939569291388 -2.9613297724869 2.189912435034912 2.914980238688083
Ni 7.627223902700681 0.6203020476846773 10.700748048452105 -0.7274602151447472 -0.4800586416634894 -0.6787882038603407
Ni 7.595770332491184 7.999975396993465 1.0819822144759939 -0.9711036071351533 0.17527390227707232 -0.32220859128981927
Ni 0.3370317000322444 1.7204887533319377 7.59377112521529 2.050258081733663 -0.1259460025762218 1.3268854063947277
Ni 6.432063146487829 6.224492056629559 8.914218034442431 -2.6488983151885024 0.39697961365412276 -0.2511206742040578
Ni 4.221426825711436 2.9966197452106207 11.824347484553313 1.447243630470527 -1.7906730788123355 2.435006443428916
Ni 4.074328244460769 8.742828382492014 5.19896708106607 -0.8747139780598098 0.39627975937362075 2.9962060155387946
Ni 0.013471941488658441 4.169953090837484 7.4588578761806446 -1.1750193415186345 1.2648781114539958 2.001195776989373
Ni 1.66051253505512 1.5944403732813146 1.4994082661109887 0.0667358107646528 0.8107302761189973 0.6614453417065189
Ni 1.7895761129644683 8.846290870507714 10.223083587422144 -0.8498113012808591 0.23582081062219384 -2.47438417389559
Ni 6.524148412769519 3.6145012070366627 8.3466885040634 0.11651519618062516 -0.23697369327971446 -1.5414020562225066
Ni 5.640405157139354 6.141068461215327 4.974833003715524 0.14772890277926815 -0.4747030337785308 0.27245543112609205
Ni 7.320207467315512 5.382643196092367 6.930333956610682 -0.573616971937625 1.9586723018048653 -0.4997944295295199
Ni 4.909772150540297 1.6683501766941047 4.461015196683225 0.029312890031504356 -0.8779959912451912 0.9098172495208461
Ni 7.07961902450735 1.9858823487107917 3.2783047729950963 0.26708362529121743 0.7461171681243022 1.6019348235002413
Ni 8.840709945278519 2.825418309027161 9.358221837886182 -1.1359414016805662 -0.09271243733407258 -0.24936512496553187
Ni 5.55460311372476 8.474269765758349 3.605788034342427 1.9225423888515276 0.16138068923474788 -2.6447786365931742
Ni 0.2276081096660339 8.469419230072573 5.236600870489103 1.3592008306979817 0.5814480379462695 0.8912212316862135
Ni 6.815012002482946 7.615912228746209 11.18906121446636 1.5862724343726358 -0.7186912107028655 0.007297304992361626
Ni 3.663381122634631 3.012416760079159 6.529253648398639 0.2890179634704635 -0.5074046377766099 -0.479254143484323
P 3.8163509121381582 6.1415834794831206 9.987643454498228 0.6443017400476969 -2.1762485643945744 -0.5598507713914681
P 6.797089366763691 6.8282245620440065 2.661848507175569 0.29654358242354734 -0.10999642122550089 1.4451690073296855
P 2.336488057488403 1.1715729195478564 5.422825857742558 0.08888586449913079 1.0265378768440578 -2.217224492586304
P 8.702769325226093 1.5862656287761372 1.7904638171787763 0.8356794898651673 1.0608919288438956 1.1325508879417785
P 4.958839345508372 1.1869860117076756 10.45705732287812 -0.09359175461523236 -0.3274274164865974 0.7086808776547149
P 2.0348184481197924 4.503291641691215 7.1171067360217 0.8659084639530377 0.41949013605181307 -0.38481418193618244
P 7.82261246953348 4.949419193191983 9.822551071367664 0.443119859655611 -1.2553922834507476 0.20576152934296824
P 5.53039725513841 3.8283929756360484 13.316698127601814 0.4436204534411134 1.3356757509928479 -0.29015721928122934
Ni 2.8040122770239133 0.5934162213120938 7.300741649586573 -0.5861559849449002 -1.9762799875842993 -0.8936658365719642
Ni 3.0555191071093217 4.0282575194144075 0.8233306764209973 1.0457293621708441 1.7106086692595766 1.3837180991130558
Ni 2.7363388766356915 1.023669037005728 11.487325148489573 0.6360312725087885 1.2082871024328286 -0.5887476569314765
Ni 5.3038547650882855 0.5733745195200762 6.993938712683326 0.36839383159663003 0.5660738694830445 -0.49887860258346983
Ni 5.705868660960311 3.5424173774824177 1.6845367326524663 0.03844364868817895 -0.7619744468715329 -0.42583510443323436
Ni 4.013986831412242 5.151072254954865 7.68889780846752 0.9094205283030595 1.083719211151056 0.9727411427385764
Ni 3.207552499762313 8.1388055940539 1.5535160853254983 2.595714274966355 -0.1880000915944891 -1.9538334856553252
Ni 6.385140300307481 1.994787482759387 12.48561970363948 -0.09335007091807149 -1.3798920404987463 0.32497381273978226
Ni 0.3426266712141958 7.3560152828800005 0.1857923719085076 0.3331761460449165 1.6672120474414966 -0.22066621436894251
Ni 4.151309429543316 3.769718348981476 9.883333527332795 0.289876711926333 1.6332804276910582 -4.255424871824483
Ni 5.8702531280718695 8.72054213744926 13.048392338017793 0.6516363260358972 0.3887518264276918 0.34149829275736665
Ni 1.9756475311344355 6.047822062838972 1.686318695859036 0.5271118863975502 -0.07362302480278933 0.13833357760729725
Ni 3.811584652168931 7.878908648187692 8.516508754892318 0.29696678600389503 -0.46895687532337293 -0.18942396852520926
Ni 7.79515731387577 3.130927145482969 0.33135526232429646 0.5290003616695148 0.974491806881096 0.569931809776554
Ni 0.17932655165555794 1.5832317029804013 11.772597512608453 1.7668353529627892 0.3679780842154501 -1.0930597718256916
Ni 1.7233260357890612 7.503759977957537 12.043766803761411 1.4078517589364659 -0.9502409047535312 -0.4724294072530058
Ni 8.051346128213858 3.847898122032709 5.522503429688393 0.0868004427250118 -1.3035824700027292 -0.7427932459573917
Ni 1.6785569023649447 6.43564954642538 9.89458527188883 0.6103456948172262 0.07436710205766549 -1.238045564642184
Ni 0.852046222239528 3.8482352248989016 1.971247402333768 -0.9085520096551772 -0.4886029316890747 1.1886364180814366
Ni 0.6059274196321025 6.013287746991212 5.750515126397008 -0.3724091234036102 -1.0843941257308936 -0.4618464895308369
Ni 6.234689418331895 2.9373270966346943 10.416297840767996 -0.28598354751951394 -1.1313884922025612 -0.5838394209965816
Ni 6.5157302050832016 1.3229789263109883 1.2164066643546594 -0.03629574910724072 0.8814335561718304 -1.4731842615956887
Ni 0.2835690582477539 1.708100222999349 4.20372892523631 2.065502666597559 1.013163512419681 -2.8122500121066922
Ni 5.842769880508644 5.2062447573884345 11.040114185832735 -0.12602724943611845 0.28019059498682064 0.8515622225336946
P 6.636534762770824 0.30536556773767554 4.9272078598972735 0.6877487554877381 1.1127821899552837 1.2642314790089322
P 0.11263168597614613 4.118891370577767 4.119551530357395 1.4909570121980775 0.5500990913213429 -2.3249508868307056
P 1.2743424738941593 8.78289680372644 1.7712901552672053 -1.9709601180332827 -0.22585701454126264 0.4353862384567792
P 1.8363584996172366 5.648851456731187 13.124839776895534 -0.5255288581811466 -0.8889020966347336 1.035937315781087
P 2.605533600584347 2.6000650429772176 13.222571516185955 -2.818090530047869 -1.8599236855790422 -1.7186017147673822
P 3.7549326427115157 8.213408331136089 12.950921853448673 -1.416072089963729 0.33619950625227263 1.8965613914067336
P 7.730208828322608 6.436080288976628 13.050009495378669 -0.5710078164495521 1.2353479632053628 -0.8677041224008798
P 6.031819040663315 3.7909277376461112 6.0133383124211415 -1.9856632285714124 0.003327778821652334 3.0650411320346374
