# total energy = -381160.6064803077 ev
CRYSTAL
PRIMVEC
9.34570303739429 0.00000000000000 0.00000000000000

0.00000000000000 9.34570303739429 0.00000000000000

0.00000000000000 0.00000000000000 13.67838107337442

PRIMCOORD
 96 1
Ni 7.534468291667237 1.5631155378131418 5.151524331589807 -0.7008387559024769 1.931272569635674 -0.8636119546093771
Ni 3.1600531744056672 9.238937585777194 9.541710322487798 -1.4355196571653792 0.9418557660136295 -1.3181973917024266
Ni 2.8838596167303105 4.495815797876157 10.320187747719961 -0.3427527339897581 0.5507104996530967 -0.22041321781787204
Ni 0.7866418312818084 6.304414913649526 13.706284503492599 -0.32314550128179187 -0.9579799252690018 0.9127202821002538
Ni 7.478010900474572 7.339442163640664 0.5892540441335019 1.2852661881920446 0.19615305971892671 1.054520478099913
Ni 4.4982176435203405 5.990707704551001 11.945015765463996 -0.03483947627668839 -0.6999679232617494 0.20293640118934725
Ni 0.3828149437307512 4.295640187554075 4.561219830450835 0.374238206192549 -0.37068828405776155 -0.6154611616669207
Ni 2.4661347344031213 7.011006126778582 8.848120851227181 0.12336641477450366 -2.1085267355675685 -0.26260553491520583
Ni 5.4960583416896585 5.976483544743811 0.6826082703582215 -2.072397851055495 3.5303061603287205 -1.8721852765552145
Ni 3.9287839660879484 6.105697232979168 6.844593737307643 -0.09863883012083657 0.9510662288683038 0.21222168314601517
Ni 7.106285567799807 4.554347935111657 10.082211572895815 1.2115657731841007 0.6037284466110248 -0.08275301212851555
Ni 1.2305113174595985 4.498012038056636 6.680274785285329 -0.30882548511469393 -0.10208102303316613 0.34979164311441047
Ni 3.600815214370651 9.255488825605402 -0.5124342354717789 1.0497492819635146 -2.40482169231542 1.6233860513954814
Ni 2.1172129167937603 2.4751159548858483 5.149021552354351 -2.0103424764856475 -0.04310737271243544 -1.9399826958151625
Ni 5.225565662780652 8.386646864504842 1.0575531976805397 -0.05364529612928181 0.7933154230766595 0.37000282795496275
Ni 3.7352905333362623 4.470171189130474 1.6291634893173303 -0.09950760587903508 -0.8348284547187815 0.4679636581721683
Ni 4.322238057995116 8.449562136398406 7.616929166596778 -1.6844983453257698 0.7059372534713068 -0.710464451917699
Ni 6.878689665181868 5.317863824578162 12.768193687646088 0.25522878283516043 0.6862703711699988 -1.7662375714777903
Ni 4.114118600211726 7.170845683403007 2.706185655270103 -0.3964332542323495 -1.196176435212224 0.9705942715989028
Ni 7.605579745000292 2.012868143963748 9.345083275555199 1.9479130064058323 2.328125170793629 0.43571148300668183
Ni 8.473711432680783 3.4358542125594065 6.559453538250272 -0.6770131142377889 -1.0021895299066805 0.649502824632662
Ni 5.365835317541571 0.5810513207019835 5.878858332295777 -0.03602501194435732 1.1065981726317586 0.6149405132767602
Ni 2.2359874548946674 2.372836582395776 2.5553263845581156 -0.9986210958291317 1.7759560843171351 -1.6147152630943613
Ni 4.310770880542145 2.029615643552766 13.113573483857994 1.4121871530870262 0.7939443149099101 0.23131340967014358
P 5.235649676205067 4.083548806040032 13.583411874671947 -0.2349360940243954 -2.201543334405621 -0.8685574715401105
Ni 4.48896539765364 8.589476654449289 11.132875118401678 0.8700685088679984 0.23227680202467738 -0.13292577632816463
P 3.9179242593231947 2.7978698043873687 3.742459622027521 1.7841926132943142 0.8592907015262039 0.6347776026073455
Ni 5.1033332146083525 3.5104235759638547 11.269672844536858 -1.3900049605630318 0.15701418473593606 0.05910529080258853
P 6.8925867253877104 9.019154690780024 4.496822330078019 2.5743671767491474 1.1880669187312118 0.5583937272299674
P 2.825533084958514 7.320283472704566 12.024035552587357 -0.8946405417804075 0.422729211814401 0.08204235921473613
P 1.7769358743628825 4.556347915531329 0.7364797055596581 -0.7156218277489224 0.2942360173362933 1.1526947098795053
Ni 6.447348093735706 7.674962243297651 5.94952119188984 -0.5848526927524444 -1.5818622211200821 -0.47876203433925285
Ni 7.104014561996163 3.0594186456252306 12.010029147657637 0.9292051671291545 0.004309426008631287 0.5328863269874824
Ni 6.595767201421638 7.425590852932831 3.0747082155625254 -0.540511704743224 -0.6580931374048344 0.29531768043624623
Ni 0.9376543715212851 8.073995719833526 10.245325863814879 1.0219569423415948 0.6074807145646055 1.2071306202308822
Ni 6.044286619251804 7.894866632432465 12.643857521751974 0.5737992631517601 -0.9518655848411477 -0.8473139887803022
Ni 6.516637135004109 2.31530443537011 3.094460358632497 0.04899288495893498 0.017503813211718244 0.559090753296992
Ni 3.058979397589135 6.694308292753448 0.6880297126079922 0.4442277480078092 0.0684489368010176 -1.6994845343219571
Ni 3.513862794629457 3.6444409554875787 6.285079588928701 2.483484593534962 1.0013914594854172 1.3522678510235744
Ni 8.169331235072125 4.020633534146468 0.5433376712368485 1.6574986768084745 1.2140615430227608 0.37751276317876276
Ni 6.263583537698399 7.653513855152119 8.133548407825232 1.9552339655472777 -1.740417782201209 2.077122510224674
Ni 5.905876759367121 5.115445245561124 2.433698603363164 1.6926310017352335 -1.9774485539711042 4.3845410445985715
Ni 0.20951009837426357 0.7622224441857458 5.456798912965581 1.5460349270088278 -1.1745475440885385 1.9280291229977116
Ni 2.0007467673080805 7.924436436394324 3.96430978650521 -1.1375074606161055 -0.16630178068544907 -0.6554148192417228
Ni 7.815689837500457 5.399956478813615 5.459917574021862 -0.9827573893239978 0.3543638358661252 0.5207895437239483
Ni 1.5719659184553292 6.05944534934856 2.4845962359032026 0.7769110135767071 -1.2221589753189146 -0.1957475967503919
Ni 9.134536738729807 1.7977394090086154 1.1229992859182478 0.5782732397627138 0.7574063678848761 0.21710626493182608
Ni 3.170660547192238 0.7245153367126378 3.8490688586691513 -0.06399038680903173 -0.7594840763495114 0.5403504965750113
Ni 1.5812835842422994 6.828250906654007 6.0793423508134135 1.1130778668188315 -0.24936203964173828 0.16426803808487192
Ni 0.5287135153457242 3.3486307674342375 8.886146647169031 -0.5106889649548367 0.6608185067557973 0.22630207249848122
Ni 2.1137550067223674 1.4602754231493302 0.3275164196971477 -0.3863234194918572 0.947449200941007 0.7844708282018361
Ni 2.5296294398762162 2.326266944866716 9.470459618181598 0.1313394056776512 -0.5487906569225645 0.33606272356409217
Ni 8.970024330657555 4.716084669423901 11.862644609282253 -0.7155534364048322 -2.216571432383337 0.5508506247753869
Ni 8.38320764583924 8.710970792092832 9.176907351947849 -0.3743703608950391 -0.49527005929660506 -2.823138633994738
Ni 6.695158751716953 2.43738735229608 0.8978697142944725 -1.3126170694011716 -0.5715672884974479 -1.4083965756963421
Ni 8.206770120872129 9.058444025753367 11.25210946508505 -0.808112378880176 0.980428741190821 1.8572322547898077
P 2.7730476174965033 4.7715607618125215 8.035953101626465 0.3300676823229219 -0.09858278007192055 2.1385909019428007
Ni 4.52494635380192 2.156352720520773 8.198671134742751 1.7062123399640938 0.6476608863279169 -1.0592677629769112
P 7.70317692033964 5.802887113456979 8.270427441575606 -0.0704130025059239 -0.07636844875841042 -0.04805803184949142
Ni 2.414135243491685 8.789876561640867 1.6940535082327468 0.2934641721672752 0.313200474253938 0.8440178345275335
P 6.681130851670571 7.474001593932336 10.565728334467853 -0.32827896585361527 0.3458799667648301 -0.34002993574195634
P 8.003332860239462 6.133930601426947 2.4887541391214807 1.2641597452307325 -2.5413416137527456 -1.2878722583563238
P 9.079490548674388 2.9389525353002095 3.094993998267839 -1.2535565157935895 -0.16226206339843666 -0.8035422430109903
Ni 8.744671396734573 7.120705987367807 12.195233876511164 -1.248320464205631 -0.27915366908187406 -0.96170313975686
Ni 0.016294232998578295 7.780699525859117 2.2190988351919256 1.0946947363259534 0.8082535324437307 -0.989734077752147
Ni 1.3075012179140224 8.469561940595112 7.78934523560789 -0.8161977269914718 1.9632262397241351 -0.7772275163758614
Ni 6.28934029487883 0.5388321078708522 8.772479535700601 -3.9994442984249634 -1.1946527994788458 1.2481381729914958
Ni 2.32582769683062 1.0163171527940316 11.741112154256838 -0.3102658171056463 0.8795065143524465 -1.6133728901338535
Ni 5.2556401346988775 9.133826465309738 3.3703800872130114 -1.7341486613630457 2.058253441234313 -1.0817944833245177
Ni 0.5649785808620323 1.0596064486067156 3.3865070321297575 1.056212006869723 -1.1911275599344067 -1.0115794557620126
Ni 4.4906476241748585 6.703111944881157 9.596013529163017 1.3549191726034924 1.109679896880876 0.24745685219922542
Ni 0.45078530632057634 1.1935584082101698 10.207915949693852 -0.11208492832341342 -0.6469867430790276 -1.3075620234757677
Ni 8.936847085377972 1.7227494889738622 12.356269683106234 0.30442015695814667 -0.2713128328812166 0.8412127609785706
Ni 2.7973744821338986 5.259369070154244 4.717194938927905 -0.28316793244758975 0.34865290152427697 -1.1365193856712232
Ni 6.503833522037059 0.8550860210084433 12.54928555043995 -0.38492833891654354 -0.17643758356787032 0.6553597976340713
Ni 7.641513972634094 0.3554339033870548 7.106739768960536 0.4743803603317894 -0.5930581113813722 -1.1506139160910767
Ni 0.39959889156106193 5.725915904408346 9.063883224838639 -0.8624341322511921 0.1840022832890057 -1.301826920764203
Ni 4.989371713498708 4.631403255486351 9.22822927939935 -0.3872263909221008 -1.3298043798137356 -1.5351830718959882
Ni 2.7542347175675457 3.722496266072108 12.778849658087715 -0.08698350527009535 0.008851793963675077 -1.0894088053366657
Ni 8.893669938000036 7.785989193698058 6.050439830038304 -1.1401508117762236 0.7506579934174491 0.7146239826120272
Ni 6.050604314409268 5.186762304357883 7.016107011419033 0.44294939551601775 -0.5692805493458002 0.3809732109235374
Ni 2.6908428148263024 1.577909785496967 7.118023770636753 -1.1803834340440251 -2.0128994385795465 0.07726062155537662
Ni 1.26323996900019 8.599990570206904 13.268207483969537 -0.8780967784891136 0.20243195074910297 -0.5369445562172559
Ni 1.1972312694481633 5.925456006933523 11.1322461525968 2.313220228657339 1.5247101973891224 0.9891879754406898
Ni 4.055044412208277 8.10127582658595 5.077742810939464 -0.03103964291462396 -1.3194281787857343 1.0009669703534891
Ni 9.251376716331313 6.524777242226226 4.197539278828652 0.7298742239028785 0.31808222782627155 -0.5475161610855152
Ni 5.187182860988188 5.839204514909503 4.7614991780750575 0.2001102445944618 0.10780738399398207 -0.24644589443620785
Ni 4.60287082454591 1.4040703659348481 1.9026215597551281 -1.0743308279576207 0.7234737196931733 -0.9281196473744597
P 4.5454975544694705 1.6237598039030614 10.206493533713134 0.006030779575112195 -0.9499380288011318 1.7276702527275534
Ni 7.9959684463576846 0.22707721610723036 2.5149342566430852 -2.2720229284834224 0.194098234072427 0.0937133677947612
P 2.246435950732012 9.161162646279534 5.77181171675863 -0.24300755817862021 0.07665924052595184 0.7380377335502774
Ni 5.873447170319191 3.5291897473783345 5.067306464515884 -0.5951329916325299 -0.34792347955742015 0.21353731663364514
P 0.9898127393819478 2.969877466181939 11.278864343334737 1.2413352911370492 1.4372569515714604 -0.33030293826217955
P 6.362647988392366 2.810729491571793 7.219244274988747 0.5774504867511022 -0.1321575307035724 -0.5242451063727165
P 8.269115304889057 0.07280115641659031 0.11594185555323341 -0.22877547373963825 -0.7489564373453101 -0.22734285505816976
Ni 0.2850102937871197 1.3637156208314003 7.688358373828287 0.2156139966570158 0.2124631097328599 0.8078830364781894
