# total energy = -340892.1071438633 ev
CRYSTAL
PRIMVEC
9.08381555472056 0.00000000000000 0.00000000000000

0.00000000000000 9.08381555472056 0.00000000000000

0.00000000000000 0.00000000000000 13.29508227048450

PRIMCOORD
 96 1
Ni 6.4343301200982035 1.948569314629594 11.476315672935497 0.5010907797434402 -0.16620639275816537 0.22504068928755439
Ni 4.5994356756530985 0.20171248720278948 5.733358402420924 0.669905299548414 0.603913051818005 0.23820010948764786
Ni 2.7465916113035225 1.5676122500781235 4.741650986514641 -0.35204881457970333 0.0040158060276124395 0.7208581364471972
Ni 2.8809412461148214 4.320044754903192 4.867994146131709 0.8994924705560702 -0.24604685922557626 -0.6314451958000029
Ni 5.119938317619794 4.296317828187363 2.6374650076606168 -0.31586388001871407 0.8722896848890332 -0.03091931528667578
Ni 7.188750101214712 6.007154601055868 2.747003108156596 0.014394835269091336 -0.4392192390496242 0.08444171268484811
Ni 5.339812077633822 4.781230080080314 11.670038035812391 0.7719714101832447 1.5888692485655345 -0.41953281636429035
Ni 5.6351178435621865 8.023253001905015 12.662329541070827 -0.5288280977577086 0.10586542977626283 -0.2665400940829216
Ni 1.854824336181142 6.638806812431018 0.3540962214049518 0.7616142353186367 -0.3694541545403444 0.22562587236706305
Ni 2.7971702973501293 1.5175604253445023 0.31411108127564985 -0.13325950551849952 -0.05716590768803058 0.713639764321887
Ni 0.520358209296411 0.1086687793295528 5.060401172489285 0.3310189904925977 -0.121393607318849 -0.31964802965149464
Ni 8.69306632320865 2.259962518235498 1.1818080614471866 0.048323112585420006 0.4997059835807716 1.1732527365365149
Ni 6.925328528537711 0.5489086421707796 4.343357459621226 -0.7386951646286182 0.6058442074024468 2.3169928083258933
Ni 0.9403929407846445 7.467387065258105 2.7007901039551756 -0.12805456427879236 0.8113128880953447 -0.7097188320009261
Ni 7.430851958347284 3.7365731022189905 4.012549416631806 0.8818184503150749 -0.15288242195574958 0.4084454482018773
Ni 7.718572738131805 3.936916658389592 12.766895160830112 1.1749247249222992 0.33576576114896367 -1.5430786725939811
Ni 7.850524245587446 8.837471742045377 7.193411007071486 0.5190021128062223 1.085046671713228 -0.06721480728360037
Ni 7.0849856740037955 0.5889891623653634 0.5464360275260443 -1.295254152642692 0.7229443295522646 -1.3601876200912832
Ni 1.909299979180693 6.617932203857904 9.220791507071114 0.5714490177520287 -0.44738609113113276 -0.28066342085818113
Ni -0.00014715781500629073 4.994354564998684 1.351538250188609 0.07317051064640301 -1.1523039021989896 -1.5753354757451579
Ni 6.188522066143252 2.2120181387538187 7.031582829643272 0.046459577014119985 -0.686660664629882 0.4130027285552565
Ni 3.4675740666769355 4.208304737471564 0.6365556551122115 -0.6483386291212319 0.261166231365518 -0.490893013274832
Ni 5.860005869865319 5.574828558488313 4.944680626999895 0.18341710020949703 1.2766025989797756 -1.2396375917196523
Ni 5.1302938675646805 2.762034098063442 9.37476127550168 0.7755398442607935 0.04554117896490866 -0.6016692500891508
P 0.3190045328153961 5.729108085035649 12.437974734751698 -0.3436060831289889 -1.598661552065608 -0.7267199945446129
P 3.9481351708298864 6.055971026848695 12.675093210568686 0.06410094424496703 1.1297756391894866 1.3005022884155086
P 2.6297464894253793 8.522962789640266 1.614103219041222 -1.7041325746169298 -0.06883357383394596 -1.052292874320975
P 6.509989221406068 7.925883580975853 5.803103939681312 -0.827001502475195 -0.6347277232060166 -0.8877034483409422
P 4.629148836942331 1.2414487620771437 12.61372295142162 1.431235942188361 -0.7808185761612294 0.6092619748347442
P 4.117775429795471 6.24756686846059 8.028049256616331 -0.6076648055509535 -0.19746046567644057 0.9089896114132281
P 4.849821972741579 1.2437833027226137 3.73634328168074 -0.5430779228085034 -0.9688045266883314 0.8162110967279104
P 0.17574912505149443 5.53916549788864 3.3439660439795222 -0.20817065300509308 0.49586192724433314 3.1973696410984354
Ni 1.4136869923446915 1.0472004462688398 2.6582188014843746 0.016144985190978647 -0.134674126477839 -0.22930949186623734
Ni 1.7655849303402902 6.46528776414397 4.854101358337226 0.023343559821946892 1.1070393739342352 -0.09225452386104757
Ni 6.081033274478472 5.683743509224451 9.116438448600174 -0.06843505284394666 0.263633719069404 0.6231035087035268
Ni 8.910224022316081 2.328463572739352 10.395545077213741 -0.8364775602864304 0.0130113246580034 -0.08038168368286157
Ni 2.221528893834781 5.206561584527201 7.011241441054162 0.8776172677495336 0.76323248764835 1.064374230965541
Ni 0.5033678403342032 0.09904447655182656 9.375253618314847 0.7428544382126303 0.21427162369650843 -0.4049664885143413
Ni 1.6926418899390239 1.1754911759808055 11.471754689051876 -0.13234522123434625 -0.39760619149452814 -0.2019624673118522
Ni 3.9907382666557814 6.739128473476048 1.707407632426229 1.143469077516179 0.2571259998578733 -1.3511918443505764
Ni 5.703646149513264 7.8930546708874125 7.977381549175462 -0.4424997095731089 -0.1791552396093495 -0.38088707896763435
Ni 4.971408846436592 3.1033766421678486 4.932103175724727 0.5858520805512362 -0.41670871665193393 -0.3918618328115832
Ni 0.8431843033941 7.6162344699922455 7.238840077974446 0.27931796257388025 0.5233812157105243 -1.0430538722212102
Ni 4.978975664948953 4.469255512266978 7.066469223997078 -0.4451191494738269 0.5592812720412432 0.19974951882093342
Ni 8.092844114297806 7.343347561312988 9.127287249739803 -0.5347310935057048 -0.35750135305384234 0.9656289571738274
Ni 4.571811791984325 0.2529433912196091 10.535860962203815 -0.13742443552946657 0.06638562651408568 0.5358567224697158
Ni 8.25074808332585 7.454751477562195 4.461045559600145 -0.5005606182715832 -1.4067068466987451 0.488961600580074
Ni 7.578264120194326 6.3094276536576785 7.005351494927614 -1.3555694045929816 -0.7107189911306664 -0.9415004395567398
Ni 2.2148341216335687 5.346361508783176 2.515376707336694 -0.08772192609801667 -1.1098873849059918 0.13866267881194186
Ni 2.345532062516934 5.318328853406052 11.406449320925752 -0.6728109032309832 -0.30979581944776324 0.10359951656022157
Ni 0.9513389387527049 3.410763883031915 3.626885118763283 -0.2923722246546771 -0.11046667599370007 0.10543245600390229
Ni 3.497359898492098 2.476711445634578 2.567253470652708 0.10209387854897255 0.732650501096435 -0.09704937414652963
Ni 1.1329789183123216 3.4231269562555915 8.422076115256138 -0.25836861401572275 -0.16605366923038498 -0.10456188047349088
Ni 3.6110711039395516 2.545021740007869 7.004912746627317 0.44617972952785734 -0.6540338797337962 0.6998082577554335
Ni 4.2072691824770745 6.904163237860881 5.997012520780898 -0.6695828832119888 0.0036725637555807718 -0.7889957126553832
Ni 0.7075156985371893 7.442579164469082 11.09846890689379 0.3099416009970081 -0.1627027504802811 1.2961458112190258
P 0.21730031501456695 5.759965807108264 8.103432209925666 0.5994635006870838 -1.8552874723586112 0.7166201871064497
P 8.442153164807182 1.7069034806525964 8.236450157349315 -0.15708489007287138 -0.3267661287535147 0.32975657884040627
P 2.1372583352043266 3.320207323908599 10.50258331161776 -1.6780518183694777 -0.6385954336915389 -0.5184236145949329
P 3.9517414456791147 5.935919318013934 3.6974818095586155 0.4415388883217364 0.38290796605240507 1.3283787031108023
P 6.760829709281605 3.902652505414053 10.397924128556342 1.2716036031032873 -0.08026881225408113 0.3718146843527209
P 6.114843236666953 7.743871164970851 10.454694343412104 0.929362004421993 -0.8584304104084378 -0.4716174528746717
P 2.4084829056029577 8.540966912439183 5.883885404685599 0.4574190498871026 -0.15809353384304384 -0.5384445378015501
P 7.045216728689133 3.9796378438201216 1.6037195092675374 0.11010672155112004 0.8567931319153308 -0.12787330150592172
Ni 5.610600624876879 3.290721258012894 0.11904703881379274 -1.1956984671345408 -1.7399644967138743 1.1389470212761095
Ni 1.4198185679699538 1.0498710880967317 7.2245476022873545 -0.04134513860569009 0.676161564870771 -0.41499224818145947
Ni 6.678021644985473 0.5258675435434057 9.370294763301766 0.33264418480084645 1.231549158284563 -1.2864262699384168
Ni 2.8112229603016554 1.4969855826908451 9.268826724710207 -0.33841939672172683 0.3361511695128404 -0.031734354988803413
Ni 6.36310392087201 2.1659086900518476 2.522649210219042 0.42124594240065516 -0.8675866229864091 -0.5898858843009777
Ni 4.165120277438236 6.642149656623754 10.334321067500106 -0.10759681064507277 0.9625356629604842 0.4246925061883589
Ni 8.40512753184634 7.274174304444291 0.30294979687452456 0.2144891390239532 0.22557959251015985 0.6172408792751628
Ni 7.513541933038781 3.8619660947095364 8.407929889002478 1.122200655055706 -0.2693274270200717 -1.2478676929389283
Ni 3.1681079131391345 8.36482264140295 12.438653295787562 0.23472834888896352 -0.167961170665743 0.42841520645558473
Ni -0.06165730772448759 4.772782131441065 10.264481966937582 0.08136333086984052 0.8094133570797867 0.19990815588598476
Ni 8.42137847820722 1.9809349501152367 6.044237462055879 0.21407853384909584 1.502327201708232 -0.4070477965234022
Ni 4.039509273369903 3.0059254668970157 11.412817984141858 -1.4648626291038707 -1.3670228978455619 0.5501044906379817
Ni 1.0813919287184497 3.260880923303285 12.535720225652545 -0.05113204278912484 0.6982915640005909 0.44587685357545787
Ni 3.2494353154694626 8.349552747142113 7.94008885203183 -0.2947021583394344 0.04634310604091374 0.4275896252304959
Ni 5.658644926331711 7.899458760984909 3.42583665849117 0.1764139294187865 -1.0428715810070748 0.5173108411467284
Ni 3.2290330653148867 8.198152790184714 3.710444414621207 -0.08470062277318961 0.22951312323661116 0.6578869349312992
Ni 3.510158994871349 4.423418578037241 9.064188340457198 -0.38941877058772933 0.09404863964699287 0.6649854936492935
Ni 7.398295562731077 6.364820762047084 11.639366531962468 -0.07758997987033735 -0.5659496852003544 -1.3967667047668977
Ni 0.8395317010845921 -0.16069633398686944 0.2419610579885841 0.296856742788592 1.3644157992400179 0.1099254587782494
Ni 4.604468109573684 0.1856223243805276 1.7514541465733897 0.9212977393566198 0.7868102749682901 -1.2051441859284728
Ni 6.33824151718854 5.8485511782157555 0.4515446715310619 -1.188327114371134 -0.914881808527947 -0.036877075532007454
Ni 7.907243591075057 8.867957027672606 11.175141762038363 0.49291595724213166 0.3036457406859674 1.6318071855796414
Ni 0.198651241298029 4.938470930559259 5.87851414443787 -1.0511212226103768 -1.310562243754672 -0.7516810353653247
Ni 8.123156807425952 8.98093244404503 2.474281524923826 1.057006220636244 -0.14849483441101521 -0.12822554263901786
P 8.663507586787015 1.6540720083021898 3.742738287962495 -0.2666437095403214 0.6438836786736718 -0.07911644381719278
P 1.6434802791480334 3.0120479587065367 1.5019853148747626 0.6574411056431322 1.316838306571371 -0.3252113826718851
P 4.717988554890574 0.9111793893611734 8.338263380939038 0.5221401442145717 0.24164795882693224 -1.5349881822763627
P 8.50883745616281 1.4953232444102185 12.476610928243444 0.880765069349896 0.28229504292433316 -1.0567413970106314
P 6.654076706691856 7.741264109853146 1.3869560477632712 -1.7522114324020277 0.05924978680025279 1.1375935925720086
P 1.7268969590988215 3.103240384931732 6.222603634422393 -1.3059250020929767 -0.2644850113261058 -0.3778480350309944
P 6.857118156137573 4.1684267863680065 6.114980402284644 1.4651899305363023 -1.0560397429579167 0.35292710341959865
P 2.527798825362688 8.508846539978551 10.340702448058249 -0.8931688423308874 -0.16198129893322424 -0.7868490986260255
