# total energy = -381172.6613494868 ev
CRYSTAL
PRIMVEC
9.23572323286851 0.00000000000000 0.00000000000000
0.00000000000000 9.23572323286851 0.00000000000000
0.00000000000000 0.00000000000000 13.51741451251188
PRIMCOORD
 96 1
Ni 3.151496502441734 4.560018136284062 1.2028226889928797 2.2069699047378313 1.090595112335283 0.9737788399744713
Ni 8.895839098245974 7.479965828944925 4.9782476902402655 -0.1109148192747122 -0.7164918890587015 -0.22028697665265287
Ni 0.6869336771170124 4.854600755117402 4.655870163224742 0.693205150616619 0.2654345197235687 -0.5155349801932282
Ni -0.4836120073518282 0.40407119069211017 3.839905124511959 0.05861600987099582 0.10283332781815838 1.573484024358716
Ni 5.165133467464823 3.3342529879406713 11.832238384176458 -0.9198394096435384 -0.19513156043294783 -0.6103955742185552
Ni 5.2986543139808004 7.245202987581599 10.083990841351698 -3.2474472744811167 1.5010856159916472 0.10164599237827655
Ni 8.244619038158264 7.004049025945114 7.785003286144183 1.9683663891641778 -0.22595085980664958 -0.6330135687283872
Ni 6.9102140808941135 3.9479390700079806 4.125325906190712 -1.3973200061672064 -1.0667604718095305 0.3938330976053411
Ni 3.0095896194979708 6.239312695225332 7.1204468421338705 -0.3725070824340552 0.3857698609812324 0.29979371392972887
Ni 4.412828419819712 5.241632960561028 5.51432137459733 0.40085066657375484 0.19470604285975499 -1.3421605873862434
Ni 5.8079028410641795 4.963379099882233 13.639476336551391 -0.2816424969419988 -0.9588188762305292 0.1122062843926261
Ni 6.923698236383726 1.043202613026153 2.1686798167016987 0.17374101057231367 -0.1566830266487624 0.3239561701085453
Ni 8.636795541278406 0.180399529005137 10.04356054061791 -1.6248988884955822 -0.01290745209028745 -0.038947327797474854
Ni 8.670681408738261 2.6103385526072507 3.20516805915186 0.5180760014475271 1.0119802907448572 -1.2450708469200813
Ni 2.3882840660067366 8.667947634748588 1.3176559737159237 -0.47573636013905163 -0.8318598590087609 0.788473521603326
Ni 7.407003617734009 3.659535149820224 12.267553101995833 -0.10395458590679517 3.5650713317240474 0.8641017497616021
Ni 7.647806621898847 6.80860265712924 12.527087999423708 -0.4073894961335371 -0.10449168935718779 -0.44643452585114085
Ni 0.7395662149966034 4.6369701798042335 7.214081371997115 -0.5235624784833951 0.2921117719044388 0.19969526854423028
Ni 3.080039714069726 1.0899538425387678 2.7951444450261502 -0.15874633693569434 0.38378188401692614 1.2369245636638633
Ni 5.366056619982986 7.325803141662316 12.571614343280537 -0.876651818512471 -0.38837773091772465 -0.19124636644592868
Ni 6.902714673868383 2.241214413940581 7.068891189548861 -0.3161988947606296 1.31740883436286 -0.5600510603277322
Ni 7.271894226872681 1.9383288801858987 11.066423321017506 -0.9038252936034692 -1.8833073546103047 -0.4607853952561741
Ni 8.227145050359397 5.670373690793072 2.997418783810155 -0.298712307940092 1.2392403562812333 2.172548232724852
Ni 6.939602151283117 9.003250556015967 -0.01270004261216845 0.41034832165154494 0.16675892282752572 0.34040505969318796
P 4.460244621383868 2.2713228707187567 7.366044110075871 -0.6095859338330663 -0.9706801464444896 -0.04570058736090839
Ni 5.914972577085465 2.1942322913545143 0.18552904952495256 1.5140725151696182 1.5218796699188628 1.929859234227915
P 3.668770872758315 8.116907461370346 3.4202033963194247 -0.9822711937161986 0.43369342413538853 -1.6371926182612706
Ni 0.8415618448357013 7.74356259732097 2.9261420920354406 0.5148659791506617 -0.1464119837400575 0.5682644493764599
P 1.2751300874474851 2.406820161943485 9.520706870074429 0.12338492671726492 0.5736126010622509 0.9441227076709354
P 5.161762428592421 0.706801564301433 12.623129358684618 -1.3145898768568263 -1.9881237742967632 -1.4931828162048026
P 3.208711806043205 7.781770783115851 8.740035222997266 -0.3596687930188064 0.010886050784884476 0.9691459691881504
Ni 6.050488339756069 6.900239500120976 6.905100261103293 -1.0709958500471168 -0.44868064157284016 -0.8865130275772669
Ni 2.947451675570497 7.068274243256596 10.963338799444008 0.639995399362859 -0.6285197946230917 -1.3968834328504203
Ni 1.3960441721529682 1.8853527734130107 4.705222172316724 0.9205832297880985 0.018208809698542834 -0.7372720590288464
Ni 2.6602114564729398 3.770308410739683 5.83143915739961 -0.4854774986862155 -0.722241389947969 0.045642480429463325
Ni 6.705430396187829 8.580882474611206 11.058149960409565 0.8651188781722069 1.6454630858001793 0.3699375219346661
Ni 4.387494831800529 5.159084068940374 9.180500703499217 -1.1449315209943185 1.629599636405361 1.8332312638895203
Ni 5.192692864712085 0.5998638991181628 4.023809610372101 -0.18895577063953908 0.12804813652088914 -0.8657040612517154
Ni 4.136301639330339 6.92783584025999 1.0152534682709031 -0.19281011138862275 -0.7423702994873602 0.974972088951624
Ni 8.694943652896626 6.817496658318621 10.217272482643576 -0.04796958590074319 1.6246530910333632 0.38631827728553464
Ni 6.886977001981878 8.648497202240968 5.329146053260906 -0.04005547325998908 -2.58237899131003 -0.10553555724066986
Ni 0.1280800821331473 5.448374618530187 12.019670916198951 1.437750346268111 -0.8167744254305481 0.29919721799631055
Ni 0.23154511549169537 2.941753234517695 11.786225088926596 1.2982661999961382 -0.6778919172983163 -1.6782752472341935
Ni 7.856792560541962 5.1959438391862935 5.710607270628276 0.5521544311884748 1.6411688293001994 1.237332083514927
Ni 5.133667359414749 2.7805252191874468 2.7205548994335427 0.04454847603433618 0.32619457252076084 -1.371509987082638
Ni 3.112032258327272 1.9659252203249133 11.745321919178382 -1.0873107851570563 1.3869144945631664 1.15842312772285
Ni 1.4062034673848678 0.1812353619310342 11.026627514449567 1.8695478389323674 1.5102994212804313 -0.7842062616865397
Ni 1.709560023009393 3.766355521322181 13.282900774640705 -0.7239403749169467 0.22585752876189485 -0.22289844613357093
Ni 3.286319585891981 0.8728164548304939 5.915166527267164 -0.17444035063218344 1.2791153380993003 0.5028751253373727
Ni 4.329032705602415 2.7536215582687884 9.692593833247528 -2.474108808747016 -1.2414381352635007 0.32314781527463704
Ni 1.2575267995274846 5.554031288941944 2.169666191911487 0.30482253460288794 -0.5322376376598899 0.08856421949365392
Ni 8.859893664570926 2.9242053609353227 5.597344982377002 -1.4670730064916282 -0.34490011935006404 0.7928410545434023
Ni 8.459478896590005 5.105710826081149 0.8884904002287274 0.5339772460588159 -1.8255598633871915 -2.7684044756766513
Ni 2.4718027085358907 6.540406498730026 4.595258884298935 -0.28290156616008055 0.18088122116152075 -0.2994275888395618
Ni 2.652157906070925 3.856394584245626 3.494184307770412 0.6930822518855095 -0.3166838048168481 -0.26045840666521597
Ni 4.2978159620716685 8.11122749176342 5.43556836510423 0.039569791872822176 -1.6255416642859035 0.6936707773991279
P 7.7527983202590605 4.340688187950286 7.645205842319481 -0.2368122280011857 -0.6242124254969895 1.7676182538754008
Ni 6.638009618739768 5.94905239472702 9.05512668818693 2.254601133462549 -2.274766295556515 -0.6070500547850901
P 7.027960312631831 3.9096939413213474 2.0145411422987287 -0.5764485278491491 -0.6724764027096999 -1.1911897806309097
Ni 6.726460137317861 6.63378889335706 1.2345215372609946 0.7672938022019173 1.9768237759029117 -0.697419960028915
P 5.7221860964757605 5.214738535365308 10.930721920315849 -0.03460987676438556 0.09062830111153425 1.2836708186804666
P 7.035736791345704 1.3716156849817183 5.088346743385244 0.5064903534924567 2.7781289020532673 -0.8060974053326762
P 1.2630220546756483 3.091399653283578 2.0087281782814945 0.51228330602515 -0.10856020299960659 -0.9486974715258112
Ni 5.3281624487679995 4.199169205369922 7.383211471873194 0.81947331241895 0.504611134191873 -1.49801983258213
Ni 3.1063615244432845 8.594680644680713 12.645770733467348 0.7811538480134611 1.43884023689818 1.0522537935529235
Ni 0.9402427737123185 8.559935854987618 8.688222817314578 1.1743302858714098 -0.4008820340323225 -1.2473665849327935
Ni 2.854946674622581 0.9978182705083755 8.644535077100526 0.3943689155041531 -0.5931031056866947 -0.26141254304836914
Ni 5.94750079327342 7.646255020445247 3.110167565866072 -1.2689787638859307 0.6197430768717263 1.0547968716897511
Ni 1.0388156446305599 2.0269548774998163 7.410056947737342 0.03462118961829521 0.38164452595894915 -0.5106303438027593
Ni 2.406755511882918 4.083270118219823 10.607019990631002 -0.7713108937811103 0.028529217787944414 0.08606716410341306
Ni 8.68776749617373 4.471327488909578 9.897951056348267 -0.03627518028195043 -0.5544293432655807 -0.7112548090294782
Ni 1.6103221800396093 1.3680229887588011 0.14939058924049767 -0.4397704835674039 0.24286948993885915 -0.10151538033768323
Ni 8.29397474153942 2.1847841467888474 8.96499249731722 1.6289679163586332 0.794905907492231 -0.34519579621361196
Ni 9.216614227331739 0.19866963612126792 1.405959644299302 0.2789657214407841 3.0050349266843344 0.09436102868108912
Ni 8.428012788539931 2.404705181390662 0.4481865448781939 0.118270488308835 0.7712890394042394 1.7798183954860185
Ni 8.18528875400397 0.19939371679961423 7.412692823063873 -0.10444103862491044 0.42858001416822317 -0.031169483624268895
Ni 6.293267788629659 3.468346449278809 9.359457612581423 2.764829870951516 1.6702333507663236 0.9483269755602701
Ni -0.07459323988178293 7.403327800004649 0.7405433544834534 0.16694224248292538 -1.9731221586816086 -1.2104206038360639
Ni 1.479082557089341 6.251152892031965 9.240828445730823 0.42447653352281095 -0.9436429398210393 -0.858232949685651
Ni 2.0729210705626935 6.498439373699342 -0.2889996243172635 -0.45328985821007745 -0.7858630805636723 2.1992026020875866
Ni 1.0058625851874525 9.274328259971867 6.176836723838324 -0.06867133722446883 -1.1714177402103052 -0.5806880198517935
Ni 3.59430323870849 2.265947679968788 0.8328488638159066 0.3185038887447224 0.05173290959791735 -0.5768498770526258
Ni 3.7139058507567633 5.171737009365558 12.454066679585988 0.8328682456686172 -0.3241438606393192 -0.6799254027885774
Ni 4.127573881153843 9.573565683166004 10.721972416179948 1.4012291114136255 -1.5040336428763774 -1.191881921601928
Ni 4.902811228854235 2.6497196752152687 4.998388031251359 -0.2496985970455506 0.6624951231272719 1.7320102748638044
Ni 5.3153340296069915 5.417204053614132 2.6462636676918354 -0.7941834275039097 -1.3406418367488717 0.5918010990458195
Ni 4.80386892901847 0.01652086119165655 1.2755272235338233 -0.07982812517223671 0.29381744174163593 -0.009354187521390342
Ni 2.9163457607150076 3.8860504905998354 8.1365915576683 -1.569079210422801 -1.2668514331302827 -0.2186178164803461
P 6.184627979708897 6.09842174180476 4.719713021606588 0.009490713099254623 0.6445254260227288 -0.42799765930219186
Ni 6.00438361084912 1.2147099879864962 9.057992533014618 0.23339343212762387 -1.4099762614786362 1.2402338305427545
P 6.639542748747491 8.341788079189916 8.570283558967454 -0.13565165989975994 -0.22228498091928814 0.7081473737487481
Ni 5.488956385120158 0.286138397351043 7.010914862377291 -0.8665507255227269 -0.5111594768333518 -0.6132111892904794
P 7.898667328343265 8.187810106366069 2.5141170967490463 0.23963992725796796 -0.5725947013206978 -0.3184956612146063
P 0.8308142340526451 6.747665357183717 6.525558226962457 1.4293222701054158 0.058119529850551514 0.2022712568015226
P 1.028841063857422 7.606485997473829 11.865369693072271 -2.0584195344985323 -0.8556798442464941 -0.2665560349225216
Ni 8.902285632856762 0.768842533138057 12.461703698883495 -0.46297648937022196 -1.8347471863134142 -0.5126278338487622
