# total energy = -340860.0225480926 ev
CRYSTAL
PRIMVEC
9.35519530050818 0.00000000000000 0.00000000000000

0.00000000000000 9.35519530050818 0.00000000000000

0.00000000000000 0.00000000000000 13.69227395992271

PRIMCOORD
 96 1
Ni 2.264032098456003 5.915308683671316 11.31684220451547 0.36760990224275397 -1.5932781762665076 0.012292187103791733
Ni 6.60728441268232 7.272551059179143 0.73083159707209 0.28399094256951735 1.2379704884298743 -2.0663670714803835
Ni 5.124102398363317 3.4701132286874268 10.937579781450795 1.0746401316679235 -2.2123252555124737 -0.052083093848484495
Ni 4.8985486402488165 1.7658398844007754 7.9963428718057274 -0.2734417062987613 0.6402167713450458 -0.8391875030184257
Ni 5.820166347710118 4.176973073383217 13.483151804153037 0.9901716795101978 -0.9899839889794241 -0.10269757357124248
Ni 5.36201436943797 3.9174225356342025 4.4246172541039295 -1.5897411096475265 0.8584494365718313 -0.9394232453127369
Ni 1.4229252015435774 2.9339856977863135 0.8518906305075558 -1.0652864583671653 2.149846934472594 1.4592159723410547
Ni 4.516809896994472 5.70730527189538 6.217894055211392 -0.6620611209136469 -0.25053317713170403 1.0954061605706813
Ni 1.954459331563968 5.459252269141086 0.9460497354452018 0.42384815591019265 -0.20669638245241176 1.1554817857063393
Ni 6.485199114325031 3.889534698515193 6.457112011546633 0.06328487610157488 0.8928340846992882 -0.3527471261983086
Ni 6.839405517880868 7.527433354485223 2.94431851096912 0.25611478498453955 0.8147447965950291 1.8378029424206026
Ni 8.450052067841103 6.767660525305999 9.119697881246818 -2.1149472943819316 -2.6223172222658646 -1.6730528224929895
Ni 4.951358717584211 6.4463937643184375 4.087704864536083 -0.8939679411934153 0.22315709911159634 -0.20777136068414537
Ni 4.685240832751148 0.6199968565542242 0.3558220457800756 -0.5393297686199808 0.7311078391996635 -5.1737722703035285
Ni 0.9739038938612166 2.4251285611159665 12.05341789148728 0.06710682095082636 1.1272135348892651 -0.40575838828801725
Ni 8.704709838460548 1.2981268965561261 0.06816475934258362 3.1145616073622686 -0.02324585790181803 0.926568757947572
Ni 3.0144590875540835 1.1278342769394416 2.545064971118262 -0.6962804471078332 0.44104575073540175 1.0340431840821676
Ni 9.524150103112783 6.2751843355646635 4.290953030553014 1.1116771298165629 -0.4512342612326293 1.6597355365587931
Ni 0.18532174082825442 7.025199696070581 11.10265407314229 -0.6225556066198569 2.3058118520084094 2.1451168759867767
Ni 6.097819188319005 7.101987138899442 7.83858060074228 -0.02584344342566517 -0.7081592008232901 1.2518948118204505
Ni 2.640494511574446 0.9622473205467965 6.973804124260982 0.4482988327533893 0.5290361000034566 1.5128437849688396
Ni 2.812003306577065 8.020199555280128 12.117977158570332 -0.016964138658164332 0.6302450048443147 1.343151747654919
Ni 2.414678807992204 4.684267892442401 8.578236953518617 -0.6974940077999601 -0.649232858800727 -0.4252627768695321
Ni 7.389229054666662 5.109068599554109 3.2254477421427254 -1.8243416747093741 -0.33839805656548816 -0.06355998413983246
P 9.144796934653927 2.1730247588069833 5.411528611477482 -1.6721665632332945 1.4250994902733198 1.0458072665966311
P 4.207321326859925 7.668771644721386 0.5532662486475158 0.29205777873805183 -0.0052692188187393125 -0.2666293113626182
P -0.004904928883427335 4.410759403340967 2.9768231369570435 1.8009654618772792 -1.3857014480916716 0.5056729997974839
P 4.829862796529335 2.0257178539844642 3.2900893349442093 1.6021291988992343 0.190139249424679 -0.6814940328272778
P 4.332484484463157 5.262213146229114 11.015160544839096 -1.0369999527176463 1.4528501780240268 -2.0674014262821685
P 6.122919177245642 9.306211473953288 7.374781826601285 -0.29854107246955036 -0.020377535215087485 -1.0707207420088591
P 4.177347281194273 3.3403005390318143 6.2369543300675705 -0.40182125801714025 -0.04162358907805735 0.5448123890011068
P 0.9850739970212627 7.425910775345507 1.0326236480527258 0.37844710206757404 -0.3755769796086306 -1.798340365549606
Ni 6.259523738671936 2.8740188960644573 1.8283297822886821 1.995321063376151 2.1449788077470155 0.8016653377032517
Ni 6.430330894028824 7.247067507246174 5.598113303668053 1.2205661769104978 0.12528162951934552 -1.1116197942160662
Ni 6.401470116601066 1.4065161890287357 10.478971269649158 0.3492956773145985 0.5507377533466064 -0.2739500133937476
Ni 8.974008489687593 6.063513687240372 13.438405905145919 1.4537210106647545 0.41215889249772236 -0.8531367661096662
Ni 2.2007816231921233 7.951925340152809 9.699592757729139 2.8969845734416104 0.38582693947141294 0.7460343786025087
Ni 1.171682077200025 0.37322458003327325 10.782926241777702 0.17263260799948332 0.978364916683257 0.9645897172760355
Ni 2.769633627170156 2.7500344930660545 10.092848681888283 -0.08641657702303182 -0.16283130563834536 0.4514342930585774
Ni 7.389734235211589 8.51421935224207 10.23272943270038 0.17532609567124643 -0.03189350627448701 -0.6272221588575908
Ni 0.158872732742758 3.520266430564318 7.468574207884095 -0.1945854581214907 0.16389728500901452 -0.7601857304022261
Ni 5.62499826385343 0.1104736299801959 4.560485561661969 0.3966248014178653 -0.2731483434280586 -0.7204855835991268
Ni 4.944435873079659 4.074440133153646 8.135155259317257 -0.6540757887153251 0.6333156733498383 1.4554122823242484
Ni 8.393584109152627 4.58620673555496 5.376614087186352 -0.21492648367168793 -2.597289846983591 -1.2443810199419085
Ni 2.2985340586354424 1.3123842141573911 -0.14165449583650586 1.26561833205413 -2.632224196966931 -0.91716289125264
Ni 1.1958278362084667 8.45847174358988 3.7795194731035413 0.5324674942825087 -0.359168199233304 -0.9799751985931702
Ni 2.4614922051554133 8.758867063915748 1.358387451409662 0.12265087676471781 0.8076079284399317 -2.0755793341072706
Ni 2.4012915235516465 3.220638236251118 3.2852143426856664 -0.6308798102148361 0.5869746241914536 -0.41183004840339393
Ni 8.607397097195221 2.560601143913813 2.1100614880380895 0.7390975422733593 -0.26610609186929657 -0.04359639653371202
Ni 6.9248932923168 1.6559350502933858 6.096443974613372 0.4537444292489928 -1.2597994113795077 0.7643156934101998
Ni 8.04039742188192 8.358539547647155 7.030106495993064 0.9499048615703511 0.5018497693966519 -0.4663749735288097
Ni 6.768175061046201 0.71606442132826 1.4014999333215188 0.7131481693974492 -1.3330252007438783 0.8242707338075934
Ni 4.807971639582511 9.114439325981943 11.40537696605293 -1.6302071880823732 2.6631964769787295 -0.14001996417078466
Ni 8.716488029313561 8.789505328446024 1.881962181288874 -0.1700591908453523 -0.10481436280392918 0.017454448031021554
Ni 6.798963008700902 5.646646185723068 10.78044711502945 -1.4441415945064355 0.5944030554450408 0.2529811244515643
Ni 5.368142022344026 5.752799586524612 1.9258043684322919 -0.6754470553022497 -1.3156206321141857 -1.187109182803633
P 2.6892631445504263 0.7863602941548122 9.212586550665925 0.5840523083383361 -0.028216314533215922 -1.0526060346860195
P 8.489821002961166 8.05916394360642 4.565538302630764 -0.9973977649449921 -0.252118776451269 0.9386305742081125
P 1.3078282340577745 4.531563039945388 12.890454342934937 -1.4988680395150378 -0.6576380521452867 -1.3766403663306677
P 6.729566170140414 1.9551609712096998 13.333413484078177 -1.5307872568211378 1.7486944203877048 0.19454380625027787
P 7.506711596947952 5.212836425560166 7.859885186945273 -1.6161090581180944 -0.6720796814919135 0.2875262094162855
P 7.423824566798865 3.545852889645328 10.52507273645183 -1.5305044354733965 -1.9106541220543738 0.19975697502010112
P -0.08079801504386204 9.044153743870194 12.413908179710292 2.4258682285730737 -1.1489468128012987 -0.689725933818767
P 0.8595731168685524 0.9220153032605496 1.8996799856228872 0.41183596194066496 1.4823988382154212 0.07980858478821094
Ni 4.282359348172095 2.6861572197186545 1.12968379904559 -3.1766478351700513 1.1997122162796243 -0.2952521173056335
Ni 4.184737885462646 6.206498491845184 8.926021015517193 1.3297120772102453 0.04223962539550145 1.9871884069666876
Ni 9.02976545353506 4.748584859967794 10.517281729825626 2.659402557153936 0.7530465482542839 0.8587134888664952
Ni 3.4446016111686273 3.8645750375177026 12.87893903306919 -0.6015527791159446 0.3431011184681123 -0.6675290860067535
Ni 7.192938347376804 2.6628066523087086 8.369101563114235 0.22164014824643766 0.6600073237084118 0.7805982326203073
Ni 4.708301389107526 6.1234617785716745 12.827880248289542 0.470714481444428 1.4685141098135288 0.9208987041459881
Ni 8.335114138674998 3.443675446836262 12.870491291734583 -0.28235623517957176 1.6740717506758072 -0.25640943340682293
Ni 2.7090213169742268 6.9887705656642005 7.557245555272593 -1.7694051705724947 -0.007430231025800106 -2.138728970182562
Ni 7.329271608140082 0.10961762961240341 12.470197454168986 -3.8915199292371434 -1.571478821003229 -0.6702945645670327
Ni -0.1374783366651117 5.860337556227068 6.902261203904083 2.469619919737727 2.611052962205955 0.9203286905751311
Ni 7.897917797822033 0.6267513075437999 4.097550272044988 1.411625109935969 -0.9618846596400465 -0.8945361549920593
Ni 4.831949005075978 9.032487815360497 2.1401711840352493 0.7224306231406398 -3.0162593346452438 4.623391643186025
Ni 4.282901949498127 8.511057296238642 6.4170755178416625 -0.3326824942379496 -0.3362506712051822 -0.3042049556235471
Ni 1.7781513213845448 3.603855100359136 5.461300121387095 0.08018550851165546 0.007057678177729781 1.2330738224592053
Ni 0.1991739784740504 8.617257473016569 8.960730661031768 0.3513528169539433 0.7292872410511568 -0.586389441111945
Ni 9.710412041066318 1.075089685970982 7.532818204886331 -0.7836514176243342 1.2799792287614924 -0.916189471595777
Ni 4.650963397258344 9.08130322431286 8.913930361141945 -0.8313574654510456 -1.8723997065588658 1.0669579325323173
Ni 1.248899859011601 8.627623029382843 6.294447618158341 -0.5559419232553652 -2.01493806627613 -0.15980357455561509
Ni 3.101864677021682 6.987629231840477 2.5305653539593376 0.17152394831633686 -0.6157234141893719 0.4611083258132317
Ni 9.077065320852642 6.4319119220305385 2.20075917072346 -1.7309604934430511 -0.643342461458221 -1.1384533694691426
Ni 9.438175858522477 2.559946280244464 9.634554504647934 0.18393080662112196 -0.9116764142167718 0.27435650480354684
Ni 1.4399610121419393 1.1072341369407632 4.837480732042925 0.29370122787874575 0.735733768007449 -0.7077506525309617
Ni 3.7610598017841084 1.470290555228095 5.013549249223272 -0.17982475487254837 0.775698995546477 0.5994627293561353
Ni 7.223230469681854 2.6903015712261094 3.9835478624065264 0.43313163809464755 1.5419844110885381 0.7361780546337192
P 1.1524571509069808 6.2194460821077495 9.371197337940943 0.0948053153073593 -1.4674599575174019 -1.4503433524417733
P 3.5904116847469196 4.931319889302117 2.9593111469191116 0.36746360647287685 0.15001152816585778 -0.07453190977030388
P 3.7278207929669858 1.8348812255407596 12.0111642165018 0.5024904883044443 -0.26119219950744693 -0.6716248533426821
P 8.100869404148701 0.8438694860775527 9.071760925130912 0.5899591607410742 0.5985001083325499 0.34756763887989817
P 6.086546178010918 7.652961364704235 11.5644396092598 0.8308093062570596 -2.8680874307912863 1.5399606957902898
P 1.7647079057723285 5.826069475929539 5.643037886904952 1.13358549985388 -0.014065991174762872 1.4654524401690696
P 3.652155973571296 8.430817786352781 4.186453628276341 -0.09388460326530283 0.013429386032028486 0.3258387318432388
P 7.493548837194028 5.212247048257753 0.9222660224939576 -1.9158747470233652 -0.5711659392939712 0.40056527412285203
