# total energy = -381168.4208085151 ev
CRYSTAL
PRIMVEC
9.22123937919964 0.00000000000000 0.00000000000000

0.00000000000000 9.22123937919964 0.00000000000000

0.00000000000000 0.00000000000000 13.49621592861719

PRIMCOORD
 96 1
Ni 6.427840097970609 0.6371950166222389 12.36106306014686 -0.24301655703968472 0.2532842575142799 -0.34869969560181235
Ni 9.066728271217071 7.934489175418205 0.9330962885017638 0.6080679545266431 -1.0379869992212638 0.9645439516397646
Ni 3.94655212658998 1.7806120987707479 5.95442259146006 -0.14756795172137166 0.3441794391339556 2.6648440398844815
Ni 4.765914570975365 0.9755886815868937 4.155835530808962 1.4191790110238267 -0.853554570373375 -2.124989251998966
Ni 4.672733947263806 4.3402713834541515 9.653087517383154 0.11876953943244062 -1.4021871044515206 0.9744743233795992
Ni 8.088742067397124 5.656566416836661 7.828304759964139 0.9882238117552076 0.4438539096081582 1.4963061923251328
Ni 5.584871280829003 9.208799906004206 9.989628635360807 -1.2445478845370759 -0.7748957829188913 1.6163491991533583
Ni 0.26986971317217895 3.195491402128545 11.317656773702305 0.823908208261852 2.6396996794083702 0.409934631152894
Ni 3.358845657353708 7.20962599197256 12.539172220468597 0.8605757388862146 -0.2298679354728686 0.1597981752389764
Ni 8.527488636045911 1.749398203544263 12.7481882087462 0.9267353654324234 -1.2464746692461435 1.998018664812972
Ni 9.188181214799947 3.1013886544811955 7.221771286330847 -0.510001966190141 1.2992735582147301 0.7311937140452504
Ni 2.677359183847614 1.6913228380682215 13.200797066521716 0.5667279581272755 -0.864271185459931 -1.2734416847532906
Ni 0.6130851641970787 6.197714848554905 6.159605310536585 -0.1494026909372653 0.0021538131182091943 -1.1673595109805315
Ni 8.990570055360191 0.8925329786903063 7.424902279650238 -0.23216393059589693 -1.8898487552732484 0.3477234477314721
Ni 6.702964995452853 6.766407122235192 2.7226723540523246 -0.5827163631357319 0.07618487199269461 0.640063276486317
Ni 3.24061092630674 5.528335862325731 8.295125391838047 -0.08378222472397828 0.31862575903456736 -1.0253955357094986
Ni 5.9438264653139 7.116473031979074 8.737126135856236 -1.4686136115058708 -2.1613845027985485 -0.28089919101807104
Ni 7.238414701247917 4.411837422110798 3.1481135964316005 -0.5578468535875618 -0.5559290677395587 1.0895139634559623
Ni 0.2439368217259624 6.19756730872518 12.948458773616771 0.691217430762629 -0.8424250361191169 -1.2528168094140875
Ni 7.264833552008295 1.6397761100575716 3.12828793181212 0.004986140360681736 0.037335503225664736 0.028205773010254648
Ni 0.9114291423825109 0.8751629301118339 1.2788595679612509 -0.628686144997627 0.49934937157230136 -1.9217556312841741
Ni 8.692936112605318 5.67376402823914 10.450430564305815 0.15856841659693335 -0.678580972945541 0.2571182865483894
Ni 8.1207028830116 8.462903075583194 3.429509858801152 -0.4240422741988697 0.3280298259572867 -0.5473932623544057
Ni 6.778081211262291 9.023554428543394 5.607192212818732 0.5390793431720715 -0.6365457502513617 -0.9212008087674394
P 2.518209813769652 0.6769865086994403 7.95314466476317 0.45617155063324666 0.8903521988176989 0.6627969706384069
Ni 6.919820881432541 2.989820879489988 0.9289273661880583 0.46500611820574106 0.21565102054253826 1.938180609609417
P 8.340989070032425 8.726925600878529 12.039367215411488 0.7730247911484235 -2.395520469519152 2.8524906047942937
Ni 3.1406619129064834 8.966198319737268 1.5554386548902364 0.5809728980820639 0.34775455807972366 -2.5644892555138026
P 5.950816164747186 9.094032360955808 2.5191088846070473 -0.16332572877626064 -0.6951337350978997 0.6015730908309188
P 1.5918902140720073 6.420260239218416 1.277407222762382 -0.7488350812760974 0.5978876715595316 0.32216796785987095
P 8.804052046867989 7.8428116137219845 7.344101169776657 -0.9131296017235306 0.13611343002752688 0.580641225774258
Ni 4.8949473733104325 7.165834326261902 1.306952073665087 -0.15166449038824847 0.7622726948382421 -1.3828580651056055
Ni 2.7091355746749306 2.914040734446782 8.073638599452824 0.7231153079124901 -0.1593096656383321 -0.2604555784517385
Ni 4.279752389548267 5.2126651753868085 2.5783848554474873 3.409057049007535 0.0986426867755785 -0.13812351847902019
Ni 1.5858779660106577 3.496887610541441 0.7126653280230193 1.4690373293068508 -0.5480694624858239 -1.5893551870630176
Ni 1.0357664896365362 6.520605765911062 8.42301568261667 0.17891149902965964 1.030925207278476 1.7179080311344674
Ni 5.046793521816939 5.22823062742294 12.117280233118176 0.25437826190940704 -0.17085880392851222 0.23669215748355366
Ni 9.19654487889756 3.2584724669429885 2.219627927608786 -0.9903650264679266 -0.5232670587301634 1.1156826514315301
Ni 6.3474032270516645 6.5249120846912 6.557366236611323 -1.5883190324890195 1.4978352273751494 -0.21826583245756606
Ni 4.222645254204805 3.4700353615312425 0.44237512633612025 0.584781987415509 0.2021509291735744 0.8686646865419362
Ni 1.7705609478706392 4.105793709061521 6.1803761521902505 2.521768833827141 0.5278914448760522 2.0822534036933362
Ni 1.969038903810036 8.093039164937904 6.910102617273252 -0.0034326798306327975 0.17869784035695677 -0.7406450892661374
Ni 8.043447339671129 5.570495368670041 1.221052540550524 -0.8610421369996719 -1.0866829217650706 -1.2619825350737555
Ni 8.079483943081796 3.2499243780582168 9.490471883430558 -2.009501982862223 0.7501247466217984 -0.4966296586482931
Ni 0.793464593648729 2.06759551006725 9.322956082883177 0.5266866259346735 -0.48106599988208115 -2.561914295697775
Ni 5.0497443184114665 1.9097002285419622 8.102493701651557 -0.6676499278553341 0.32019053241852596 1.6291268105340009
Ni 7.591689602288348 0.2808780287176376 1.0805383730909384 -1.2748912727156239 1.3179857899122527 0.1605967598808718
Ni 0.04604625873366371 6.277017507032829 3.041790862387165 1.2790970832668553 0.3467443716476545 0.24826880657755954
Ni 1.1990930811436258 4.403215563311163 9.036782296402299 -1.7793563682479354 -1.280328641681111 -0.5275759705181624
Ni 0.7554398910325008 8.658485562364211 9.649835186261624 1.2510751441326324 -0.22034225537062052 -0.47062500705441523
Ni 2.5558785765466654 5.133593047892833 10.653804998344254 0.9877743829226149 0.4355767572010305 0.8215661903922367
Ni 7.8178404975407965 7.793330443327503 9.74741249689903 0.5238321872050139 -0.0918958549700482 0.16758476116293075
Ni 5.450185858767545 5.2581166641818875 4.797797006055298 0.09863857301052044 -0.06410762911318636 -0.6586837198009818
Ni 7.493003898680123 4.252226990064941 6.098048927202936 0.9388303489237444 0.1666005428727905 -1.1007332292105494
Ni 3.733255639002441 3.306690327545437 4.393584900925775 0.013807852417369768 0.9662601629999228 -1.3713418369358898
Ni 0.8030786578032736 0.719844062863143 3.4134086527583265 0.4901574206603881 1.735814993321875 -0.21153005639562927
P 5.858124266721596 5.076817877166254 0.6697349260683894 -0.25931683686160506 0.17439304233401579 0.6139218422042589
Ni 6.819171053841084 1.736949530411101 6.797558313034043 1.3400126878053054 1.1669949285522612 0.10624106794812671
P 3.9661103752680815 6.5743102639314595 6.524246311209561 0.950230620340886 0.3127343332507969 -0.42985605266716936
Ni 2.9122979202081396 1.8386321368106424 2.101009593004529 0.01684972456748711 2.317949258701892 1.8165604881020585
P 4.632501679945297 8.985055754224168 12.99803031215696 -1.8522813385424357 -1.2280856252159946 -0.18831428040079826
P 1.5510770086739507 7.332683431203709 4.510165341631936 -0.02500140714034404 -0.060186439681909246 -0.37952490851278514
P 6.469086701618486 5.5573089963882465 10.139774387329718 0.40088229114263857 -0.1255798774860547 0.6650034913714225
Ni 4.523294542229712 8.894125112915937 6.583183862565566 0.32877878830816926 -0.5858135140038169 0.13442061570613625
Ni 3.6452573518100206 7.997922080961187 8.575306294860228 -0.14138162040500168 0.525667697751856 0.33944166733865416
Ni 8.716228963223369 1.970744833091247 5.04290123668397 -0.8903884513722728 0.31016580119267223 0.1671952390339959
Ni 6.065039656673469 4.531584436412461 7.790893269765211 0.8063537443178564 -0.2726274379275821 2.0938238821397555
Ni 4.335642321296486 6.7428376344364045 10.3862959224477 0.42860829630299735 -0.240003995465606 0.07986797727123664
Ni 1.654557756748282 1.8223382068652363 6.093149682732085 -0.3969526170709292 -0.893093766118578 0.0350842452976428
Ni 6.842971072623818 7.045321949093533 12.00944613794298 0.213223127827336 0.009400210267977358 -0.10777138854972408
Ni 3.1702528700059784 5.3483833762563515 0.3668098361699534 -0.7021785577598229 1.3637496264109288 0.01520370432363188
Ni 1.5574304425915424 8.545350176682161 12.986369132864963 -0.8069368705148361 0.36361235104758666 -0.9462227847330738
Ni 2.270776298079175 4.561470473171409 2.645433408942699 -2.258598941768033 0.11236517856799356 -0.30453971325514645
Ni 0.38733354860882696 4.255574299951858 4.5880387080093845 -4.269207784541189 2.5396814524415032 -1.1573203815769746
Ni 6.159916988426882 2.869105635055745 5.05396856816132 -1.1723302247222456 -0.3980414792597338 -2.0054113577326174
Ni 3.241016660838487 1.5907006741948384 10.139355743062868 1.416016297025129 1.8460705817460334 -2.079457071895122
Ni 1.2169454005405163 1.1607511678934856 11.20276381979864 0.8787030446145447 -1.5472181486836514 2.931601906405164
Ni 6.591056034605403 9.073847068001369 8.064016236182857 1.6103374457416397 0.6655197688862087 -1.8138361471923599
Ni 4.8072441657774645 2.770549028798531 11.828610257143113 -0.3640198708986505 -1.1070571145460484 -0.9062087062339812
Ni 5.077703116144613 1.4184848079467351 0.7885173987332168 0.32664400135335353 -2.0327293288212798 -0.2179760691312891
Ni 2.9900975166707244 7.317320846433451 2.8619536418097593 -1.3668043540768524 -1.834648455952021 0.752819262734826
Ni 5.190128466396106 2.809103030553903 2.5433616662422542 0.1914651673249541 1.1640705558166144 1.5403106229305408
Ni 3.1829320741230878 8.827197357656313 10.785838391966383 -0.41791147871078344 -2.4611265375547355 1.609202817916564
Ni 8.136710954536909 0.8195542461640299 10.607850029880236 -0.9929772672797931 2.5266413314280936 -3.420861240731315
Ni 4.588147518633807 7.808545488268035 4.461039188952734 1.3429889968248097 -1.0037967264928003 0.017824172665614462
Ni 2.9580444886626713 5.603525848050031 4.692013714513299 0.14040074454897108 0.7823177864145753 1.1385736970970906
Ni 2.608199888663379 0.0991126469904952 4.846193758701291 0.8014660772082519 -1.0552830672975502 -0.8938692108320219
Ni 7.020544478938861 3.418064456510129 12.320074651201004 -0.20224657421117428 1.2685907844188926 -2.852442268054862
P 1.4335707555362562 6.827562381656771 11.12873663235737 -0.5585001709008446 2.0780113405875307 -0.276818078970162
Ni 0.2868266502274176 8.879122156480635 5.271959588705964 -1.49176973790736 -0.9369027928837285 2.1015256216593876
P 8.927690424178685 3.866659308793152 13.398773387040043 -0.9016997626200342 0.8750633909794283 0.1691958144037925
Ni 7.751595113993657 6.2772572592561335 4.883146953304131 0.601209536843913 0.3319417594171832 -1.0645439237741858
P 2.6614894309126713 3.1894883753065533 11.376014309102699 -0.5778153262896888 -1.0897816152950524 1.30252446105186
P 1.690382271653716 2.9727800291565925 3.928262720447525 0.8648730807099879 -3.7166075240645475 -0.9421236749630355
P 6.075570312020188 1.990192426897054 10.154728471196421 0.6361996797658527 1.5926174027540572 0.018121906411691372
Ni 4.399425633935067 3.9679638443790193 6.604049682984617 -1.4551870536873195 0.3841168987588417 -0.6264896515669405
