# total energy = -340854.974885366 ev
CRYSTAL
PRIMVEC
9.42559505812076 0.00000000000000 0.00000000000000

0.00000000000000 9.42559505812076 0.00000000000000

0.00000000000000 0.00000000000000 13.79531112131010

PRIMCOORD
 96 1
Ni 4.856471790747851 4.8910260216347945 4.600597993797879 0.09118571627690102 0.6726232127002093 -0.28710737671131203
Ni 9.025091942805986 5.776485257308904 1.637710308927916 -1.656605989790876 1.9363312151055039 -0.21251478890640174
Ni 7.0041595668543355 1.9150923708699554 9.945453213818682 -1.8268760110954536 0.47152386471960084 0.0877509795637392
Ni 1.8897092438163439 5.62373406643225 0.7844686991661541 0.10793131116635607 -0.059371399979781615 0.3359233697727505
Ni 5.8667164772436315 4.318675622794672 2.325724067849836 0.7530421773789095 1.4805617850066826 0.6531707604025525
Ni 3.5805949889067756 0.6688223051551697 3.542594760526033 0.8390761742515421 -1.6595367902844258 -0.9980407978456296
Ni 3.2764781696031084 2.86040413413056 11.713763623059311 -1.2964016359835737 0.041136622139309804 -0.8798487281832138
Ni 2.429908938467879 1.8122497049650332 4.950171629604128 -1.3824544019092837 0.9189068705269401 0.02788129979130037
Ni 5.412016353889278 0.15913797397785204 1.4469070488985942 -0.5928650215339597 1.2386001515940734 1.2037940996584817
Ni 8.19149233024698 8.181652009176066 6.7126466530449465 0.5467438016958649 0.3211438974707308 0.6694720686657373
Ni 3.0789459773778813 8.91830937823474 11.942863075149093 -1.0889694038064017 0.09897513041433277 -0.9827710161707527
Ni 1.0645926666632979 1.4960775497900074 2.484162662686441 1.459040365995139 0.27336405898329047 -1.8084396587671367
Ni 6.986062424654953 6.968502541364617 13.550264441131006 -0.5478761155280952 0.9726768651595442 1.0635908158322973
Ni 4.679543948964212 5.077530267832274 8.067801190992677 1.300507173511515 0.002235317088421957 0.3255155441758652
Ni -0.0007455645562349319 2.859810321652142 3.897616390181887 -0.00644704117692438 -0.69430686832123 1.5633520781310366
Ni 8.099328863358672 6.716914562413633 10.599681870397132 -1.8992667061530386 0.900609614879649 1.7991291799994886
Ni 3.634415135760144 3.8107397394704714 0.3174700595921379 2.5467897813515106 0.8228931367337763 1.063500570111336
Ni 0.5859534173933252 6.648296231574312 6.859690646212368 0.6423937243917065 -0.9405977252368123 0.4617986670120369
Ni 0.6400374809037682 3.8500161934000663 1.814759740885708 1.74354707185881 -1.3341161198152123 0.3342164143839728
Ni 0.4113282484426588 5.222665578033355 3.9381332523997314 0.0702754484867951 0.7362207349461966 0.04532803451283807
Ni 8.41138203356436 3.1436055583610876 6.151577748735259 -0.5849974458604247 0.3562384271810187 -0.24230076191958272
Ni 8.033877532404242 9.2090041504072 0.6556095062306422 0.7161177935487345 -2.2815601785498965 -0.3933075641191743
Ni 6.383964848324598 0.9448687603005153 13.26674348923352 0.4042283247967361 -0.05450121637167388 -0.4418088541536713
Ni 7.329606507406544 5.725398532975234 3.8893124410789417 -0.2134355009484582 -2.0023774560022995 -0.12177695880019672
P 6.036462015716893 2.764347896550406 0.999345871118101 -0.38255238248519924 -1.9798898164227448 -1.9878607504433636
P 5.148476720610787 0.9214678358534296 9.055241593198257 -0.3847781864919244 0.9902544690319913 -1.2191934649326874
P 3.5996252650008125 3.3151325342695994 9.534036364784006 -0.9089556728514991 -1.0097917677339705 -1.0369706421416076
P 3.3791888771794936 3.0508388533994673 6.5712306825896345 0.30316443017417466 0.06718421115598107 0.2076716018814875
P 6.80840881206436 8.55097509396688 12.007796940943761 1.548906849239984 0.3172106238545956 2.608523253805566
P 9.511650576907167 2.501637715622719 12.019826827708902 3.3025794395685706 -2.5286596474097034 -0.2392460342536589
P 6.750073805256041 4.610982171694264 6.1710152105287825 -0.5349990024551109 0.8507518108172573 0.8074037828489257
P 3.4383627619335124 6.7934975209396615 10.408658994006746 -1.7629496447551378 -0.49016384841829125 -0.6002101490451212
Ni 2.923310554463201 9.166400461479489 1.3547850546278264 -0.7756478305935675 -0.6962917599617428 0.008877762105604065
Ni 3.11386780646575 8.900985134816791 9.328761988911605 1.3919577134140286 -0.4902232409013171 -0.7119801172312771
Ni 5.584024035137461 2.9653015797227034 7.5641341595966525 0.15629838961583406 -0.787991696870901 0.7242923589397268
Ni 1.0095754692581993 6.5998015458369075 10.27961694453026 1.040122300396712 0.44341630785010727 0.941760635196662
Ni 7.17112455483342 2.22146190735365 3.542070697449842 -0.8885010045415731 -0.4838476763922764 -0.3438927611314722
Ni 7.683396211809555 3.169450539564579 12.077159893779827 -2.4185079315532607 0.674336081626258 -2.4613887900771867
Ni 2.538831113080406 5.696414828671537 8.48829583047122 -1.329659112485123 0.5198482628566016 1.0258933012815235
Ni 9.324543092636375 8.600468892763208 12.279606591183573 -0.6418813035316623 -0.8812301819117725 -0.25415174772089777
Ni 6.9506881670121015 0.636917608993354 5.967106603356743 0.39668882188658133 0.8504502204164386 1.1786862488472605
Ni 6.9135795999084735 9.204574120806308 3.1016682589924898 0.4480635768141315 -0.6288409254079363 -3.2880095121741952
Ni 4.7366159260565315 8.383981829203108 13.526757950021091 0.27006147697261873 -0.7641128333707744 -0.7504710742176236
Ni 4.089011577570647 2.865578785728195 2.8472139566337815 -0.8772370015919795 0.5581605281732388 -0.01988619740096575
Ni 5.950161268853592 8.742823652470113 7.811691754170316 -0.5798619244060723 0.1466071304699991 -1.5352411788274334
Ni 1.4813359193734277 3.291700505359359 13.573509843262315 -1.1320875751521149 0.014071390491401572 -1.4439693305946293
Ni 6.943270223829333 6.692643655557692 8.37826520589898 -1.0161637326985853 0.00432356707601836 -0.1669350433940738
Ni 8.74635825055593 7.90354983178401 3.1396336126721196 0.2758408026585572 -1.7000080109255946 -0.00353989483245842
Ni 8.006505604827677 3.3461804438554132 8.450276750900686 -0.40946669037754 -0.02585115673514903 -0.1432181593931082
Ni 3.3973142961635614 5.834396112346924 6.28751650599679 -0.8699913757731597 0.5988708614084073 -1.4430658449437535
Ni 4.576673006274603 7.893417317271335 3.2216193221922547 0.7323612519907904 -0.33838314416715276 -0.9089345898055765
Ni 1.75354709995579 1.4486196794911086 10.280238091233874 0.8707282539391842 1.2806536291206976 0.9186438466735405
Ni 5.4063421457621805 2.807451142007578 12.397611269037416 0.03297851180854965 0.8528202633105119 0.6004585176105013
Ni 3.7637531489163485 1.2473643772821548 13.501525632485807 1.8954828136305741 -1.2009707712770736 -2.3914270161760687
Ni 4.610011335420026 8.351925380963475 5.608304367588298 -1.9574217172272161 -0.3153344898778053 1.3090584055156356
Ni 8.851877785411176 5.780019855394721 12.883992701954561 1.524241742393136 -0.04415535436097556 -0.7270154142978448
P 0.6978851844559888 4.313793164638797 7.717220901651587 -0.16133260960563184 0.9201790523711443 0.4560753913750145
P 8.35138812205443 0.5905201181202004 4.351137371614812 3.9182249493321546 0.11900068160664021 0.1217982989564354
P 2.428419694474388 4.169817202609864 3.822970391406887 0.6543483256504214 0.08475024506420244 -0.8191989757116407
P 4.264289940247572 7.305175365437379 7.710185637621577 0.18444425592243072 -0.27698391512406495 -0.08046678719750013
P 8.060184367757614 1.070662749776007 7.906989231361382 0.7531342228720836 -0.02522252201221463 0.535099275478401
P 5.623489000964967 0.7192464101676856 4.251797256773062 -3.3404916412333114 1.1076669802159052 0.18962271479957665
P 2.8046705915134025 7.662414837572148 4.389226200587573 0.45902341825974496 -0.36048537538283076 -0.061866141377177324
P 1.2176266253868169 4.80095503681329 11.890385133008847 -1.121682577768707 0.6335383308836058 -0.5192579375707702
Ni 0.907652741415079 2.193543295273146 8.278276610128419 -1.7685605631840122 0.8153194381515764 -0.641186848567799
Ni 1.8533170219247754 7.266407893632143 12.974103274274626 -0.7920951775163133 0.554082244338807 0.2903839905800547
Ni 0.2916505274948642 1.1538907527033706 6.174366952073627 -1.7621582592020941 -0.023943398189474892 -1.4145502540025636
Ni 4.702815742761229 4.632802423877371 10.63864068177875 0.9578950788646793 1.0301129957898258 -0.8134350766446701
Ni 8.720880867553364 0.5896859529719477 10.430358598575191 0.7850516404059705 -0.14778726682102933 -0.31870366346035434
Ni 4.856886516923255 0.7582683730351019 11.087801383013009 -0.5223550884388553 0.8529171938996923 1.7881891360482172
Ni 4.629079313893645 1.3027397472932827 6.043863935388337 -1.3596741707899744 -0.5707779598269331 1.094993755623611
Ni 6.620745217694733 7.80731450790084 4.897183762780033 1.0235397134476825 -0.8301464758620799 0.015846994334585612
Ni 3.2032412972649866 5.278012671259797 12.402522946537466 0.6813793616262847 1.0419804366513732 -0.681566023715794
Ni 1.2370244996817787 0.7519466265386826 13.528992758570816 -0.23201557794349073 0.3232545160558304 -0.10233659068739796
Ni 8.761655991071345 5.518186254792317 8.909935679729568 1.001575036251133 -0.5631929483908236 -0.9044585563120939
Ni 1.3080463572194554 8.981225224162277 3.4045446700079083 0.36814032082492726 -1.3329061586675108 0.18113241794037838
Ni 5.199478614590397 7.088037935829489 11.458122638303259 0.3142356003866717 0.45695702264901944 0.3616367153784546
Ni 0.6903833534786514 9.117688987059488 8.091308624662082 -1.1127819328449673 -0.8350043181750135 0.7365979157799573
Ni 1.5540355328025053 8.69829714218372 5.751140775194364 0.29574216956817456 -0.6166099305593832 0.535284909126646
Ni 3.8258206913032895 5.668939219551121 2.38658890432811 -0.23742260789167494 -0.3559643475840257 -0.3836350740264167
Ni 0.4355510847646329 3.5517432429316163 10.053732562859334 0.24908796004474523 1.074791055423491 1.407660725971582
Ni 5.93895423652283 5.188167900715784 12.499075912968614 1.5878207526963624 -2.1717013113435244 0.08823897494375126
Ni 2.316669841393208 1.0095377668786172 7.192502746615928 3.6859556035066454 -0.3827403301262892 -0.36332053083878074
Ni 5.96129289642519 2.9472421399029036 5.179559504897714 -0.8247810977851086 0.18183458621372556 0.48140230017557734
Ni 7.72452008233867 4.077003369673766 0.20902953287877166 -0.22728397679577628 0.3289137712241368 2.5819760994446566
Ni 1.3200922674959188 3.7806626661588956 5.691931073179743 0.4966589692243318 0.4432525285787334 1.1005208560894273
Ni 8.2130769425577 1.743885865187891 1.5901440442877188 0.40149087126091504 0.8389237078340778 -0.9053296460631376
Ni 6.383936571539911 8.8041654240501 10.08186136570601 1.3085282440437787 -0.8327746575135464 -1.8664617438078757
P 6.9338257777440315 4.452990350055706 10.245308721670089 0.44552924042805203 0.2265967209207646 -0.18882747259179095
P 1.1725722817862736 8.908968613693288 10.201094198574735 -1.1113282311175763 -1.9891822974682642 1.4565489670318528
P 4.679289457902033 6.203521259644932 13.818072926337674 -0.9381425788281006 0.45905170039451904 1.6186703910873672
P 6.487759499313966 7.008099465520659 2.434872456739855 -0.08029863705075203 0.5673558215192616 -0.8786734769281899
P 0.8036874871581015 7.606935786017169 1.292685465218241 0.3799619960502037 0.920626424321208 -0.3030998954848264
P 8.079968691443291 3.828365601925077 2.4746164201762673 -0.3132439258973637 1.7420481187157804 0.16325476632900918
P 8.688852696098417 6.677421319801442 5.166040374139082 0.6948910229594742 0.8957602572071477 0.3956320984872928
P 2.745317620456369 2.1085715572901127 1.1237967133209825 -2.184507719079573 -0.32437731680636395 3.7246386218991403
