# total energy = -340864.57925677276 ev
CRYSTAL
PRIMVEC
9.33243268061061 0.00000000000000 0.00000000000000
0.00000000000000 9.33243268061061 0.00000000000000
0.00000000000000 0.00000000000000 13.65895856482733
PRIMCOORD
 96 1
Ni 1.7582396566552607 7.304411097112874 10.595131397009368 -0.6082304482464365 0.2521102918108368 -0.7218109872787697
Ni 3.5881430641582117 4.341307714296513 7.647965009546907 0.0784618409523294 -1.785722933895912 -2.1543988155093348
Ni 5.539629405121732 2.939025706401848 1.572992733673559 -0.9964210028540196 -1.5138285174796122 1.6065887773324845
Ni 9.300525131337713 1.5210932088377498 6.738824611649432 -0.05909706327247242 -0.31646397549655825 -0.6563427303726309
Ni 6.2099033878516225 4.0536354757394015 3.55242224468372 -2.1136352604387274 -1.4317504199309343 1.6264855162564118
Ni 9.335045799964567 3.769789534596999 6.098929563905789 -0.6486736438631474 -0.36539643953120293 -1.6403481331711167
Ni 6.272094719489727 4.669538705449544 6.249916193133492 -0.562115913276561 -0.7581041652828493 -0.7894942495583565
Ni 7.8135232992217505 3.4005611665102653 10.969988155268812 0.639447240168873 -1.3063705742708274 -0.5745358842074686
Ni 5.398448362951676 8.154595717795855 4.253741498095982 -0.5052156005450912 -1.2108546060496888 -1.292849142745625
Ni 3.409921596527225 0.23631679454880905 4.547954838745703 0.4071465268847956 1.0813771932814409 -1.415538586057762
Ni 6.728814644315243 6.405763153321147 13.695974020809091 -0.9718991064532552 -0.3605385972182694 -0.9947878381259706
Ni 5.787302837046053 9.487631074917 12.273967916363235 0.23465970043455717 -0.08738999667989467 -0.4536984065024058
Ni 6.042955498944951 4.8029271662993995 10.693216198127264 -0.9310244797260805 1.1023573950775336 0.5853923673059983
Ni 9.22660293177207 4.75192542149114 12.167578183368876 0.5158669096113503 0.04510409142749006 -0.09456903092683712
Ni 1.9446456677806376 6.060715118408834 2.407842300913002 -0.4426462624533022 0.24323561502902624 -1.5945776118042214
Ni 0.09526360670700032 6.397615939557633 8.801259578990445 0.21735874726226437 0.4967710693221638 0.28966922390121724
Ni 5.798315107654241 3.5599591173474257 8.515131858048296 -1.1970626944719192 -0.10449888844603938 1.01077804290664
Ni 2.1541867796159284 3.598455402312489 3.4082650897196376 0.32105827973546003 0.9360551001714524 -0.9313921474781445
Ni 3.5054017156733015 6.210509995978344 3.998701043783438 0.33365462834323184 -0.16441921895075556 2.5902961892745773
Ni 3.4430517326789767 2.77196582830255 13.68859859923142 1.2164585825000276 -0.7040068692178133 -0.5395609107941804
Ni 1.6632728213087182 4.316390118937308 0.2236330852406835 0.051150554731886094 0.6733765459264661 0.4146832015814729
Ni 4.200285323482676 1.5942781462186055 8.009708766593162 -1.3789232488275736 -2.242140539101693 2.0577641603027206
Ni 7.097324415082628 1.2838534366930512 4.961670913602973 -0.015742350435921273 0.17437195928809326 0.16076002493161345
Ni 3.3560081327106985 1.6523912047585936 2.1152397381505463 -1.1535819975804649 0.15811461688896639 0.34584114310709474
P 0.5101583678166542 8.718871929705577 12.601755616962121 0.3305579916957791 0.2455647773828352 0.012232537510449901
P 7.711165177161916 5.216531251964043 4.467818172232611 1.1082488208613044 -0.09199098578701576 0.672620641597048
P 7.538561834027648 0.48555994165643257 10.293719017760361 -0.4680873282342261 2.567253448522501 1.3101562665655049
P 7.230992848914048 1.836118807693674 0.8758497439029617 -0.17571381802796834 -0.15101168729559797 -1.7636723818537754
P 3.1972821170292915 9.015941928010525 9.886422723370359 0.6028540144258715 -0.560848359418047 0.6665592658943166
P 3.443733000267449 4.299638402207057 1.633802865269281 0.025184726795743722 -0.09698458234686523 0.08567249976815568
P 3.788258418947511 6.424250702537097 7.694132554206828 -0.04901628199770268 -0.2552092424511347 0.25366375234088573
P 4.010547633876686 4.385608772412673 5.110253508162311 1.9577220220764542 0.7670732015506789 0.22637020673225533
Ni 5.947251401413623 6.018215219807403 8.388362891725887 -0.5981455532066086 -0.7921442855866938 1.2985721612723313
Ni 5.063012733739728 8.099245059340632 0.6116905695808748 -0.546813992812168 -0.6347279803163326 -0.9050632797756285
Ni 1.585804297309932 0.22627603018664857 3.1220141806655994 -1.5848015062540641 -0.41886201554951086 -1.5856011193372241
Ni 5.503624879692589 6.877107000217027 6.189775196963708 -0.16520211986336708 0.26696921120054024 0.24952093381710572
Ni 8.643139238192488 7.123828524004031 11.943134109724928 -0.5649508116221947 0.09416639617177977 -1.2917615661084012
Ni 9.392906882821146 4.734240461489008 2.5357722218656296 -0.49825022497085153 -0.32692450870824985 -0.557251128985092
Ni 5.249278758374324 0.3312658982731857 2.425817499572689 0.1810840812009462 -0.5878464852734456 -0.8279417549012773
Ni 3.2969898281969865 7.723959942419396 6.010611153628122 0.6161473891006679 -0.5434687304890189 0.18726089943561947
Ni 8.031986216736216 4.242551911266137 8.421909254376898 0.49451775451161284 0.29268204258561203 0.6095224275849825
Ni 5.088826242639938 2.438648661317772 6.364965490447627 1.3860701442849999 1.8029269564790238 -3.3969103863426726
Ni 5.329136385149124 0.13729315069940287 6.009217821423205 -0.3988410923428938 -0.06562020910297085 1.9378983024823078
Ni 3.7607184099943227 4.541189758267842 12.123514169043776 -0.35561956265009725 -0.10649123628571981 -0.7512244074438805
Ni 8.742501649349588 8.856637301500552 7.712831016402222 -0.4071933209623309 -0.07031838590958857 1.368273225312895
Ni 5.61700460479333 2.6407051621125817 12.182220770304678 0.3211744935983501 -1.8370012724549136 -1.5668757750135789
Ni 0.35767761611067095 9.779736219015543 10.583808356391645 0.8919100302231221 -1.2315419591957113 0.09229463307036363
Ni 4.620786076926516 7.130650532321475 10.318318377163855 -0.39647927697893653 0.35002432795050686 -0.14674828403355372
Ni 3.880705497459976 4.727950401836535 9.738140633144564 -0.7298402853411495 1.294828377959183 0.8718852503617629
Ni 7.449670412381047 8.047907346954496 5.636642842963508 1.0780530140042144 0.6226044575799213 -0.25043804631473643
Ni 9.110190166037718 2.8622851121551287 13.890068090008219 0.38974272958605133 0.1602910557149949 0.22670136481942893
Ni 2.6941893340240433 2.906782151358383 5.693654674442677 -0.2594045114794048 -0.846754002511774 1.6746988427368448
Ni 9.216589231464795 6.478294820411686 0.3569860828462076 1.7134232558902363 0.7509598409285841 1.769685935037707
Ni 1.4427754334615528 7.506486262773121 4.37422693746882 0.1257074042028545 -0.0668895627336977 -0.5123429556184917
Ni -0.299492697838748 2.1855904157147013 9.041287882031522 0.5427894450338071 -0.4509406412516105 0.28891897599875405
Ni -0.31276435040815814 0.3511589118565869 0.6721535346794576 3.566034724078581 1.836260023413515 2.911280678349309
P 4.794406655227132 1.8719180196030036 3.738634141208546 1.0542137454927714 1.1073435354382155 1.3490048640015864
P 0.37047798082778155 2.2588220152591507 2.240915876601583 0.9596025484740892 -0.14068073768323514 0.8918691496828576
P 4.435574617189145 2.788054942309767 10.31797774336962 0.8295330106477972 0.21343241562466467 -0.5604323549265509
P 1.4903055132984178 5.287999021724638 4.813075253637826 -0.3415232324580312 0.22290821632558386 -1.5337478821113586
P 4.941467130010035 6.489951028877472 12.28901926385212 0.8752780780933959 -0.24221000197798934 0.9174207728997167
P 6.421740278135739 7.644914237291132 2.448641830273066 0.5008051301822214 1.7163687116718054 -0.873724617563347
P 8.05567193097654 4.748771059232184 0.33475809459656186 -0.9493577308176296 -0.9244499118323564 1.099852626377809
P 2.5814255494827436 0.408586036591743 6.449637719262057 -0.2867260821124933 0.9534380715345903 0.8473708101601664
Ni 3.6230650273919736 1.1898571743492643 11.48887794713718 0.13228634297195282 -0.728979480002751 -0.01889657979418681
Ni 3.4140185344907796 7.978763352940882 2.350474903747246 -0.17916500980136243 0.9356185268546662 1.0486097690424327
Ni 5.7243649107904435 4.222216540371864 -0.10228812881444357 0.4807021887847592 3.251229110121052 0.2386204848545181
Ni 2.4036987007858532 2.2446553823920077 9.337865127888914 -0.562285863195522 1.2397427498389488 1.3502287091063585
Ni 7.405089381283324 8.501202268972209 0.17162903715842398 -1.6598064990060446 -0.5410724623427005 -0.19154615707453465
Ni 1.5457774933789847 5.282520883718701 6.916855697652954 0.45747072906064445 2.0219031847400535 1.3380617347265213
Ni 1.0860805225161716 7.816164377681172 6.606606437862514 -0.6492858235258495 -0.13995594370206865 0.6185595980865863
Ni 3.1481468587647927 8.057267776971454 12.392841644605536 0.574390616878856 0.7782636709498597 -0.4927758321198417
Ni 1.729187793601626 9.542039157667622 8.408701062349975 -0.604860760443255 -0.6095375970936341 -0.33424392518779855
Ni 7.427608541433797 7.832393478179171 9.972324033573853 -0.604282776452598 -1.6606104829645787 -0.6464141584050094
Ni 6.69023436745571 1.4051004025757436 8.497607415888925 -0.14307649160892133 -1.6319812492636605 0.0287755294707956
Ni 4.644602445224902 8.342457588425365 8.214538866392 0.26156475235551724 0.6648343127834099 -0.05891271517580821
Ni 7.526448336358642 0.5367576675517874 2.499931014009065 0.8986082681789039 -0.4370330300315828 1.4645283856929034
Ni 1.034873464188098 1.9681074036357091 4.5385300149429835 -1.3206489385667126 -1.3346809911797464 0.35326983147099805
Ni 8.364911421546806 2.97199719119738 3.8171870938892574 -0.5970065545061589 0.06643910545984041 0.08700715941917919
Ni 3.3768941171353806 6.157539107866418 0.18023820634152002 -0.13313172169138365 0.2440545113858958 1.4443495967521833
Ni 7.137640524427859 5.699605966787459 2.3290849679557493 1.7553705468562995 -0.5219714798471914 -0.44892849591758816
Ni 1.4183991192000385 4.68859553306134 10.264775410926266 0.13504410822274807 -0.22802214051338152 -0.27055307189705663
Ni 4.799716809444131 6.0931546545393935 2.221342965460437 0.7358990899407197 -1.0872897021111338 -1.2630950514116441
Ni 8.781501885681466 7.6622632297153865 2.9870364065237314 -0.23295223082514718 0.2329013229825537 -0.31282817851618383
Ni 8.256048593881964 1.2649179307065992 12.425663810477566 -1.9188394860786437 0.3817663962487941 -1.9058793263735498
Ni 1.737680307375737 8.411918885151419 0.8633816137906404 -0.07420769366166576 -0.28226213280386875 -0.6760669482744356
Ni 8.388177176314782 5.765698255302023 6.775062447896544 -0.6254745800388647 2.3267660856625736 -1.6692172507969834
Ni 1.6883490680241426 1.2724492039106736 12.862436593609912 -1.204936440793041 0.280831056784297 -0.2245910033446455
P 7.024522107443245 7.692136346848276 7.8313090494972455 -0.17159851030801415 0.2731074628877942 -1.8229810469164216
P 8.969457080638165 9.429490019078854 4.499848014566815 0.05865817596284091 -0.4473477816940296 0.16055330823744607
P 1.2825095663815436 3.291828992903488 7.762822991990308 0.3006141529484952 -0.3751416918434249 0.25444253948843926
P 8.017800919003635 5.636229416194065 10.281043707641684 0.3592005951331362 -0.5777543911447662 0.27550501658569326
P 0.7534399569035063 2.609572166562654 11.055301522211025 -0.05613952330604525 0.4302743711515106 0.8743388541085781
P 7.192216590967421 2.7385743840346723 6.929995762921029 1.3630235468781817 -0.21504629707900383 -1.097469470857613
P 1.7863396115715773 6.039586490733463 12.401145643238726 -0.484084732103747 -0.7451586608657748 -0.7995832583632423
P 3.567537052715094 0.3944772648074561 0.142829149788197 0.5032679899004171 0.8025485116391533 0.5672054119843263
