# total energy = -340877.2112893358 ev
CRYSTAL
PRIMVEC
9.17100577587868 0.00000000000000 0.00000000000000
0.00000000000000 9.17100577587868 0.00000000000000
0.00000000000000 0.00000000000000 13.42269397246730
PRIMCOORD
 96 1
Ni 7.903480936589261 8.439021809994767 9.457401455887682 0.9487373236248112 -0.4015260953742246 -0.30521102829055824
Ni 1.6043573818274202 4.725865053004942 11.121949981825644 -0.3498633768926104 -1.7264147830538976 0.5922117042206768
Ni 8.279565535212653 1.9618248390343687 5.802563123660007 0.009163925887455186 -0.5662582175797086 1.2591864603858574
Ni 3.658332485370368 1.5886933042218612 5.540042170576353 -0.4739931521956999 -0.3824181709001801 0.4901543353365946
Ni 1.608310085251305 7.283218313230507 12.736244148246518 0.3821605463634193 -2.1366070387435525 0.36439499484988214
Ni 8.117147025614031 5.702219482727068 7.867752532879815 0.28039448346751067 0.0427042237367458 2.3530013652100186
Ni 6.676235306015106 6.956748855032217 13.097180079780413 0.12922621598939035 0.4783097772931827 0.23395084729299062
Ni 7.7600464086320375 6.9225960300889495 5.979823071659726 -0.1452416175810402 1.171273501322957 -1.119537506401246
Ni 0.4608549549064482 4.7864303741449366 0.17572472165828473 -0.5250927990849925 1.2750403966989783 -0.3765419146250612
Ni 1.056004613565378 8.805770324893064 2.3010520831560153 -1.7014987365385084 1.362480529890518 -1.2540972187884079
Ni 7.761339520425003 1.311930696504911 8.2456951772426 0.9182394121462703 0.35194519912230354 -2.2180796414977477
Ni 6.40081166511924 5.283214577783994 4.182780110373248 0.045743781894017996 2.7205529034110114 -0.4779225691570931
Ni 4.398515178266762 6.549216878124597 4.840022062608545 -0.7172688764340421 -0.4297285259503696 -0.24195340588249298
Ni 2.4505660707412984 2.3956317470543564 3.6935363075581304 -1.0207271836995517 0.3805127263473511 -0.24725553482169677
Ni 2.085871861102745 6.820614447551588 10.429205232619246 1.5099389526172189 1.4592974763112674 -0.7618764878410879
Ni 6.1678406092562374 3.8998417474691878 11.619650368926523 0.4803972559498307 -0.544506941945546 -0.5959464886727607
Ni 5.4740723758222165 4.254145207735903 2.111014173020567 0.5657555669116773 -0.4889626290213385 1.4120961360351163
Ni 4.426312496312692 6.46414662995764 2.123268470735173 1.3286245005730217 1.6293283850218456 -0.024915789405073222
Ni 4.753946672225212 1.7442702436250805 3.2421439962543843 0.7154115115103292 0.3866270667752051 -0.5431797384936903
Ni 7.166214623481257 5.913592820345871 10.419996625872324 1.6089431364972744 0.3984330582711977 -1.0836395069530564
Ni 1.457621291845605 0.3839533214486662 7.017692938704475 -0.18726527031099363 1.620813405572299 -1.0612655101332302
Ni 4.774168739625831 3.6651006875207797 4.727056366635483 -1.5797680575952149 0.5816056465700563 0.7547496469883196
Ni 7.1894631227377515 5.940298788722561 1.91313688727784 -0.3739492141972205 0.8709406270603065 0.09197941582278998
Ni 1.0534183899794485 7.562704709617745 7.963040198412318 -1.3056887177124548 -0.33563772021153165 1.5059429440839485
P 7.957461475691322 5.450136051143933 12.310435274231102 0.4635537020299306 -1.4902700134333817 0.8875255280021812
P 5.996306120067495 7.495096056158624 9.07783462642891 -1.2169375790189751 -0.6641719966090627 -0.9756616588194811
P 5.328345096459027 8.620919535538475 13.164736458507477 -1.4114060519466272 1.1597189637161383 0.3113323106969477
P 4.896601664704408 2.893067092092709 9.964256340802306 1.0959633186257318 0.312026765660811 0.09956339881763497
P 8.209875063476915 0.5267302883026592 1.3515448552971887 0.3355634153301705 -0.162410673161159 0.5362403310613796
P 1.1968345759254249 2.1338729045380465 5.594350114579185 0.8312394518159427 0.21999129978910498 -0.3909148955172816
P 6.38899023887008 7.461539346580907 3.3449353785883327 0.3969749856684324 -1.1439259625479397 1.4361171815400622
P 1.8649331646182516 3.1345946962027758 0.049385865284504546 -0.9575724054179381 -0.2043206831313836 -0.6072657703403218
Ni 5.700156006461698 4.787090686549855 8.720764273765475 1.4725898225447995 0.3465631088747838 0.4644235062293937
Ni 2.8330245182732745 8.15225363514218 3.434679171221211 1.9676801617304305 -0.3263005019710058 0.7277373800655337
Ni 3.4247102881080713 1.5407197738034317 0.1749461032808187 -0.06577807483707382 -1.5504541391224458 -0.053918861505642623
Ni 6.938085858587654 2.230746236942916 2.0353497082214442 -1.0970053867370009 -0.8243414391445286 0.5067096685921143
Ni 1.7123368020427878 6.349123877423145 4.403556480058199 -0.07520888123267047 -0.32828205117740883 0.6998576229361301
Ni 7.0405993594512 3.1724067523899646 4.372093511064411 0.49172810758161767 -0.8693892234127867 -1.194759500260039
Ni 8.772956466770882 7.406825127028938 0.8024015463503699 -0.1963651757297328 0.10319688180516422 0.3960707286866082
Ni 7.177531644421105 4.0147544479361965 0.44554120971572103 -0.3014271357680938 1.1121232162150458 -1.7236084239533542
Ni 6.058109526966711 9.12662712764955 2.1306511302623834 -0.06798510979072163 -0.3205067781073641 -1.6030028597534394
Ni 7.2655824694158175 1.945142779804561 10.30185022882234 -0.6228307146581145 -0.07217369395077247 1.7173094783185199
Ni 3.169517885618448 1.5797699157498422 9.731144051452695 3.1141175778463146 1.3102711948768144 0.0242411319355518
Ni 0.7635678401366826 0.0741613369773716 4.657352138391309 1.7631082818201893 -0.29644305228994106 0.7097849093521712
Ni 2.940196889993743 8.895316023804467 11.635703297170537 0.8395952799798057 0.37933001889315965 0.4217892164986349
Ni 2.186019242515334 4.066176276469199 5.79199995938244 0.8662043979269018 0.7476420894092608 -1.145672255815085
Ni 6.52560153864315 4.546929562277744 6.522113805204394 -0.15417080174986997 0.40501482525377347 -2.197110238334932
Ni 1.1889841951113977 4.563153071226358 2.942267703063611 0.5265706691820996 -0.3823101845674061 -0.7489698070817489
Ni 3.401434275834706 3.485504884388662 1.574898277562446 -0.8323044027453473 -1.5747628910711395 0.5901710196415643
Ni 3.507276851739714 4.553138333085099 8.74974373443632 0.9009155761558421 -0.9723017412083125 0.6455374122270108
Ni 6.274866244886723 9.02424202086474 6.731239329344789 0.9594233425837476 1.2566287269610101 0.6889309487212975
Ni 8.932100927361784 3.6659444200381746 9.67866113756901 -1.1628431111674167 0.9344412187171132 0.054452108301293316
Ni 1.9797449840233978 2.0202624868696266 11.569986622171617 -1.7459729076914834 0.21352368978689032 0.7945611225583026
Ni 7.650700508578715 0.20946576844904063 4.580413820911031 -1.9644886513763264 -1.2933003713504307 -0.921318051071594
Ni 5.165101196354257 8.869747260125136 4.647003575645341 -1.0358709813195255 -1.0768636216818035 -0.9243010449593178
Ni 8.789886143152534 7.540244916844903 11.676629826867588 -1.184191752046522 -0.09199689932428672 -0.11325400893085011
P 8.914795239749553 0.486596133491508 11.040661856377968 -0.19700306642404783 1.510123043603567 1.1684879681580198
P 8.505245641604684 8.692022342140286 7.09731652663142 -0.06177023922926136 0.6270414103053523 -0.24340530783767111
P 3.087886764560439 0.7854847093765913 2.287817404940218 -0.5129055129901812 0.33648387026191084 -0.6957659693652598
P 5.2445954731019055 2.760766164962855 0.3954876952217992 0.8535939082517429 0.5951957265496652 -0.5092396341028197
P 1.73664913795165 3.1661612975601137 9.40777806155752 0.034600363682688796 0.4522480472091243 0.7352324028909983
P 2.8396368133280805 8.47784267680058 5.610806567070646 0.5285964413628768 -1.059639287383717 0.1400284488112169
P 5.824175515513202 1.6137943466143756 5.294796640786372 0.8263021624153253 0.47383811467507425 0.5601099385901257
P 1.3082072682216221 6.645255649017695 1.9470824474940083 0.10356814910165389 0.05659795099970253 0.3575509753448552
Ni 3.7587641679572967 3.6290494644133724 12.119054728872321 0.010912276037129593 -0.18091618816451424 0.06432514444063116
Ni 3.035135140211977 8.146402533554156 0.8232894287592812 1.389585099416794 0.7649111609023537 0.7034692515467884
Ni 1.0363511485134387 0.8330565497486957 9.329094501707022 -1.4270044206055166 0.28227601676093966 -0.11512577203226626
Ni 8.746846613759743 7.38950109740546 3.8374275515954226 -0.7138482807882673 -0.9147172579256246 -1.2879110820140593
Ni 7.076687266581103 1.5291276226948682 12.81891434424171 0.3784257619113353 -0.493040655745454 1.4437932100280813
Ni 2.694689069442919 2.537883215286102 7.63345901800585 -0.42452229915908185 -0.30253888077503377 -1.2812889487118513
Ni 9.098728928541759 1.8094118965713823 3.3695118394591623 -0.15939631181486744 0.8284827150064118 -0.5351828363311428
Ni 0.5139523261669302 0.1320432218718232 13.139474923516545 -0.00020723091479964313 1.9559759859196248 -0.6309978238499391
Ni 5.09847384049689 1.2821891252667217 11.675045994196346 -0.9656130163342274 0.43068986142237436 -0.3614605948119065
Ni 5.3238971587314525 2.641497236824511 7.462346395075807 -0.5783262044878362 -0.6556367054445418 -0.3695479998057313
Ni 4.926590853094441 5.948901191997745 10.622102662308215 -1.7261070220054917 0.055791653048323266 1.0259393240281103
Ni 1.484969230615966 5.233241768139563 8.48700817982107 -2.6092349351606097 0.3702529962925559 0.7301925264742457
Ni 3.900428691829115 0.23311779195298443 7.470896523618935 -0.5422780526150274 -0.9296191147381216 -0.17206902218652947
Ni 3.836708544754512 7.108565682129652 8.731448495317276 0.5756386303533441 -0.33995408819869843 0.0863291595155481
Ni 8.943949866627817 2.705199041887866 1.06599367289089 3.163266528767139 -2.2689476319922086 -1.5364945916185604
Ni 5.955550171075046 8.20993926051628 11.089185647133828 0.3535390259719847 0.6909163545824423 0.275972443140415
Ni 0.21442544829042598 3.6209881504699966 7.069719136508091 -0.3337662142204316 -0.4522457332162792 0.7780659531167567
Ni 2.693295076588092 5.4316381328006 0.658200322322991 -0.12704463495703927 0.9676207907928754 0.6144933984370127
Ni 5.543790360574826 0.7406256524680259 8.984184902500829 0.1570650925785295 -0.40588797188734616 1.7229602488463938
Ni 5.116430669508415 5.331527435410507 13.38191595978675 -0.9039379079219336 -0.27574130096621546 -0.0857282927067556
Ni 8.643911246637499 4.984900106850965 4.812881388565283 0.59786453163108 -0.7350894495552308 -0.8813685072618499
Ni 2.753842055716838 6.372519112769621 6.817654964036767 0.03614045447629905 0.7838064551449598 -1.9144534411958063
Ni 5.6340422269192665 6.8502643087335375 6.995518364206537 -0.7972124441382206 -0.9798697833635576 0.658224520776376
Ni 8.843729117170236 2.859941419779314 11.914358800448252 0.3600241194756961 0.33147304731088073 0.7222028234005499
P 3.328038717826927 5.85642994229233 12.110652253519737 -0.0942422437150377 0.6794685177568168 -0.7430490707219396
P 8.277813873138495 4.128245642531507 2.3998027204120893 -0.635426549045254 0.2519578253933725 2.3915792254832167
P 2.853815188022573 8.799038806765148 9.461992461302987 -0.7122030318753605 -2.235483953017124 -0.42036302557506955
P 0.5850477959642443 5.71143634337905 6.437497521815818 1.3219697142606652 0.5004505750562801 -0.2136645862401288
P 7.403385999919989 3.5341662402288816 8.179749227103086 0.20915795661902686 -1.1300576892062795 -0.09709436845185213
P 4.184959141309478 4.811063695250634 6.632998600001402 1.5855520112668435 -0.46006034416469155 0.17232433273044517
P 0.09798210698479445 6.466521920414221 9.860230541111385 -0.4541635190642824 -0.725968203980253 -1.1972077046902156
P 3.599408774237046 4.945960016972041 3.2353253535730424 -0.9848368975608458 -0.9739372199292065 1.0812926039874344
