# total energy = -340854.09789498156 ev
CRYSTAL
PRIMVEC
9.44829370538631 0.00000000000000 0.00000000000000
0.00000000000000 9.44829370538631 0.00000000000000
0.00000000000000 0.00000000000000 13.82853288599310
PRIMCOORD
 96 1
Ni 0.8401876029536915 5.430170437353364 7.052427300759118 2.0873971526778052 -1.2531137718292162 -0.16108706925372904
Ni 4.9456336057577435 3.1920303465071727 12.237891662611618 -0.6154326224218304 0.08103705787867334 -1.1726860653997677
Ni 3.1545111733256856 2.009755942233018 10.501194234782261 -1.1850031922042237 -1.2926563100085287 0.21687897941236842
Ni 2.6275420559687817 1.5894769542050875 2.418872716411387 -0.78535451635837 -0.1734504759150884 0.22121848732798677
Ni 3.0311353578122486 2.699717569424682 0.2615249826225867 -1.2165051194672467 -2.0861748502349298 -2.2738334993296
Ni 5.900317518066231 7.754696274963174 8.769682030383272 -1.4489878668551432 0.29922035792476215 1.446845880811476
Ni 1.4405812981569746 7.572967799271227 3.1263684865368724 -0.30538123531983535 1.0350063193263852 -1.0526795682364323
Ni 3.642345459325823 3.262920892057588 4.035926404629269 -0.19553393807768904 -0.2441324158116828 2.4078319398966532
Ni 5.516877426093355 6.357303126041298 6.789919695620573 0.009672490092757535 0.007063077494368481 1.1831311719924915
Ni 5.893533643388743 8.900453025158647 2.6134263055952887 -0.9444829192238315 0.7149047470772397 -0.4721553276560126
Ni 1.3723929645254478 9.37251810943632 11.470919830219666 1.5477701645323794 -0.8375468820912092 2.151600169718275
Ni 3.696436939170702 4.605447801073924 7.690876832210297 -0.34165872959463095 0.08623428580889664 -1.5092902632896266
Ni 6.17592423720599 7.806189474116814 11.562962270255449 -0.07308720690397735 -0.41585768150554836 -0.8055302199752965
Ni 5.757619942503401 3.8931031667639164 0.48311958758221674 2.136857978412094 1.8575793537165812 1.1238574739328386
Ni 1.9151501801916604 0.07284445263022656 0.2911387686973123 0.19465076414178734 1.2967191672239928 -0.35999763711313487
Ni 6.479384525355827 0.32423047158092866 10.016767003390344 -1.388511149626325 -1.4725322298339865 -2.2242235496119567
Ni 4.415093033487064 5.721669186030081 3.478608423969354 -0.537116820129062 -0.8227766657605702 -1.1533673104664974
Ni 2.444197922101555 4.402300044192748 11.920139885830627 0.45295458635784575 -1.270962369974863 2.5676224018261458
Ni 7.627030934235838 0.7872459804183536 0.5575645811182464 0.9276445075102541 -0.8964724527828238 -0.12171139566958393
Ni 4.395024858257279 6.45174826709447 0.7617573192519728 -0.737341221703885 -0.37139302343427005 2.2920765047001876
Ni 3.905404844800254 9.32566402235322 10.913601849559752 1.1688018998540128 -1.3246043236700349 0.563627721935397
Ni 1.1114783416579668 2.415541248150548 12.526092012054475 -1.12513582642463 -0.1458643387667036 -0.11056720612730636
Ni 1.6388348390452006 0.6046586548542838 6.34107379242915 -0.5546681987492641 0.08194517151523951 -0.18871151583921694
Ni 8.220922313905628 9.414591360047542 7.876787122571126 -0.18808673777102444 1.6104474889569427 1.3426907488581006
P 2.1067048810432016 7.027035957014991 0.5097240922018167 0.40487598568306404 1.0326218782546086 -0.5673563357398939
P 3.8656369777841673 4.65438996100344 13.657916308768854 -0.23776739282560339 -0.14995264990346432 -1.899070530981833
P 4.369287706973882 6.985973673799997 10.353754560750584 -0.4770116273070495 0.14185984559300086 -0.973574437273149
P 8.183374795843871 1.911673208212112 4.876881209008883 -1.4791124541546656 0.5398234204269478 -0.13091028856003262
P 7.5607133627020024 7.15069522133111 0.7447522807498221 -0.4648366825074124 0.5113847054702806 -0.4535971050378511
P 0.7075940323770816 4.150975439149293 0.7453928750438802 2.3386407256129726 -1.1504578501291862 1.1749157260612346
P 6.2969852208308685 5.075868882296051 2.653640132060926 1.3624558473001698 -1.171361175940757 -2.10143511882811
P 0.9787392673626474 6.99439210323961 5.049391929637657 -1.6153850354678763 -0.04810611147860748 1.5394703864174324
Ni 0.14256057530820168 6.474216308853618 1.3746643342642617 -0.15783513797533463 -0.21599092038046028 -1.399110779519042
Ni 8.501716146134441 8.922741549342764 10.906190608198996 0.22814683901670385 -0.8053844384260516 0.04570290135375355
Ni 5.942315182330072 5.910956296460177 13.056555108319088 1.0545744712662999 0.8162545483713362 -0.2213791812755671
Ni 3.6501308531061163 4.021590509019027 10.022850759525213 1.64615702654341 1.3309112397246692 -1.4285067161826561
Ni 8.075210732740961 8.033647689974563 2.791593719496226 0.5789558676520352 0.11111125155623444 -0.3133765948204861
Ni 4.449040751754776 0.16522892088791058 6.928606470625472 -1.0556556201456206 0.19998246076734588 1.2117478072879195
Ni 0.3063108382754619 1.9707628352775917 1.3597776031474773 0.3200059272115457 0.40340171513038264 -0.201984064578407
Ni 3.0907918824830896 6.64523041980424 8.000193172623515 0.33726677117452236 -0.004469862845895528 1.6300485510173217
Ni 2.5494991522973933 5.536964497909986 5.04728968435111 0.36352647620199974 -0.35198556544193577 0.34081257954425176
Ni 8.152412738297729 3.6169012051385288 2.942255261585039 1.1596012071913513 0.18828317005254672 -0.25645082816771964
Ni 0.04370024673860851 4.651413748575293 10.347337279857895 -0.6449902814742893 -1.578703363776126 0.45153482319218363
Ni 5.90569359702374 5.3397975107653695 10.456583172557705 -0.01913517816755414 0.17299847597933432 0.39553285390526716
Ni 1.2151828102653712 7.147388318633169 12.167075758579243 1.6360106821380278 1.133967051563015 -0.36683162931583274
Ni 9.376259633631705 8.586665752297813 13.464648632319781 -1.5712844456042359 -0.3695598268802732 0.5758381479586598
Ni 8.25782734801464 4.558045712972308 0.31462722614611033 -3.799618160729824 0.0947109558213401 4.187621024806634
Ni 3.7121211062523614 6.797461323430561 12.35254386880789 -0.34106891852943194 -0.06962675915920268 0.05214582876561987
Ni 5.603008068934564 1.7538300182927151 0.2893105239200225 0.8815613399989464 0.5186069342503327 2.8121322555819055
Ni 4.875045405596854 2.775946400758915 7.899963786336976 -0.13781447187903365 -3.1958102670311153 1.337478865639858
Ni 7.2339441346783975 2.2344836012916107 10.56115404967197 0.21566644716150601 1.666417833674975 2.985461632538097
Ni 8.509246435992322 8.678720475115044 5.290381991335377 0.7727661381703982 0.0698375896184281 -0.0508196537550286
Ni 2.4596269852608015 9.37997281294682 4.257722258238802 0.3488339071868315 -0.8816238178057655 -0.5451859702904417
Ni 8.984004283895462 5.794950149816435 3.514867194808255 0.5410585783856294 0.15008146217184473 1.3960707071411376
Ni 7.827467030904704 2.6327575139381048 8.542783153496146 0.17057392569824173 0.6194337731614236 -1.852575472744087
Ni 4.5902360486633995 0.7910583668144074 4.618660294596209 0.7559760631962529 0.5537192045724334 -0.7393698220981396
P 4.756970082693544 1.600814906312311 2.3621621696297392 1.062310920678609 0.2583215628278712 0.953439871306803
P 7.026497404289898 8.02755354071693 7.046369999845834 0.22467430708707115 -1.4483350637624928 -1.5603919670614481
P 8.125872482073405 2.085890290633024 12.729482590076616 -0.17942263433812325 0.5467011213833874 -0.3118704425886048
P 8.92248644542035 6.47278016825337 11.11408802218376 -0.2596045433053529 2.0884009113519713 0.9898654611236889
P 4.5705835983442125 0.873370954283508 8.94845696955129 0.24029041635777323 -0.1788474785609436 1.785145978346519
P 9.08395778001406 1.886767506749911 6.927416930483556 0.9739508467759613 -0.2539272904149175 0.25682158124357707
P 1.5525152303355387 3.680752772089043 3.2648615715266076 -0.19080002293712947 -0.9078920074736752 0.09161766160799706
P 4.931243854874992 4.936345933323243 5.380405331066732 -2.6905969804788694 -1.8890583981614693 0.7591259216791443
Ni 0.601117434479461 1.3595999752311307 3.989116724525254 -0.21113796316353317 0.031295467679171914 -1.0798808112415723
Ni 6.303230542783265 0.6285741751657873 12.225418025634987 0.8718119739216663 0.334018953661186 0.000740220600134209
Ni 6.15510019850239 8.12202702665037 5.091776029102485 -0.34189141443072735 0.3813244236153691 -0.5804157400270133
Ni 7.884733137339605 5.334591501089469 7.495479510423749 -0.6868262436734687 -0.12388937715750921 0.04169429441499271
Ni 5.476382040483722 8.547974990731912 0.2380053458054938 0.9140523706481163 -0.4332522228329119 -0.7585286544147775
Ni 1.5303400856724942 3.2588675741792557 5.386421059488957 -0.07750384791443427 -0.5488857877395321 0.33634940156657556
Ni 6.685083321461129 5.656419271653008 4.641795385870998 2.3159111452259404 0.5291661978234177 0.10821336118314913
Ni 8.862168540209922 4.336889508827491 5.666269117546159 -0.9470344820010916 -1.17551839264224 -1.608346640563856
Ni 7.263630672612479 4.179953355076671 12.300963745354762 -0.07835873971556183 -1.608944679159171 -2.774967987826782
Ni 2.2050049258128297 2.591194471171708 7.669276143787353 -0.319482707718224 -0.4517677651385962 1.066712906401047
Ni 0.7983241044564532 0.522728723268802 8.628879782481032 0.5805126706161937 2.221617993668309 -0.3531510465049466
Ni 2.2123556980956796 5.805040927191863 10.32245992327596 0.0010901477403852194 1.7679771798767165 -1.797794520348465
Ni 3.4235607768300995 8.414602880777274 1.5828272452942012 0.5136701590703476 0.26782693121514517 2.0883821422988937
Ni 1.2390491994510768 8.043124328277518 9.550040204896487 0.04678173624022911 -2.5399971839097093 1.0299898399484004
Ni 6.289275413397958 3.641051043126915 6.424141298542723 1.6218567592351485 0.2421621794591894 -1.228972655806638
Ni 2.275252987410502 5.513476040461188 2.3368700329665506 -0.5673928454047841 -0.45852590979803615 -0.7072654853644271
Ni 7.469801883388915 1.164984027310639 2.907033913363949 0.9406604601539477 -0.27122438693246836 0.6931835533500643
Ni 0.2537348646955819 5.31584608693886 12.834745082269421 0.9960062839141038 -0.6370185761227223 -1.8440193556439597
Ni 3.5616948266697728 7.7788744578318285 5.905046388924286 -0.22310619126900286 -0.43290820922993184 -1.3193649296479666
Ni -0.038784299670784846 7.361108715854332 7.421179075777087 -0.25546789542916 1.5623048678134448 -0.44454965012360215
Ni 3.9672439252517355 3.7784764709598866 1.8800025286592674 0.850479273882161 1.165034976612413 1.5197898772693696
Ni 6.073448046743534 3.080814484628733 3.6264222504205694 -1.1075039722754796 -0.4797814767427028 0.554515989442116
Ni 6.538578083648957 0.8089921725600082 6.339538444747964 1.0872454791367598 1.1039527645891116 -0.8813772490125982
Ni 7.950238155639089 6.667159908838294 9.344575726468069 -0.35545886870251686 0.7407052530801114 -0.14115407777522787
P 0.40066055156506464 9.36122739879621 2.166903737756505 -0.12188134558854494 0.45108436591832635 -0.20891935824565955
P 6.233984000288397 4.312711325958836 8.582636999982379 0.487663964814573 0.13597896133219162 0.2843547536668394
P 2.1970872559246186 8.397246365759798 7.670590401402448 -0.9787950622421402 1.8830808404217956 -0.7577652938861917
P 4.4833569534659725 7.75291999579971 3.749454148053421 -1.2464839252175242 1.9723315444595126 -0.039383644003945076
P 4.279906851195269 0.700529543384939 13.142913455031783 -3.428971785653591 -1.7079558050177617 -2.154457436661412
P 3.6090402250108538 2.210588867225637 6.134640863924905 0.37322776265016366 -0.6403838930505295 -1.6359844568857824
P 1.1658438220121035 4.05079518398855 8.708324812896349 0.6940024497069338 1.4880079568720823 -0.029331144863949485
P 0.882273136346363 1.5502098467404033 10.51582491714729 -0.5270776907255051 2.291826079252279 -0.8885711956578762
