# total energy = -340871.13424934587 ev
CRYSTAL
PRIMVEC
9.24243260749013 0.00000000000000 0.00000000000000
0.00000000000000 9.24243260749013 0.00000000000000
0.00000000000000 0.00000000000000 13.52723436046529
PRIMCOORD
 96 1
Ni 7.403391666620475 3.082499076285788 0.8122101693036405 0.8475420456307082 -0.3297015572327548 -0.1325611938998943
Ni 1.9054937980777182 2.9555172978730866 1.4413129653485963 0.422081293817757 -0.16354761497907963 -0.35151068268804625
Ni 1.8274044869336095 4.797617252284402 7.672417615488906 0.3878599107410417 0.4538670708697861 -0.7893384407067825
Ni 6.356205593564512 8.396195267576552 4.783675967288571 -0.14102372284495066 0.8656791215510511 0.08813458815540305
Ni 9.27089906763318 3.703627501676804 8.487662999584797 -1.4029453227737838 -0.4223641151654984 0.6708877180663414
Ni 3.6277101621410353 5.547086093647379 9.144423774514681 1.6823111078664639 0.3222805821783353 -0.20826372693953166
Ni 6.554326373974635 0.5488368920763188 7.880817829187522 -1.6974060545263736 -0.2084653014273765 -0.02208680459671035
Ni 7.860245098961971 5.438552210257004 9.33302022836142 0.10264152352232646 -0.9329240107416384 -0.8633862117518163
Ni 4.455878315184931 6.180913621122902 12.571440063072139 -1.275819440956848 1.3871487220611594 -0.0518259835323559
Ni 5.897993523663757 1.385301976664074 2.161178295811516 1.3149637152564773 -0.2498302375274085 2.4173172536792693
Ni 8.187482659663631 3.7429725363010755 11.01605145188057 -0.5631649233663656 1.6542081789826608 0.9684545995480804
Ni 1.0411784920116174 4.636179685974288 5.062675424933853 -0.4321821296971847 0.6892258542538969 -0.21499770322925552
Ni 7.0739174372838445 2.615608362384047 9.310362405391865 -0.6576395948071836 -0.5826816532430545 -0.2800548407399048
Ni 2.560320131911322 3.2254517778440706 3.7765327325012614 -0.35932195120234894 -2.269256164371563 0.4763572815525023
Ni 2.490900222335821 6.456624621328833 10.949200014262336 -2.3185465259662585 -0.4944812448467227 0.8781206897485134
Ni 8.582273158600856 2.445787909908978 5.203345245695285 0.6819545174034641 0.7624344172270868 -0.36677172261217483
Ni 3.2094161576718574 8.013919022076317 2.524303297185617 -0.9858982489458246 -1.7556094023399829 -0.16215407706566268
Ni 6.463205233180484 8.528602353793914 11.879725333139781 -1.1909781788407359 -0.9436905052295231 0.44132368698713675
Ni 1.1194249245061167 1.9287477579355214 12.837087902907173 0.559838944316926 -0.6228782800665982 -0.8766399914379289
Ni 5.554341403062471 1.2090672761201198 13.557128839585236 -1.8342699895666796 1.5033720980329786 -2.607377827347213
Ni 7.560244986472134 5.650804669769901 12.652048861281921 2.1384026971913945 0.1143007050278096 1.4218493587671384
Ni 2.4258150135446255 1.5360275638505019 10.717506098246702 1.2773723872662646 1.6542230913809963 0.7121194710226187
Ni 4.615106940157201 9.274780889231065 9.366324409184793 -0.38199496731983246 -1.2509409325476133 -0.5694726107519483
Ni 0.1217357737961316 3.6146783324909944 2.9407663758011258 -0.5602539203671577 -1.9682290922553654 -0.018559251059426102
P 2.4817317294189136 3.8851673584045336 9.732845080213806 0.009913402458970025 -0.8485743435499643 -0.5686447155340142
P 2.317447493937018 6.9405953502612645 4.437284389731064 0.5362871251389151 -1.8657505766734641 -1.5074650371554297
P 7.626374590121809 7.384869832139141 7.7654436215957325 1.0375445123672067 0.24380228616577365 -1.9237600633087129
P 5.797648435358444 4.471137571037567 9.0811436127665 -0.5653115373957232 -0.09295463525186573 0.23294477462597946
P 6.916786844460907 0.4997290761333677 10.035868392333807 -0.2992275570136137 -0.3266074916884633 0.8951547624126648
P 2.7829888127118747 6.753611700864122 0.6217088501442235 -0.7169675431435394 1.1793758187151173 -0.1732314179257468
P 6.088692630876019 6.78762385200749 0.3062812695325088 1.903836070691276 0.5234645194529501 0.3249115920432792
P 7.601752750272371 2.3462376707879944 3.0666917441932595 0.8023744479551342 -0.38269713559317964 0.15085664977497243
Ni 8.547004036654362 8.736566324684386 6.061432076583256 -0.8410507814794095 0.2551328806872445 0.6913110189176997
Ni 8.108709408523703 6.79681082978915 4.842397761388949 0.9253377137539484 0.22163217782663766 -1.7646018356465805
Ni 5.489921649402342 4.401985692000968 0.29211631767318097 0.24591367608182163 -1.176808057987941 -0.46470735601839963
Ni 6.678304361865163 1.3703477210798432 5.746531314616969 -0.9515441969459871 -0.33924626349839637 -0.8551851639982626
Ni 6.047194109508159 6.332276936143268 6.209054979221089 1.4760374147737676 0.1009106568741488 -0.6814043013269491
Ni 4.423317225924581 8.302513973014273 0.24242715273378476 0.6665731498513875 0.07780286721209183 0.896227169541237
Ni 6.99274115372618 4.0920869344365265 7.247134483657062 -0.9242568219849437 -0.43901046547292777 1.3323549141497313
Ni 0.6952222330190166 7.144908560363251 8.597382687049002 -0.6684749948597907 0.216062397048344 0.7791743556895872
Ni 0.8052607844001898 8.244878164718065 3.7700667268110717 -0.9262067466224629 -1.9502606807024023 -0.2586702044165416
Ni 3.6253256145880486 3.323763531026682 6.605929646659082 0.23803967265038364 0.14373058025315247 -0.3769262945476734
Ni 0.025476764844210693 1.4929023743844807 1.4173297775763334 -0.7029519455907377 -0.6024758051508463 0.45971787322360824
Ni 3.725541308840099 1.1132417372466294 1.7035115294209393 -1.1308601305029171 0.8958756997390894 -0.21251736000956303
Ni 8.288770476071287 7.350746771807261 0.8560738291164973 0.5911230991421883 -0.48149280300685465 -0.0011199725370561358
Ni 2.0961282082633486 8.98161093426703 0.7240235007888441 -1.9714769097687017 0.08897251067566612 -1.8250171035098441
Ni 3.912987079856039 5.95163660117357 6.793917948455489 -1.30946258293259 -0.3137298643948468 -0.9238688425179057
Ni 4.047002349306811 3.8270139738952738 11.580272372646599 0.016644293424900366 -0.5865473068460478 -0.5146026981869459
Ni 1.0191722605245628 6.8454722362483444 5.946883218202636 1.22056206314544 2.0025618040989643 1.5436438010688316
Ni 5.843638778860998 3.6881741547442735 3.145284767901856 -0.48115238894830037 0.16238187680575258 0.42201418802524737
Ni -0.0014630770451074019 1.8876559035922018 10.44840805840574 1.7446076519128406 -0.9100738456163424 -1.261803329183414
Ni 7.398049540707197 0.22100227024317537 0.5991009363094969 1.0249191102937123 -0.11109453938568609 0.5178608001129275
Ni 0.6879077720367173 8.286912747163727 11.399318486131502 0.7856499361116017 -0.64315657069966 -2.051976607086666
Ni 3.6835436961239396 5.149698471212521 3.838001377503762 1.916786203094041 0.3706594877023552 1.2935801073743785
Ni 3.0461116200218092 4.670607746574573 0.06891250003806253 -1.5787301032490035 -0.8617203940136191 0.6823972613678377
Ni 0.9734869172904133 6.162382544209192 13.0799291166114 -0.5390086378351362 -0.39937896712423476 -0.3874320791750038
P 4.591612677057624 9.259623300134564 3.4844663239629106 3.3961639950949514 0.8546871413159216 0.25635672579201657
P 4.393491896647502 7.252305624571386 10.684296190233564 1.4573748053672577 0.628985935626233 -1.554020002096833
P 9.324227902442214 9.113722262648364 13.121862956544165 -1.308056703723999 0.8489091011815638 2.5300701546039845
P 5.324019988254661 4.270142394158536 5.262554115981874 -0.071700868079412 0.22653964243058403 0.6454494804988948
P 0.3871691892000449 3.8639652185341835 0.021854655596089467 -0.46615257310535846 0.41290631218670826 0.45695753686965174
P 9.023932032116347 5.603363264384328 3.04826787949511 -2.2981471363743 2.8083036258644345 0.6166610955122928
P 3.946139684788447 3.6928785528236143 1.9961999536581894 -0.24596535525536348 0.11013037570020387 -0.3321106808948796
P 6.370392727261542 3.280037583456227 12.064006495310208 -0.5197122514993695 -0.23959519006296157 0.7540431078395982
Ni 4.552027339191579 6.078960349584179 1.6519997568170126 -0.10604849232134639 -0.20905974047826578 1.1774415778068819
Ni 4.756229640105052 8.303050034092076 7.007445863636261 -0.5986320059247239 -0.2700817886875929 -0.4072781673666534
Ni 1.7963591565829098 2.260551080230883 8.483429041313391 0.43651263875173857 -0.4440043191430934 -1.0171862604258288
Ni 5.9991334611533995 5.399807933737167 11.191486682024006 -0.3519541979833681 -0.6911192146218678 -3.323994414909236
Ni 7.660636286939328 7.604811995388798 9.870551777155521 0.316317679726681 1.9072708074044378 1.475280739113401
Ni 7.577260304476194 4.60379420292908 5.197880195431406 -0.46931477288342394 -0.7375625936860717 -2.8322369967515804
Ni 8.793083798663108 5.644658452239916 6.891530973750481 -1.473752989614965 -0.808052215066202 1.6884097645650342
Ni 6.351695286565065 8.009436442373996 2.227962263673405 -0.5746484985259328 0.7601757030998972 -0.17586165645974228
Ni 8.199359185266681 0.2817721873580565 3.679678510904332 -1.055640450636969 0.9331482109373026 -0.24349658199989677
Ni 4.271574971176803 7.325616598177147 4.676107918081479 1.0392974905025714 0.7200304983395792 0.8935007717490097
Ni 1.7987344617035201 5.246808708186265 2.6236474300646186 0.3763272275110938 1.4341518302835752 -1.549252662615177
Ni 3.351259767345031 8.8255524635997 11.713272823022496 -0.1335515828376216 0.3513368761143433 0.12958642754228653
Ni 5.030508063292717 1.516794062076222 10.977905160735453 1.0571484026410631 0.8267135389211311 2.03800446117729
Ni 8.6996058376131 0.3077545132532297 8.42991535785684 1.5123593891332534 -0.04411447382071112 0.5170596443678709
Ni 1.046252587385995 0.8364216451555884 5.1870175646599925 -2.517272745729 2.111410741983583 1.3595906099372328
Ni 2.795161096150955 9.27884755947647 4.558501663070907 2.4663942137115784 -0.5166112439765426 0.2565601000520743
Ni 4.451099977646583 2.5414378425673267 8.940838868083917 -0.3810212905526535 0.9822619377448181 -0.3248575988768922
Ni 2.556808007608474 9.555565984811373 7.306384020646105 -1.4960953618659074 -1.2877755848774597 0.20210259243414225
Ni 7.70559147801578 1.337925268305132 11.98660389689163 -0.6117065797204948 0.4570986904332063 0.7441309909322087
Ni 4.476091514791058 1.997372818326693 4.71344272366399 0.46418156542191674 -0.4337975538134207 0.16246878009260407
Ni 6.016194991319338 6.280112647813601 3.6943554935172855 0.16285444556679696 -1.3643227253055794 1.4865917932508461
Ni 1.2566935301532118 4.097188757108031 11.405068203312561 0.08672742339523128 0.31963080326031407 0.8965043344620237
Ni 5.794506008350632 6.626214012994503 8.525174335625689 -1.2108576913734823 0.09580110356172533 1.2411437439515336
Ni 7.06039575871788 5.371461393640234 1.9440800290039273 1.634198311519637 0.1821881128984024 -1.2333833832798242
P 4.3999338720135155 1.2265632006077276 7.130759320638962 1.7972257923291886 0.8282137776157414 -0.57964158086515
P 1.5358612000677352 2.8309755216076273 6.0109341988109675 0.2975141738669328 -0.6212086056736592 0.6680764738697914
P 2.684686301961639 7.339443277011517 7.951186012324791 1.211139227169643 -0.5309209757309953 -0.7881639607827071
P 8.130595488389872 2.1973513276443737 7.332856195457202 -0.2008008429035832 -0.3805618344177317 -0.26073634291695097
P -0.11767649749662958 6.213502437680379 10.931168028696925 0.6139665793992652 -0.7442988839686407 0.974466352959799
P 1.5614072831547654 0.6385171376630632 2.683478316050107 0.743879537043035 1.3253509720280723 -0.10069982641492335
P 3.4707089633713606 1.9167325958468315 12.82859318331047 -0.20621250083745776 -0.6000111456604377 -0.3313864011343454
P 1.307092513899078 0.23326697800601504 9.576578654818018 0.07867215719092258 -0.5650721676914074 -1.1449294641117895
