# total energy = -381159.645573689 ev
CRYSTAL
PRIMVEC
9.36595134702699 0.00000000000000 0.00000000000000
0.00000000000000 9.36595134702699 0.00000000000000
0.00000000000000 0.00000000000000 13.70801652124598
PRIMCOORD
 96 1
Ni 9.06943467912651 7.793408103654777 5.76496127173216 -0.10916055558776684 -3.2951080708921894 0.8533072302492595
Ni 2.4887861496933934 6.845255386474886 11.903027390525518 -1.7362729067949003 0.07496462643234832 -0.45633481568398826
Ni 0.5275147305118454 3.5673972029816943 0.09059591064276204 -0.030929085478688664 2.077379620540803 2.377657730306118
Ni 8.534320415703592 8.920263172256051 10.58401390822366 -0.46574171082018495 2.7323483533840425 -1.8952023062756778
Ni 0.5622193265787633 1.192257506755128 0.4277261386363743 1.2414615323022684 0.8386061765936589 -3.363196539029995
Ni 0.6340055971607516 2.3466203744195373 12.063780832813572 -1.2222350799724886 -1.877421071032857 -3.6636736521799937
Ni 7.568662735483524 0.9895970518255739 8.285728398845022 -0.4617829832827531 0.5680191661348734 1.3219512023179039
Ni 0.38333340251126563 7.987985742584507 0.26225038368654635 -0.6326243037097685 -2.8836513466678144 -1.1748457920552478
Ni 4.835893553582213 6.160267169831578 6.7368182751391155 -0.8698106272209214 -0.06829878437639851 -0.5510254597903542
Ni 1.182198475024176 4.369469177230804 4.711527768815503 -2.7725478084210637 -2.671525822780031 -2.8418907177912605
Ni 7.227301907273086 8.223174146491338 3.823303091235702 2.127172118582898 0.4858744770143181 1.6645015904888687
Ni 2.711817548770826 2.996973303035786 4.023248356874005 0.6283580722342469 -1.4500402193790576 0.9754312879762297
Ni 5.530154062044555 4.40028315711426 13.20491897719669 0.9505219263290599 -0.39252569164782725 -0.2713022913582554
Ni 7.189735076478999 6.451014397041956 6.568881148179144 0.289240878114547 -1.4539827489665733 -1.0824585992710778
Ni 1.9971954621119392 0.32619267002768504 3.5713767957028133 0.9372534913549277 0.09122042616957839 2.0354554695031912
Ni 7.986159382074696 2.4366833624314883 -0.15964451365030213 -1.4713034996332082 -1.5703609053487018 0.6054426010886541
Ni 4.1512799749922005 7.190578012098911 9.61041577446402 0.016357872532733117 0.3491372973598632 0.43205794541449466
Ni 7.905172000903801 1.6409427712830522 3.8454142291411313 0.496681594932151 -1.0429708255891006 0.5194906224068665
Ni 2.734998278318411 4.692557034391813 2.548511884744705 -1.7185474644906789 -1.4230060980794008 -2.4322625621351914
Ni 2.3071054257483206 5.060301747505502 0.13864792395342282 1.4211381916327266 1.0896898269121944 0.45976003931545334
Ni 0.5770559300843511 7.490616263030987 3.117874622404657 -1.6382159173194626 0.896554728083985 -1.241184624491798
Ni 2.9791592636016415 2.250525713749548 6.307867070068468 -1.0218265874113175 -1.4989490292646186 0.2148254393174494
Ni 2.5509011389295897 4.916000535327869 6.20811406880806 1.3922950421487892 0.7343931948191547 2.144667190043868
Ni 1.683464190331956 -0.2876873709100964 1.5361068682345738 1.1292236233407584 1.372008009764979 0.1648182541613871
P 8.219015664099771 8.928420915866536 12.796392102196517 0.27390167665431536 0.6543472972091569 0.2179750406900246
Ni 8.075669778958039 5.2267066048275 8.281396646353807 0.5487315215498549 0.6504423057277959 -0.7859175879506916
P 2.0901525290855885 1.095198153097906 10.102986140554838 -0.13223106425398518 -1.9568506752150945 1.9432194575849049
Ni 6.053429762983375 7.856075684019581 2.0408492246769248 -1.3593988056414008 -1.792578009144532 -0.17809337400373845
P 6.0031908000366085 5.4886441657395455 4.8493205814122815 0.4325040318129777 -0.48809359615282394 1.0364492224204989
P 9.422802656945032 -0.12973060168988512 4.457558759297027 -0.16034864842580773 2.476385006375703 -2.000301033089245
P 2.3338452168022013 2.5201339888027943 1.1348348591364434 0.7872026253107023 0.287991064867846 1.2504724775516272
Ni 8.666989116326436 2.90263944121628 7.248319102062895 2.4579746221893153 -0.9531051136752037 0.005416285919564865
Ni 3.5016575905798764 8.39265103585035 13.364630925696586 0.2871125189176346 -0.9889267513595031 0.8691254282284387
Ni 7.040423080338554 7.197967747700141 13.352238835488743 -0.26633414871970257 -1.5069042795559533 1.84787523905494
Ni 0.8602083073593199 1.9997149030203434 5.12937563858164 -1.1159194500326846 -0.05760248100481693 -0.002925915397543348
Ni 6.708709182000444 3.637791693195694 7.5349125298573725 -3.605717130269867 -0.3282218873634347 0.024563291161660922
Ni 0.25075929799687674 5.939661552149227 9.913486720437515 0.7033594654418016 -0.5581854678739032 -0.8126627172550197
Ni 5.843641819089897 0.7291383746289076 9.757023820454814 0.32705537785915934 0.8548434643881277 1.715092158952227
Ni 3.853386526915234 7.721393303860279 3.966798831598753 0.404370249691239 0.6508899347881758 -1.0230545462811476
Ni 6.504831153397682 7.59943925156165 11.203397382164335 -2.061476319046985 -0.38939974442433584 -1.588991890186328
Ni 5.930276868914205 3.407445486127691 3.6958727671930434 0.6708342391205867 0.21424205601015361 0.9090263781884345
Ni 1.3564988293193512 0.023921576297974603 6.448840559737715 3.1780323742224037 -0.2025671907753866 0.050127769894326574
Ni 3.85118552835213 4.900172077576184 11.582492691697711 -0.19945718439149518 -1.697912304738831 -1.0184499576296009
Ni 0.6769971869665394 2.026679476906201 2.46072575950165 0.010048385374937534 1.255173225461406 1.6220701607975354
Ni 4.21026673648339 2.4455248204892337 2.4787383571040404 -0.47798813228770587 -0.28400842607101406 -1.6427629132601964
Ni 1.2435548222024508 1.9305848162362118 8.37931298455794 -0.3541445207664675 0.4628908716349512 -1.1432759876687666
Ni 8.025524475524595 3.8926204970464804 5.335365689209847 -1.1720247776666848 -0.7420784792785542 -1.418653734647976
Ni 1.205819404284382 9.290873866477442 12.009428344041632 0.6208347672740082 0.25063139327246514 -0.6310942402184873
Ni 7.841062064033813 4.949277760411736 0.18902643957504123 0.4978079952271104 0.49408272385672325 0.8431673136017802
Ni 6.3971601768809 1.7949096452356794 1.6175597371866883 0.3744737192421228 1.136996068197326 -0.552212795230236
Ni 6.23881003770473 -0.12501203540864336 0.39083927590901707 -0.8439643555817787 0.8244741080676511 -0.19241698971526217
Ni 8.356798174150084 0.1586592155701381 1.4063743933544222 -1.752458258305511 -0.8157938066848337 2.0457416819205476
Ni 4.784633701940221 1.655787804144839 7.897682049623313 0.8264559143843703 -0.8176673695584628 -1.0813550817942537
Ni 8.707094119931591 0.5388812490487946 6.515077504155283 -1.3887384351457825 1.7065753797304675 -0.7226419678204974
Ni 6.763649852516053 7.469149502577224 8.85894241569284 -1.808031881805757 0.695466178736654 0.10422095219430438
Ni 5.669847226166668 5.352126059119101 8.803548433132743 -0.07535774810570893 0.2407475584998499 0.5910071423896144
P 4.6224809865231125 6.773605858782349 11.93244490706532 0.9513071412345164 1.3004997173123474 0.9762170171023187
Ni 5.645121114649244 0.5720104921016099 3.266250023411867 -0.3783645696560967 -0.33051608271425015 2.4074406179955057
P 7.965713510316159 6.7964494140819705 1.8847562797718527 0.8437532680122372 -0.08231798147362597 0.5331668343423785
Ni 8.639350193944649 3.366413253340632 9.794857580861873 1.719089195926762 0.9653592484522082 -2.2219211267310253
P 7.460485997594793 5.239519226250165 10.251635963936087 -0.982971562217333 1.4504449110166437 1.0745941089213364
P 0.7046801293195889 4.303486050094344 8.316447782620022 1.512330078557215 -0.14811791068757074 -0.5369180738546946
P 5.206082779993649 2.8251923896490148 11.896789666938169 -0.8713545746692735 -1.4665531294324161 -0.21726310222466452
Ni 1.8010630752610381 7.272857894553673 7.31348739143344 0.3959599141403568 -0.9462263842774993 0.19766692526029184
Ni 2.735841213938323 7.216165791138912 1.6294029826464547 0.6512627447465622 -2.4030018654978615 0.8488170556883897
Ni 6.549806451695664 1.9480804133250558 5.961081482846328 0.49213177077793957 -0.6320488908222728 -0.11347075292734651
Ni 6.74281997675289 8.621789035196478 6.394775605671682 -1.3204699897866872 1.0592754762863952 0.49236085606961016
Ni 5.098130824936894 3.300514419766164 9.76415130941874 2.0910450338430375 -0.8810604891031277 1.4123424477179676
Ni 1.487640879875023 4.458923378406151 11.33125198380235 0.15025321186301865 -0.231352233327879 -0.5116341024769253
Ni 4.516336660073504 1.5318949999204126 0.1217395720131176 -0.08701024474297274 0.841997204553079 -0.05789224433109384
Ni 4.591770032104312 3.7607104384815555 5.831815432342529 1.9471231635146853 0.7160638003823474 -2.013873629567357
Ni 7.901753428667489 3.3876084012057577 2.297285225776344 0.4489776039879687 1.0480857782181627 -0.48016637088594727
Ni 2.7145243087058772 2.883607828108929 12.844863710126866 1.451075345511791 -0.12585575685526068 -1.4528442644867559
Ni 2.0193740348669618 6.2216797127178465 4.134515858702414 1.5035518181439524 1.344035435811453 0.4355865273930434
Ni 1.7014749147440795 7.912842715045001 9.81469279259354 -0.6677946809633144 0.13919438294569575 0.005372320055506877
Ni 4.0468308857337485 9.231793445472931 1.8250033834616777 -0.28736448702744055 0.11510777431013725 0.10473594415750996
Ni 2.9462660425224017 -0.05182836488786737 8.379230564186214 -0.17760666417530704 0.40356292329859533 -0.17560788857772336
Ni 3.8941003173569926 8.402925484461946 6.1240012696775565 0.12163426257474537 1.0505802625052423 1.0233664210946116
Ni 7.55144811693465 3.735609688910837 11.759531650162467 -1.2120650814180223 0.2921343976122582 0.7905106066380128
Ni 8.102774842113881 5.878670477072914 4.117737693485628 0.12083336394000482 0.4418736459533358 -0.7727111165627466
Ni 3.962556055645195 3.734242260016313 7.940396407269664 -1.2500338473523116 2.0340207939391934 -0.018830759553257893
Ni 2.9059643539392668 3.046875091734587 9.914843846785574 -0.8601394226797445 -0.20569596621235542 0.881354623304779
Ni 6.362618548367165 0.4287947936833963 11.962383170499201 1.3970433554670518 1.8987008063472397 -0.3867921315981596
Ni 4.075097326854804 0.48797917674769736 11.859147908533423 -1.2346974741055574 1.158936834134475 -2.3341289537855476
Ni 8.821958147071626 7.5748161655088815 8.272939192300687 1.963983429605134 0.871137573562461 -0.8979184412007309
Ni 2.4488497332122208 5.406401747090113 9.261012403844488 0.622991922826327 0.03072108323294064 -0.8454558525256408
Ni 4.816618425740221 6.089142135413655 0.7622900959649207 -0.7863870713879424 1.1099030686352758 0.5934427484143006
Ni 0.4256693757237886 4.877422181789887 2.305291240975243 -0.6223103233782702 0.9696537620625042 -0.001271924733888132
P 5.058634608168342 8.823906264948757 8.390868695311802 -0.11630025195634164 -1.3665282175973306 -2.147315426299992
Ni 0.19200481209873094 5.306054944515234 6.2920067680822545 -0.6259792875894251 2.143093674909161 2.5403782213982122
P 0.5855620870843982 5.647397040823008 12.750909169336321 -1.2300622893263913 0.576736234292897 0.929959785906992
Ni 4.436857197067117 5.514306872390205 3.3955713330285278 2.23740225308576 1.0276835604127268 0.4167202866161598
P 8.00778536370111 1.7694623554656637 10.813130365881724 -0.6428920041843638 -2.4424675276926515 0.9049833184673124
P 4.692856744834448 1.3963134884332036 5.122439215024896 -0.7779217142294086 -0.026858000733108584 -0.1234692589009551
P 5.805943864977157 4.228211899236186 1.596956517445768 0.13997985496146859 -0.6140887067994263 1.046287291556843
Ni 8.655609485457623 7.024575890684204 11.541478254218182 1.264182628048868 -2.044752064313769 2.617452437974395
