# total energy = -381165.8351773779 ev
CRYSTAL
PRIMVEC
9.26267126175095 0.00000000000000 0.00000000000000

0.00000000000000 9.26267126175095 0.00000000000000

0.00000000000000 0.00000000000000 13.55685567673161

PRIMCOORD
 96 1
Ni 2.773882907774192 0.33106269208666694 9.763091735064888 -0.9428276430085957 0.42636089502971736 -0.5256445578234044
Ni 5.056075435597948 3.4364417849637783 5.489862078529298 -0.9468961566510142 -0.4396082469579267 0.31755412323694343
Ni 6.449616542777335 3.61471115656158 1.1079247854973475 0.7861006504957752 -1.2904060805217712 -2.2561386531529983
Ni 1.8422341670135927 6.5148627993259645 7.9991410344369775 2.7024477091698684 -0.39886448938166147 -1.16522112448129
Ni 4.252381236001852 1.8489310783544017 13.237157564531064 -0.6068243119275292 -0.002997906286059353 -1.1376133900663503
Ni 6.527246990837252 5.2740631416762325 10.98807538149134 0.44507724049229797 0.6341839348874045 -0.8330222547479781
Ni 8.687385299106595 1.0610853093310915 3.3099470407941727 1.0209449561373127 0.15621328610119548 -0.5586202414184765
Ni 8.917016182993173 2.3316459298273227 0.9098953572420797 -1.6460734656906684 -0.4767768855884241 1.653959039086332
Ni 1.7821194303581978 6.68912143425631 11.999905509984414 1.048317948833627 -0.7553032054989444 0.0004910807038056059
Ni 2.676180251034422 8.658587654073987 0.286310095761468 -0.11186252789996219 0.1291187438772486 -1.3475848437256082
Ni 7.088425930785959 4.355169099278418 6.427685315970097 0.11473650701364757 -0.6639267133674759 1.1133426904444441
Ni 2.818528983379586 2.6188998917929798 10.918217240908701 0.4727929612400115 0.5640630097006027 -0.15371288827684498
Ni 0.7189898494739713 5.764475272989005 3.1530809237402266 -1.4606359926170327 0.22287042110911295 -2.2022323900528455
Ni 5.369274139839685 5.905592070052941 8.42428467879003 0.33606863710136314 0.14952224723426508 1.644871217852451
Ni 3.412284738246171 4.772044883240315 7.020160043397629 0.5805592075834131 1.3498402154186881 -0.348654958406806
Ni 6.4022101911282885 9.048286760478577 4.326901279043452 1.1559911212425897 1.7343096124209423 2.1264131289296864
Ni 4.795173773445018 3.8902941527050796 10.358630554154303 -0.22668619531077733 0.2527373838718744 -0.6112633215354892
Ni 6.567706339020729 1.543985414229761 2.493525930849153 0.09796031599657322 -0.12696184543524588 1.2184331897278953
Ni 0.8092536549028094 8.6929058511939 11.967395386299806 -0.6421173308018683 1.6363140723110592 0.4229845223583167
Ni 8.130013317057019 3.853215679541513 11.547282298722953 1.395957578602041 -1.43544920893876 -0.7713715718157167
Ni 4.511541515952745 5.44932214510562 3.9269465429894246 -1.4276569665878511 0.641848650521514 1.7424612949937992
Ni 4.118433746514383 0.49280838437482943 6.336420215775087 2.3754956896577926 0.5734220823179996 1.1008011063340073
Ni 5.490828175144577 7.6413981439740075 9.94632589847275 1.0344627881180892 0.5437968032523989 0.9309931122675127
Ni 5.183464953813918 7.899382064671398 3.1235404124703674 0.14642921013123814 -3.7400562420057906 -2.641021997764219
P 6.294383434671362 8.564710480575924 6.615379455602854 -0.7601253094779361 0.18852151131559788 -0.5929485823867013
Ni 1.8295720953636812 4.350093155412909 0.08548704584591252 -0.41316187984094005 -0.6824036891257409 -0.7198546348833473
P 2.7800611095229057 4.808104462562265 11.41411287362363 0.8636204392498095 -0.26910168416251073 0.35168268948953624
Ni 6.525338880552043 2.0557202148461884 7.054215180652981 -3.288693168504782 2.490614005490891 0.28637358386908096
P 6.502015474250304 3.1035321162223983 12.59460327852093 -1.6033247618692323 -0.638481533821494 -0.18336002171931648
P 8.68351350250845 3.3710010123181124 3.057125206805265 -2.067167970115124 0.22716107806466684 -0.6372031813297027
P 4.760531382830044 7.806542310357527 0.3502160437748066 0.38853302554866637 0.5626039086565731 -0.30326418897683255
Ni 8.054633698119947 3.930827602258856 8.791105913381806 0.654139552073725 2.1463366073264902 -0.5870697550084212
Ni 3.716054043117308 7.844074654414178 8.161172943267921 1.4341518302835752 -0.46450038221391615 -0.6039554750201663
Ni 4.239348657500443 2.7809595886377863 1.8838467177723541 -0.9871058961006806 -0.02621548205310324 -0.1741701276899323
Ni 1.1487194423814293 4.294776482484401 7.160148647098757 -2.791223016233064 0.4275873112376507 -1.1311676344410067
Ni 2.056553855262057 1.9328230922046192 0.7228310792568667 1.408404289005826 0.6747767687081023 -4.315194792794266
Ni 8.668952583244616 6.141901339937754 12.038637369972786 -1.0510286628965706 2.3433874962693384 0.33934319408757685
Ni 5.342393867763574 6.140891708767424 6.203468463451017 -0.9271336293121065 1.3091028856003262 -0.12391277419627693
Ni 0.6762435477496287 2.3380093850017847 12.511893181526988 0.06073768419968893 0.1779097972380226 -2.0212215852919964
Ni 7.141806705415396 5.697802565062112 2.0000561917444015 2.2794161356237 0.7391325092763529 2.644652138317639
Ni 6.086223422829036 3.575743098455378 3.3108686765872712 1.1762976940104257 2.258050782574047 1.876465649098123
Ni 3.153096670281415 6.285806201059206 0.27321175229391886 1.4380041141501299 1.0023234843813835 0.8111046287392805
Ni 2.1477726421006285 0.9312319205526656 5.173770642044498 -2.3895655374872975 1.1199499113483165 -1.3595947237022907
Ni 8.147001056198159 7.2234478901427694 4.053771038256862 -1.5977184714260484 1.4057200573054436 -1.8969902514140364
Ni 0.8345639041957011 7.320594786605294 5.395411545678543 0.9019311619045498 0.23005305490048122 0.11028567033114554
Ni 8.032134669562788 6.527524870975876 9.7316940582019 0.14604585864989042 0.4545944359541139 -1.1920480148661472
Ni 4.936540662633715 5.122590678112954 1.8449527610364522 -2.3922320285758674 0.8007857633117758 -0.9662786749426843
Ni 7.383608739373653 2.010129346769477 4.891679693054453 -0.897806598213215 1.1246264908883792 -0.1587054563954299
Ni 3.375511933235089 6.403534753122391 9.898660192027656 -0.29267818593087014 -0.3650030607475262 0.5224671885366873
Ni 4.122555635237288 0.23993282689245451 1.8849313765801117 1.0271893943851278 0.40889024904877963 -0.5273240024083563
Ni 2.162074206568414 8.891052915374518 6.965566785096669 -1.359143495097485 0.1079541939844915 0.8453206124993572
Ni 7.773937707425787 6.769382480961857 6.419808340307269 -1.1674330445309444 1.5055354242328844 1.3006876649534374
Ni 5.6525729411656105 1.5941335165798858 10.996602596678544 -2.6955697511031125 0.2307467385333962 0.7637865603796072
Ni 8.90627148429976 0.1740882017786577 9.590105791169433 1.2058800356532329 0.6043840779171528 2.206800983260135
Ni 6.176738246649764 5.953470817937646 13.609591977923017 -0.12195539335958996 0.4305674769118972 -1.6150379365411027
Ni 1.3802954872383681 3.3466216614896074 2.287353688265109 0.5145034536049203 1.5321247446856385 0.7221855970093692
P 2.620928416804926 5.287484752371713 2.160678322005399 0.0394800603724933 -0.3434495029464666 0.26526328425302703
Ni 8.554169560650834 9.072943991445705 5.6045802624240695 -0.2630403084597792 1.0659402899010804 -0.19762064540338867
P 0.5262382913182788 8.562468914124366 3.40611950423726 1.0929322451088919 -1.2929604715125087 0.5706594319711977
Ni 4.001835240348264 8.694619445382074 11.542944589759053 0.21342187410170343 -0.21386101852165101 1.0567892195294315
P 5.178074079124636 3.9218428111100523 7.898427083261664 1.0308976964746503 -1.6841782429821899 -0.3467276594771061
P 6.536815330277164 5.511780337596735 4.628378072770951 0.8140714246770882 -0.14174183195789783 -1.2587362602223162
P 2.404719143613827 0.994116195923001 12.147647895820247 0.015677815746573003 -1.5505209878046393 0.41874245925251113
Ni 0.8709263728687494 6.426922998123141 0.7075171048173653 -1.0752481975655674 1.3125389078650687 0.2786170798521137
Ni 5.002129638019978 0.37565967553423724 8.669392560130769 1.8378885601558732 0.42485268591530706 0.32175247758900716
Ni 2.906755927392319 3.2180835720339958 4.116905405751958 0.9531544788559002 -0.6572122774617778 0.2186872362657008
Ni 0.17081847881419626 8.182319621817115 7.807677913857365 -0.8501046641515617 -0.6548142095432464 -1.0690274134668363
Ni 8.7162570455095 5.3419677848843525 5.019601814869451 1.4249992172500296 -3.2991716994386016 0.08788673381065508
Ni 7.5000034667714495 8.833383523939004 1.6472391898720857 0.8833338585183368 -1.5161106286455694 0.8984820270136848
Ni 0.5476535873348078 2.7316729147173917 10.04694537040093 -0.34656799397079024 -0.9246152337656269 -0.720843738269494
Ni 6.115632404166614 0.8728539347636628 0.5209252230678112 -0.4919314818416753 0.3273073459689653 -2.3534513082632436
Ni 4.7630693547627985 6.223144229799768 11.821781562325825 -1.9509944735446336 1.2840222884826145 0.01294190487264868
Ni 1.972383961273216 5.2961175620115934 4.818404553033883 1.481694098838913 -0.9930582570293736 2.0538992780306757
Ni 3.2286985933293866 7.227819870990435 5.494905603045301 0.5701349269262955 -0.3792505718054759 0.7928721648916538
Ni 3.8010020014942927 2.3545432532498403 8.527330044328387 0.042353525265546414 0.17709707152874016 0.27555618153860284
Ni 7.671372148260119 0.5098507732765646 7.7613951242354835 0.10013572638133722 -3.120203379029078 0.7037937247657428
Ni 2.1848603779354825 4.303733485619341 9.154456425042182 1.9195110582243717 -0.983221987665242 -0.022767375603502726
Ni 7.648604502235624 1.2404847268259591 12.170152481980177 1.5757003152837443 0.26594925457645807 0.7073989256184978
Ni 0.7079987637243115 5.13710528402035 10.537798404866985 -0.3987523892838294 -0.3588154438795756 -0.45586713201895035
Ni 0.48902273061965845 2.967324534940798 4.804210435553031 0.9645868890625583 0.2924701836851221 0.20561420513182652
Ni 2.0307943664117247 1.022311767321926 2.4981350360817762 0.795041918849463 -1.035035629902424 5.70002797934837
Ni 3.7440550984191967 9.089125878184838 4.215124919549567 0.5111237384994101 1.1364162844344559 -0.6467345178589056
Ni 1.0800737854703149 7.533043415253698 9.89768390647396 0.06047080369154747 0.18591029894499594 0.6413398292058955
Ni 8.558865734993558 4.662578633965514 0.16400671034942316 -0.04406896529475636 -0.904072633727585 1.2543311891760849
Ni 6.620401675974897 8.219592611077717 12.570811181052047 -0.3574658718302166 -0.2988560326068079 -0.38929664318756824
Ni 2.5187148391481795 2.7187514882714323 6.563552030948319 0.20808863481424808 -1.8045212975493374 -0.525645586264669
Ni 0.67671409145103 9.144525915154933 1.2803596004511995 -2.4103606198557777 -1.3471243591494217 -0.8530035829659116
Ni 2.5165844247520717 7.436239237628809 3.0907190630305017 -0.24793687715943752 -0.11039365666391955 -0.6297940333498251
P 4.818210036936847 1.8596387263626661 3.763138980072681 -0.8238310751670136 -0.8917097412868579 1.1973455158196604
Ni 4.235504648916161 4.382744071701086 13.22238082502623 0.8764062781605679 -2.3023310925486604 -1.06681960718224
P 7.02044718620754 -0.044036591834680935 10.540875464268668 -0.988072373779008 -1.0018537438338164 -0.6038063510368117
Ni 8.813144587175978 2.1439101081737717 6.730097639497625 2.0514359040918473 0.8087590113252393 1.2237792845311568
P 9.222610234107934 5.9512755648425255 7.816964668090139 -3.2362580906335165 -0.7551211713951252 0.7339936453878908
P 7.9922773950129935 7.129589241987281 0.39134693562662193 1.1519562890515838 -0.34850866263692887 0.5548021532239671
P 1.254202743002637 1.2788229232846156 8.270088989868249 0.148596392985886 0.3986677999898231 -0.23165485216996232
Ni 7.271993550360169 2.056933624784841 9.544948416108975 0.3239913942218549 -0.5092031244379295 -0.19483691201066447
