# total energy = -340888.42466116295 ev
CRYSTAL
PRIMVEC
9.11175935542168 0.00000000000000 0.00000000000000

0.00000000000000 9.11175935542168 0.00000000000000

0.00000000000000 0.00000000000000 13.33598084741543

PRIMCOORD
 96 1
Ni 6.988409715810443 2.1574277374111785 11.347679551006982 -0.4703290730805512 0.1552313818039004 0.9278676792646536
Ni 4.909771362560508 0.456600290117096 5.854829387439428 0.05222450452235522 0.8670796014430036 -0.27218572240447314
Ni 2.783660742457321 1.5650995893632995 4.432480089032593 0.43755779218680124 0.8607063509268081 0.4790944779780072
Ni 3.7380082061187534 4.255783938160237 4.425958802777915 -0.5006698901559378 0.4756031769952971 0.3872983818106169
Ni 3.679774951328131 2.8474886175642387 2.400609663628666 0.15655755681449166 -0.11194763141460075 -0.019938390795139854
Ni 5.444668090651371 4.496680635101948 2.689494353009791 -0.3313743169494873 1.0152083107638514 -0.5200629499705688
Ni 6.05105568356577 3.2032025956226193 0.23814950146066402 -1.2044345614559577 -1.2044235057123642 -0.3838070808279067
Ni 5.710075420574896 8.308248075444562 12.3657482821895 -0.1878512247214507 -0.5453608053054091 -0.3434086224062021
Ni 2.387663675769721 6.398204607719725 13.464272938340837 -0.6341877915421466 0.8129645647661548 -1.1874794216588582
Ni 0.3167575616083997 0.16462489192279972 0.4943913125305065 1.3821996055860004 1.2440542327301092 -0.7948789109090375
Ni 8.250260838159706 0.131719594938701 7.053040336926913 -0.7542593376154623 0.40703108435285384 0.421015571557404
Ni 8.756173059367612 2.7346850352910566 1.3625506433387864 0.7185569991178464 0.389648112989716 -1.2447625716510433
Ni 7.2649971746070845 0.8312694614067286 4.870127008270332 -0.7403224158193961 0.20506835993068553 -0.4162695722319863
Ni 1.1312158267878245 7.719509960628964 2.686800005733686 -0.6019937233081052 -0.3038851103902831 -0.7007780778678706
Ni 7.6799558127575684 4.065594182684621 3.6398827571802945 2.6532396228763337 0.9541461533452084 -0.39619542718993056
Ni 8.052499210562198 4.282189817112393 12.515271343962093 0.18595477902968618 -0.12040630370491522 0.3233769005663076
Ni 8.425315961151012 7.225597926646726 9.300352848009355 -0.7759478783324895 1.088905640448002 -1.6627061891513428
Ni 7.099591404897467 0.980644001499914 0.2608815189933889 0.42119734855090685 0.08264682556795444 -0.9028454461887033
Ni 1.9991473636092845 6.955534487632604 9.052477454487432 0.5161155352870466 -0.5447720226814747 -0.05932563434351073
Ni 0.25191281414431843 5.224382193637118 1.4382720980855412 -0.032751483399408116 -0.030657062764224623 -0.47212833107281915
Ni 6.476556627426274 2.2281623261984733 6.940044496528855 0.06772131460637369 -0.029449415609368635 0.324805405482718
Ni 3.7612067457364855 4.364951928403775 -0.16313147454520888 -0.996312245190297 -0.9150409598136305 0.6985422465588162
Ni 6.405065762602739 6.167777322412253 4.8139557446484025 -0.9266062960537268 -0.5662718444264635 -1.1336999139445572
Ni 5.892228604195508 3.1511926725519146 9.456997660985884 -1.1811820186859208 -0.5791659267803122 -1.0056695180354809
P 0.6413421246039289 5.70848997442663 12.324940356214649 -0.1762393515141352 -0.7137364378007515 0.5710744080214294
P 4.315657309655962 6.4072070260788445 12.322512983491096 -0.7030925849336601 0.46519380873651495 -0.18850865579979148
P 2.550244800042773 8.644353547117491 1.19024180465258 -0.15197662231202858 0.16591817209378523 0.1112989420870083
P 6.652149344226475 8.155844786502621 6.08854237321279 -0.4432211611201657 -0.7123310728127925 -1.7139122797115127
P 5.034884931881434 1.3934704879337636 12.587112100349385 -0.29627773035667043 0.3196770831172172 0.03151015479313928
P 4.1496228285427215 6.194866583324868 8.041063041247895 0.5894984190545719 1.0764512167347333 0.8445063441281778
P 4.8115921542411595 1.192847767861799 3.5478776770797107 0.8334390305704227 0.8064604450990499 0.40873212620436056
P 0.3885099339288057 5.751770831922399 3.59065921015637 -0.06480105563578517 0.19291526950791935 -0.25497604339440605
Ni 0.5039677717364124 0.37289055584054326 4.855844325296728 1.3223060145541614 0.3794979119295916 -0.05502880674036975
Ni 1.4709113316930342 6.989858485566616 4.990644606113181 2.39667155240446 0.7136181670553323 0.34210095933837215
Ni 6.0680491149825295 5.735697688212391 9.008148744652294 0.8090824561029292 -1.2936934930237916 0.3403022155667365
Ni 8.924266798121705 2.7386759859401404 9.994944094972288 0.9419478115068035 -0.47541342958199406 0.710920308508195
Ni 2.4895969289918605 5.892948433193859 6.818674037999354 -0.4411339395738338 -1.3011574055010044 -0.7137801465544933
Ni 0.4895857705845553 0.20784834533388966 9.493938556240481 -0.08587201737347147 0.10704479479634468 -0.1680449886288009
Ni 1.8094496431451994 1.2146157612423023 11.412958929397917 -0.28593135412533977 -0.431812919283224 0.33155429417077736
Ni 4.5524081560375524 7.160148158353652 1.7504810693651225 0.2900764866419649 -0.38611490302547696 -0.9003003111693463
Ni 6.049670696125905 7.900770191821243 8.15384566647429 -0.8260838757569322 0.5107432152315398 -1.2891544675028572
Ni 5.925322514600694 3.0460976387927157 4.489744763791258 -1.7210146950842486 -1.6673046071553026 1.242064198883274
Ni 1.2456959728040005 8.380841463164307 7.181799521212903 0.7741313939490411 -0.972464234928106 -0.08943145258995565
Ni 5.296756899129516 4.8675474691635845 6.641145072311183 -0.8122986490473817 -0.04379745680092457 0.05679772571533444
Ni 0.7101204186324152 7.520317786794228 11.339878062546378 2.1451122480010865 0.6381179798344881 -0.4103742897934739
Ni 4.7978516209561874 0.5523329910179996 10.475906496391794 -0.08157724665285951 0.1875033544637287 -0.392949152338491
Ni 8.451412040281092 7.435141059242556 4.715789292792316 -1.9859146824605862 0.24310217477495552 -0.18592392579175077
Ni 7.489456257459877 6.112131807311903 6.854494186838798 0.7313099279081405 1.0769860061922807 1.4269301157241554
Ni 2.5969790143787304 5.82751688841973 2.202344155732313 0.4542385952765919 -1.8819068747183523 2.9820232962805093
Ni 2.7029123300094264 5.472841650941248 10.995502757975942 -0.469928752318339 -0.5382774160960665 0.3789952612615602
Ni 1.4376078508199746 3.5704429494140832 3.3980612166520947 -0.887381289114833 0.3989843027889774 0.33154503819939674
Ni 1.3460620033968194 1.0147128701686885 2.560188463155433 0.7880827139228106 0.46539306923151463 -0.6342893501170173
Ni 1.2702612763426515 4.053612218977898 7.969515683515628 0.4560828475741822 -0.8275810291277489 -0.39790006858586313
Ni 4.070869891419368 2.829155757504979 6.341205996337665 0.3657659070554798 -0.46736510535622094 0.5892325669876949
Ni 4.357872091293414 7.253634810544511 6.029877221023156 0.41622046416160574 -0.35520947169587214 -0.5528234322310414
Ni 8.522811787509902 7.246427408801532 0.13185353780295106 -0.42243944848812404 -0.784388810010991 0.15486191427962365
P 0.47629171351374977 6.213126549308346 7.608070408748859 -0.6031026401015678 -0.05690005562115362 0.07528190056245099
P 0.24514277685603292 1.7528747285786253 8.041169648833726 -0.8247294186115667 0.7287197985834611 0.0069800308622589465
P 1.911246219975247 3.585896493479941 10.042953955634438 1.1791243648259435 0.5717068993991057 0.3705054786229942
P 4.386574133632713 6.206320064982169 3.813530113333054 0.1848659168408816 0.9258380504291345 -0.5059571066968062
P 7.333581388158801 4.375630910505888 10.374739542141317 0.34626228980491336 0.47479096550664673 0.17557754956042018
P 6.51865295619058 8.030403193840675 10.181141077446927 0.14266511510311558 0.7775021101934867 1.0878466030558684
P 2.791469520325505 8.842251851107092 5.632865104330286 -0.9643374920559135 -0.4722255187723158 0.27562303022079626
P 7.24951629526281 4.469855615214045 1.4457400961494424 0.9215983013161742 0.10605697696177864 0.47977196366100594
Ni 2.9265331309907214 1.9196381504496896 0.34159621793123446 -0.1590111605613068 -0.737329394629343 -0.7379084070612647
Ni 2.0109197568481334 1.5616462325231109 6.803256940971387 0.061231593116971975 0.03408485749885098 0.3242284499333255
Ni 7.025148330004745 0.9219551587356518 9.193665078694313 0.3446692342861806 -0.16249629089642983 -0.08108128085304746
Ni 2.8412379505659024 1.8213769362950858 9.287484310105931 -0.3961478617814468 -0.4795871013437096 -0.9447672832334698
Ni 6.759422088499672 1.7071883665820393 2.4224013475837984 -1.1218520134670358 1.1844473197007537 1.2106620304229085
Ni 4.413772735659001 7.128311670755712 10.109139954092914 -0.4133907080222945 0.8542266567397353 0.3170478730244862
Ni 7.435742435367761 6.4297950778118995 11.384807237330774 -0.6201513680537384 -0.5668626839329269 0.05873248084420209
Ni 8.03058542903013 4.054250042140993 8.239916257630243 -0.9323637673627942 0.21493085454706212 -0.8407715596760938
Ni 3.1694070797380287 8.40156160420544 12.435842314285859 0.3652591426223903 0.8161712446289106 -0.7052255721162629
Ni 0.3606479958128981 5.38673552392335 10.071546656860063 0.016352987436726675 -2.011154945084614 0.21879136594373289
Ni 8.810388028230733 2.520449346566739 6.014834617309521 0.17206799374526496 -0.21907572995337107 -0.12699501266602645
Ni 4.020372520421147 2.827460970243039 11.214719845604034 -0.8449159208617708 -0.5856895868314429 0.21915029194504837
Ni 1.3122391522338106 3.4532930578723793 12.203383106615954 0.8431403170185866 1.386296401363193 0.5742353222479143
Ni 3.6774423409030956 8.891455352260175 8.159619788452199 -0.17614550624874825 -0.8621230287686764 -0.5355695302466003
Ni 5.822605650063894 8.252611672103686 3.5453974561512163 0.4195410438944065 0.19718715741039589 0.2851787922300314
Ni 3.397538201658356 8.601154695456978 3.28313186089391 -0.6412482979333537 -0.69523863610688 0.8327952263388367
Ni 3.762491503822149 4.119954939699306 8.551070998338822 -0.2853749674012375 -0.3046492422498173 0.5499234849754271
Ni 5.216473186414733 4.768247514429081 11.210491989208657 1.286206697728443 0.646999341484518 -0.039130133232242285
Ni 8.158587426103932 8.896412149413374 2.602169983750381 0.048217697355807276 0.6482933777055933 -0.09958602452545431
Ni 4.8016694481752875 0.5270013885076867 1.434324883881927 -0.2751031531615843 0.042805268090984346 -1.0750926458243097
Ni 5.703469394957121 5.5040949859329285 0.34996992488673156 1.0421951237653406 1.774222646565796 -0.2703890355153666
Ni 8.109438595507685 -0.1639460658420766 11.533556710724126 -0.738664825611315 1.0443635921715693 -0.15950095571353176
Ni 0.21131810334112935 4.896231287983937 5.712161102318218 0.6071544415734382 -0.014939137808335563 -0.2250337473090189
Ni 7.489401586903041 6.656431871178689 2.346879440369498 -0.630931489388378 -1.589621810460843 0.41105768901374373
P 8.720327397601643 1.9510828323902996 3.3817511671957945 -0.3294768428164584 -0.5513959557558955 1.597107577314927
P 1.9684954047428076 3.8515680644281773 1.179437991445689 1.1091348230106832 -0.6610725317481324 -0.01831885291384587
P 4.74583258612601 1.6450006081802244 8.1915865742106 0.6625583722650396 0.4129088832898695 -0.373062440716893
P 9.016131557126407 1.8850590232504387 12.3242205272163 -1.7058431295501333 -1.3955382316764353 0.6898110373334055
P 6.604321718753784 8.132546017530688 0.9661171233724396 0.3472740188988793 -0.8300806556211511 1.9045266690003972
P 2.0958960256914048 3.5036810877569264 5.772292336607024 -0.7097818240283776 0.5017045020680392 -0.5148492669801132
P 7.182399074986213 4.133121432137492 6.010686944397506 0.6430773807222925 -0.37263512337148724 -0.593089735950256
P 2.5074104187611717 8.704873853535785 10.071372622254133 0.9180920879351285 0.7233940154951735 1.2285826194570713
