# total energy = -340888.0843437594 ev
CRYSTAL
PRIMVEC
9.11107063845142 0.00000000000000 0.00000000000000

0.00000000000000 9.11107063845142 0.00000000000000

0.00000000000000 0.00000000000000 13.33497284050807

PRIMCOORD
 96 1
Ni 6.47994821646746 2.046528652131376 11.253223465357962 -0.1408360323141768 -0.7063771692222028 1.3299563320105676
Ni 4.5505879307612 0.5532187331503244 5.683592367486343 0.6536746966221645 -0.5580998501386324 0.11688080705016
Ni 2.868656986190777 1.8461853232572027 4.613354095325945 0.9120795631924614 -0.9150167914439145 0.43735133260295
Ni 3.9141341020966225 4.441255084952382 4.968304090351317 -1.1871348938352457 0.5550345809497473 -0.007032995587381436
Ni 3.870000076671797 2.8796358261240784 2.1941762826468447 1.3378601602386764 -0.8859990640553257 2.1812308481005145
Ni 5.51638873528387 4.78577199316645 2.585544137504087 0.1462821430304126 -0.7059943319614873 0.005250192655345797
Ni 5.462706307991741 4.544993733483982 11.536378224968878 0.12989393148037628 0.08148931492474353 0.1211588656002236
Ni 5.509591876702755 7.8122600533527375 12.584027420078126 0.045918102688353175 0.3389991804845968 -0.7053813809678369
Ni 2.069324550482514 6.4536718891914076 13.427783613252608 0.18978006631304734 -0.02423984638397116 1.9002372975964241
Ni 2.9443973151248346 1.6546068441887027 0.12605166014708213 -0.643130345447415 0.361763470764306 0.3764853503555129
Ni 8.14279146837376 9.045397888018934 7.102473040575994 -0.8051481540455295 0.20218821016941307 -1.0352428608172235
Ni 8.445178786669496 2.077296737156074 1.1604187367046555 2.2518708790155797 0.849183437888873 0.34686315661370587
Ni 7.13074287007396 1.047754883526863 4.755437595096793 -1.8646568293886532 -2.2389613700427637 0.667071943864677
Ni 0.717840287977612 7.418543364524703 2.029809837793111 1.3664089184106467 -0.5064430451942891 -0.10065046123422666
Ni 7.922057563756242 4.060066118039941 3.715736897877846 -0.11753875234913305 0.6397550012172788 -1.3475269939044792
Ni 7.932343962332756 3.6814464730040077 12.524352641728624 0.33254314044660793 0.5112852037779387 0.007270051298851996
Ni 8.247231669332633 7.35737163729467 8.80872325448249 0.12024586686765096 0.6821985150934702 1.419752881249426
Ni 7.302213216584122 0.5169147616995067 0.04562277434192259 -1.7308874741132705 0.7554083636182409 -0.9846733753997878
Ni 1.88942646377459 6.888944170497276 9.213559093729282 0.22367311951606642 -0.09650378605570477 -0.43948406267523665
Ni 0.2992084658038447 4.772551829894067 1.3754755333035504 -0.8158236314815046 0.15481589153303657 -0.22301208889329982
Ni 6.3157667263445525 2.283307151871338 6.7298676131665935 1.2100742762402386 -0.7242195967202624 2.5422942074740025
Ni 3.9273269321575532 4.164469874716878 0.34544897072458713 -0.45813227390404326 1.0005604789436897 0.1947132419486066
Ni 6.0094980920226035 6.094003270762336 4.639917421322246 0.8289416569207013 0.34975924721457824 0.02106787641389275
Ni 5.1888457513816215 2.9963668611659595 9.362150631146902 0.0566318895614315 -0.1910854153880322 -0.5808255738709223
P 0.15118637029148077 5.818921830707351 12.566957829526224 0.38681218620281765 -0.7967146785661956 -0.5804972439972261
P 4.247216616853184 5.94299638855939 12.643047112459824 -0.9189984017994818 2.1208171228991475 -0.6219423985158902
P 2.48644757938412 8.477668864015683 1.348618830837663 1.149167413452537 0.10428188733922686 -0.11179362233523972
P 6.361221856989569 8.296659226708702 5.708715233239112 0.6613540675442933 -1.6851850869801492 0.5555238618813401
P 4.759158556282486 0.9610174925185347 12.318540848349915 0.7755395871504772 0.6617001380298024 0.11675122345083118
P 4.0376255514376815 6.505604990950596 8.253561129997916 -0.24227710777049888 -0.884242229265219 -1.52169789292536
P 4.734695332032764 1.0810467350756479 3.2427584513736614 -1.2682665683102545 0.6600726297287083 1.4274057698089933
P 0.2839902447743058 5.921375818300697 3.4543575967238525 1.3032297146490006 -1.6711111253855866 1.3036138374612969
Ni 0.5326012917519267 9.189881243755288 4.554706134619998 0.18200222213984138 -0.15668508353129146 -0.6172262239871436
Ni 1.9250780825787484 6.426502677007916 4.806457767593478 0.5678515302087576 1.0875974631595398 -0.8383719490956658
Ni 6.0683738294906515 5.520133385252823 9.114187381280697 0.3913769227553647 0.7908481924830896 1.3507470435036737
Ni 8.851486974906512 2.3331355963487064 10.027219598880789 -0.15393297470745101 0.5691440237679359 0.927914216231873
Ni 2.44040022915764 5.367987619239369 7.031970666063226 0.08696910709239215 0.006936064998200958 0.9771855516631751
Ni 0.8131183964577057 0.3161158793011299 8.895853332628683 -0.7347734609767087 -1.2003102548749391 0.594229505981654
Ni 1.8435157796053705 1.451256862054787 11.323498974215676 -0.5178132347044437 -0.9175339014388133 0.21580322984968642
Ni 4.217724081696256 6.720325589048629 1.7067294562139597 0.3831473357567208 1.2005303413055453 -0.7153996844357873
Ni 5.803123234487978 8.226850204659772 8.118371066155312 -0.7565270506037165 -0.3764791797079258 -0.7617739008249527
Ni 5.516999177006303 2.9688058729516533 4.817245275046615 0.2349255525014341 -0.5254504395347273 -2.1242333476695476
Ni 0.9745747653988281 7.493718807088749 6.85656251488985 -0.5597998635488747 -0.2778624610742763 0.8011192353917945
Ni 5.3293111250345 5.0277984695052345 7.04830681544116 -1.817869179611153 -1.4548551242691976 -0.9344016237284294
Ni 0.8222868666858234 7.807886739520385 11.56096809309833 1.5780665015230757 -1.9241056195735893 -0.1488694441416146
Ni 4.265019648579053 0.4979108908838375 10.17894443343788 2.4769179960610375 0.401068953232148 0.8101895731241789
Ni 8.450618095748485 7.181564421234092 5.050381168807046 -0.7052762228485403 0.266079095286103 -0.39578147958096355
Ni 7.158230969724394 6.30684698834065 6.952081155630724 0.9672780627414762 1.5915131139462848 -0.9435771195801105
Ni 2.4960962030267484 5.225144256190149 2.5136286359592406 -0.5586526373183088 0.06199392520429324 0.41817501678481533
Ni 2.414433678278046 5.636235756431302 11.32299239869676 0.35673902096652116 -0.29451009693328634 -0.5478766297487274
Ni 1.2512506427885242 3.235095129989512 3.7965730485336437 -0.48941822850151845 1.563195497948514 -0.7212381454944352
Ni 1.9330502692523077 1.321487885150205 2.4477674407510577 -1.0908141703246246 -0.32348848644350736 -0.7248513167669903
Ni 1.00237264144572 3.3897464403860837 8.207782556350715 1.1357534540394763 1.1662675634679331 -0.407801129749659
Ni 3.9610378929486054 2.8842551388595012 6.9970998659995525 -0.4720254869463677 0.22363301030675034 0.11850985801315075
Ni 4.090333094188016 6.9735586820828175 5.891084242262316 0.31200696816646917 1.2625700321461095 0.9293658610767348
Ni 0.7656861635176473 -0.06038908627545175 13.585136356047705 -0.3689851853237258 0.8394950069565155 -0.2908838130346087
P 0.24419855554218678 5.65741899530676 8.232051714799127 0.9468840724661564 -0.10560523413634071 -1.636371665021872
P 8.48592349387425 2.035795811101144 7.777063076965734 -0.8155276975076406 -1.5870728187867442 0.6997820325031884
P 1.9241851976713096 3.4113487885038087 10.460992197984982 0.02079431103753193 0.9822930480930697 -1.770113252383113
P 3.977328486974119 6.251014348414281 3.8672886220957383 0.0737261260395569 0.3516605780023492 -1.759288650963783
P 7.009164745534556 3.8775987094555098 10.246899352643302 1.6846592963836662 0.443375684420159 -0.4791348442976393
P 6.512456515954615 7.866771588058918 10.12939205439618 -0.23939824356080705 0.12176718860818384 0.5514602333349277
P 2.323104307745747 8.718474456909604 5.700940756795057 1.271850429006771 -0.18080743050079182 -1.1009407172356651
P 7.310258291821554 3.861554114333066 1.4381232539520028 -1.5253205772796117 1.2242798783166593 -0.09255174338649222
Ni 5.745851045425125 2.619296098112317 0.36848631244355334 0.0708284927767877 -0.004226122266205625 -0.5247205033472382
Ni 1.146637331490454 1.2022513057252058 6.650551189067538 1.410046195484623 0.6547926122766917 0.40666367371110607
Ni 6.992209043363705 1.0147910305155048 9.196130527000308 -0.8058390094649669 -0.4110306924305501 -1.3451086142709738
Ni 2.63569602498364 1.7548012863019995 8.944832625336936 0.8005067986187762 0.672214664407881 -0.14738746027944938
Ni 6.5527274474941954 1.9879444689188182 2.6045197640012554 0.15601505404746033 0.43747243156184656 0.048133108061800975
Ni 4.293364188854989 7.039158389568108 10.26647539868537 0.4698125384554489 0.4568503218678261 1.2720540603771449
Ni 7.894423686978064 7.440355267263563 -0.21054863892337808 2.0372534419438786 -0.8653780453708645 -0.010697074702529964
Ni 7.833598180426425 4.154721029298925 7.698452760829195 -0.3984299729474041 -0.48045741976380474 0.3799460552106037
Ni 3.094739089182443 8.401418315134517 12.42470030830913 0.658342534411479 0.3286553753564275 -0.2531688149823382
Ni 0.15313705048211979 5.004018575541817 10.308640521778589 -0.020777341756667442 -0.8332611102316617 0.4624170173223262
Ni 8.622334441161717 2.600363293646424 5.625265116461435 0.13678705905578378 1.7135633810125264 1.8194573500338793
Ni 3.7578154658014666 3.057310811633891 11.630896470170601 0.06080041911682432 -1.192909334425178 -1.1243678379103539
Ni 1.4819611695860964 3.7064381393418064 12.574318663370304 -1.13909640236978 0.18881590262756515 0.5005259083789056
Ni 3.2927317618717264 8.597370108035369 7.652887386231322 -0.23477565718713117 0.24932218754273835 1.222052017427405
Ni 5.8903435122319605 8.308940949721226 3.3736417121984443 -0.4482792923693634 0.2166133844558076 0.12324685847750386
Ni 3.181057370948504 8.426947534630877 3.4673727609103433 0.28943473929290797 0.04555429159103122 0.7788848494736264
Ni 3.501812607340121 4.596571503494291 9.414357065020612 -0.23844847805302807 0.35180378844843285 -0.6467244905565764
Ni 7.343987474753574 6.192585053399952 11.266757960562044 -0.15581425089056392 -0.5552775501984889 -0.3565618719587085
Ni 8.22731486925446 8.987041481568479 2.341847601945572 -0.25163335217441823 1.7930094402549959 0.8047447479595238
Ni 4.627540032069639 0.2759561028214545 1.0620920640405926 0.8245358145435219 -0.9237315456090929 1.382596841024419
Ni 6.176340014726859 5.697316372956495 0.34799642603193254 0.7228880223930325 -0.6070112311273546 0.5357497645782064
Ni 8.240981474980563 8.966805794023363 11.005325815199244 -1.7621333195014297 1.4392068762089794 -0.740336299776467
Ni 0.4446676171890403 4.869056288461316 5.650601181263532 -1.2084364835264996 0.13122679135918688 0.5490786204766286
Ni 7.660569840863489 6.624067129384449 2.5560743800233685 -1.8106520930374235 -1.4904193945270525 0.0016323933971004146
P 8.672454439894576 1.8679334485026733 3.708175620483118 1.3063145242219116 -0.8092441784917739 -3.6244275621951774
P 2.0134007998513046 3.4021466073149003 1.3630607886619595 -0.46812666611259385 -0.9984598876609192 0.4274757253604509
P 4.802509029645683 1.2051759593505917 8.162177093042711 0.35863649509955003 0.05546358028494318 -1.1090126956105224
P 9.010420488430597 1.50891171607797 12.283563448761576 -0.9122695677160805 0.9556901007935604 0.3368546233377682
P 6.588925730527398 7.986363499232795 1.2984833432849816 -1.9895219401958704 -0.3114896622104184 0.2316970182618074
P 2.1665852278999416 3.4907517677724624 5.925101335021633 -0.833315617618681 -0.8265721282472605 0.04281735227584239
P 7.043158149510614 4.447286613612836 5.626505133154318 -0.28100049248262576 -0.3208775311832216 1.0691145738640038
P 2.4494019667958993 8.72691130817785 10.271515642877157 -2.0976172877439163 -1.3285100864823443 -0.7075411076233169
