# total energy = -381171.9611510552 ev
CRYSTAL
PRIMVEC
9.20991058727715 0.00000000000000 0.00000000000000
0.00000000000000 9.20991058727715 0.00000000000000
0.00000000000000 0.00000000000000 13.47963509650595
PRIMCOORD
 96 1
Ni 7.928010887135856 2.3046235922560023 4.906681251609101 0.15600914051018938 -0.636294296362188 -0.807766565504983
Ni 6.9958021426418515 5.007281106537157 11.328002318453606 -0.12597505604194434 1.2449147809581915 -1.1712444478572346
Ni 6.075860999243166 6.527524231462045 6.722522908422153 0.7415999969802388 -1.9828334724321015 3.026956152237458
Ni 2.2503219585788243 1.37105178097363 3.0634493202784228 0.8508554262746573 -0.4246408270148171 -0.39725009370669007
Ni 3.6277101581362228 6.892595882976575 6.33811136536103 -0.2003699260137517 -0.5885987900584378 -1.5557015035643142
Ni 1.475050092961876 8.415491462192342 6.967529558676078 -1.1843717292678118 0.2620931140551615 1.0062786123743894
Ni 3.5046841705752065 3.820261761814779 3.2317153103471843 -0.39546497678180925 -1.2701864110407868 0.14551004075107846
Ni 0.5722145167661464 6.74386503456193 3.1719061500521377 -1.0112871213325747 -0.07367856063107311 -0.055987571109213256
Ni 2.7685636354809326 4.987406119177023 10.04577920550118 -1.413344920840553 0.2187394296598749 0.06977639736318952
Ni 4.410920966804346 5.383155983340584 8.157646196377701 0.23305456073096636 -0.07023559638779517 0.3280257121922286
Ni 5.756792851836082 8.668929785721616 0.983731748103271 1.5063332375438316 -0.10886256473137382 3.774395895827926
Ni 6.732389485789582 8.365371127987594 8.77115795286713 -0.9796095877236355 0.6202706672404221 -0.9614640271628603
Ni 5.013589895388729 3.0526525419270394 7.114619200998241 0.6569505391599589 -1.2073396509178949 -0.6034656798679413
Ni 1.2043892363633482 3.5544453182613998 11.909365960541143 -0.001952495740680508 -1.889519654068604 0.5379768541365122
Ni 3.5235000182011356 7.809829312619987 8.327301040984882 0.9252808923740838 -0.6492991932622882 1.439227959254902
Ni 3.638458123960725 5.096423832514331 12.487062216175106 0.4518253578494089 0.05606676108658087 -0.06883948737121694
Ni 6.074820279330425 3.3535679552809152 12.58732406737929 -0.24834156879702388 -0.3126597712591196 0.8586016458789794
Ni 3.9227312286214766 5.9736494099369715 3.8527220921904943 0.0317945188027775 1.6204184841267255 0.21840672891080448
Ni 1.786124037853392 2.3414448153634244 10.056535460245343 -1.3523670956056 0.6862343757257408 0.7960469630752097
Ni 7.652846384189271 6.010636411437573 1.3654328144359016 -1.4782269662259186 0.10146472960540591 0.382563952449425
Ni 1.11625960056672 7.932505323573179 12.142873116254815 -0.3970143235468001 0.8265466743259635 0.34900899931211504
Ni 8.119880957420227 5.012659694404775 6.598618295377283 0.5589493426231212 -0.138870938168006 -0.14776412689257779
Ni 7.270091704068874 5.497377296241597 8.689862991824883 -1.144004895414991 0.603138892656142 1.4916424683008762
Ni 3.7055615335556915 3.1380284144147335 9.029832110647671 -0.09931143070782895 -0.6177476437082522 -0.1863191043476404
P 2.794517163924333 2.3979752474378007 5.861066540155221 0.7531488781601029 0.4902237551219493 -0.7885321427554033
Ni 3.9872466533006885 4.614137647110815 5.875206516102401 -1.023576737333205 -0.45705780989294187 -0.8793478772873952
P 4.866351052512703 4.728626047423061 10.586365967821804 0.1090433132836122 -0.30226300140582785 -0.0030182180010335114
Ni 1.8759482972247492 1.7179062290598268 7.706428723838263 0.18890666256915853 0.5125949237282978 -0.8768911882167866
P 6.10584846858728 2.515963413828291 3.2384956466282455 0.21853579828950107 1.9783625811449412 0.15158170086645506
P 7.247545842596396 2.909917345399069 6.856591578951102 -0.596090984670425 0.04730007063754435 0.8024286982318374
P 2.6570960858888544 7.2098865176123414 -0.046801082376857185 1.265300543703395 0.20382960242757797 0.3644155636751724
Ni 8.306050092961355 4.742183036020892 4.210943412102399 1.2405924994337538 0.5270913175722599 -0.8459271357351045
Ni 2.9532499753941717 0.5370381837154993 0.8638546290216017 1.1848126734599724 -1.5585626271621933 -0.031474673569513535
Ni 4.556373086998321 0.9764163160086675 8.429706038416455 1.4712258523177373 -0.23293988952997305 0.02862511993586038
Ni 5.348867485684524 6.794657692250132 10.07505659072784 1.325190535190808 -1.1972370152662541 -0.40599338711695887
Ni 2.8437533466987897 5.384344061825041 1.2400923763078784 -0.5158447981241633 -0.4501194309018957 0.15518870149142305
Ni 6.701167888407351 6.407104648638248 4.613607156252639 0.1147755877816991 2.045674319017722 -1.7601648829211491
Ni 6.072158615128813 3.540105487251331 9.15849548456788 -0.603489076906709 2.1404022441199264 0.6180230088568259
Ni 5.879229405110236 4.795416320053133 3.079315233496821 -0.29158186754289783 0.8615082780028129 -0.08381950571981693
Ni 7.912832954249153 2.8404561986566543 11.042153398066572 0.5398373043840187 -0.36269935231501405 -0.7984730560181991
Ni 0.04832992755840596 0.5167220416312918 11.11348784065192 -0.9219914229895346 0.35646725536237317 -0.47797244855842197
Ni 4.654173129063782 8.2838542080967 12.739239702925138 -2.5248703555706 0.45509374418803555 -3.393148862417711
Ni 1.0952610040972548 0.9295839199353207 5.102823799482151 0.4573856255460059 0.11418037739986142 1.8646491160791692
Ni 1.319310502480009 5.618008707012235 12.356310034500831 -0.2515590472930571 0.3387014467385199 -1.5887653759978186
Ni 2.569675613218607 0.38585381508178923 9.27528267859889 0.3646071108606882 -1.7403769016609447 0.9182401834772186
Ni 5.167413824438294 6.4632390545511385 0.3694730678534599 0.2917705865149362 -2.2159692800229647 0.3857181818076905
Ni 4.584555413838919 1.999269001929196 4.597930967195325 -1.4539814634149926 0.29354156237242995 1.317086675136751
Ni 8.30221877009675 7.225653884785905 7.769971581944152 2.3034865463093426 0.6568160704646236 -1.010648459307311
Ni 6.346346867537782 4.2215099426854765 5.28505477719418 -1.3966623179785493 -1.2479119159133023 0.8397024949816312
Ni 0.5054168762074898 1.8986138875367464 1.1805208317097229 -2.007395735152498 0.4118012520479875 1.9618632979383372
Ni 8.522786922222725 3.5480444303025056 8.536706781303405 0.03397584272481245 -1.0900400111627613 0.10874403687563854
Ni 7.677317117004784 8.200495306059363 2.7986957004235418 0.615575832867914 -0.41562268267660674 -0.2276387890320338
Ni 6.661952088509551 8.814381905915592 10.96494211144299 -0.7326713270320414 0.7218176721469891 1.09465179890316
Ni 6.302461642898746 0.5579778367562783 3.8906273217910985 0.7454407108825677 -1.6692499038071316 1.2974190215044945
Ni 0.7390667855375119 3.1412426732602787 6.26677692277568 -0.3454865879811534 1.2569421444363706 -0.4167264572637468
Ni 8.18215837379151 8.728342919855178 5.415591446957323 -0.5360768089003218 1.5973700869476941 -0.7253519105524927
P 7.962612521756811 6.502804831056762 12.552087869908883 1.004340257701096 -0.16661057017511952 2.0018850897469136
Ni 4.712131097301652 1.2547398183364036 2.2025989641376715 -0.340185230372898 0.7368485983381825 -0.1017966590235279
P 5.306796613459735 8.022237483837214 5.719625336085128 -0.23056444731926098 3.2097135073757688 -2.069843202954442
Ni 1.4309530403759991 1.1572437033251062 12.919112022498645 -1.19349760282848 -0.10324316166206735 -2.8027677836478695
P 5.562961070565747 7.035809994862622 2.3481523933497015 0.4451353474237431 -0.730771024685535 2.1604465643653117
P 9.18644387967588 0.9125778197682736 3.3763928770485796 -0.9746949240308377 -0.9861826129554628 -1.7991047545194565
P 4.441672858739234 8.62421566911668 10.33952746632324 1.1458748587441943 1.6903728018286759 -0.9418740208460746
Ni 3.941602335711799 2.977490460441379 11.608864072179141 -1.9892722860789096 -0.8028117926028691 0.06105290144726259
Ni 1.829263259723118 6.129692927473001 7.5629788382374725 -0.5616526004868972 -1.0801451206465527 2.0343218701193804
Ni 0.554755288991074 3.1243885366203132 3.389818163922939 -0.16485527804690964 -1.9275439558311773 1.8910255491901689
Ni 2.633270046824597 2.9778404370492035 0.6853251144328525 0.21952952966133807 0.27119893301117165 -0.24264143308845307
Ni 1.5168815075076263 5.316347290889049 5.520261161437948 0.4631009307632283 -0.6955373982942216 -1.7403743305577832
Ni 2.05462977534058 7.841465355985169 4.796607161510809 -0.5582530878870451 -0.3237787639904166 -0.715923161039425
Ni 5.67441020033636 1.8087988380761215 10.628315269224927 -0.5602492923814674 -1.2197228550735961 0.30253116746555
Ni 2.638243398619997 7.362872344785274 2.349324814985913 0.6303380787787531 1.3173743815804988 -0.4222766976580147
Ni 4.764507859635796 4.054515841288835 1.2064163377155102 0.875680455738137 -0.706591599225854 -0.9957175490290916
Ni 0.24679337293597559 5.196738180209687 9.932657555941596 -0.22063690379290388 -1.5474662601387155 0.5066219939743146
Ni 6.311745232916825 0.7057840101334095 6.419474479742695 -0.6764801245524543 -0.016264541487978443 0.33349984793292237
Ni 9.00685983030829 6.789951427865967 5.372146456051286 0.4956914631047399 -0.4262392818501885 0.6323988179625238
Ni 7.297979313766041 1.32043411158934 1.7796623644836655 0.7066304228835895 -1.3368605153295687 -0.5270830900421439
Ni 1.0686535719918666 7.235913725341599 9.75596726052607 1.306121434374499 2.0166488783196495 -1.1352058090661223
Ni 0.5560769111811478 6.525055975385809 0.7181464733092706 0.08011480317472008 1.1267533074233949 0.7866151282383486
Ni 3.105084563725577 7.052627291859658 11.043743949650027 -0.2633822651802303 0.5822710480681972 0.6946516532551584
Ni 3.567016846410882 0.22220659524523684 6.223399164217989 0.18932755215666106 0.2765727957285753 -0.08045496012295822
Ni 0.9005505973430654 8.773683310389906 1.6828247580897215 -1.0914001247350817 0.6252210692671619 0.3570223565348948
Ni 7.514384586241052 3.579717313310616 2.1354706877837284 1.711849226534897 0.9328044544446387 -0.7110853733311495
Ni 8.253774639645265 4.066783442384154 13.375437311530174 -0.007611236688354634 0.041360051004025546 -1.2279316161366336
Ni 8.241958324175824 8.565143301680212 0.05532577575060148 -0.45233315072376296 -0.04493311306726455 -0.45507986023096464
Ni 6.244172117874516 0.9129480581797089 12.919017160418104 -0.10362959846720862 0.5054434002851812 -0.9763054630510669
Ni 3.037262781093497 0.4965127345115779 11.44611113467469 0.07082874988710382 0.7865768188012454 1.2454729674545069
Ni 8.167514615727278 7.146374973202941 10.56248006433779 -0.45856036258039734 -0.1487761130968599 -0.509889866092309
Ni 7.075698118243873 1.6693055301258937 8.81762287350226 0.3111659603224125 -2.404252450075511 -0.05286753742299282
P 1.3917648702103962 3.9187985967388177 8.399268204437535 1.3547877892319506 0.5811857854238185 0.21319510280287796
Ni 8.619094958749566 1.1774870871145289 7.209245507825379 1.2594908790001533 -1.1840446849456963 -0.14109288551998928
P 8.152216954001057 1.7573891163688609 12.865610730064097 1.9048462571233453 0.4796544642465352 0.8332698519824101
Ni 0.6714549888701269 4.167604335169784 1.492788381032135 0.36739392957720596 1.829461255324127 -1.4504873342188052
P 0.5380696937175081 0.18156418017501622 9.037650403868254 -1.8187040168076225 -0.29632786686831547 -1.2951384530004342
P 4.580024137758666 2.092160161574383 0.15282649571726523 -0.8846551484329215 0.1120371058046135 -0.2645246063147896
P 1.6553248856343812 4.9397448311377765 3.2456802979904515 1.0182743512836852 0.8694205908713543 0.5037081627616293
Ni 4.067658383903716 8.638923896556038 3.8330552488129084 0.8867516259506342 -0.18160447248079045 0.03868816059881724
