# total energy = -340897.82110399095 ev
CRYSTAL
PRIMVEC
9.02715242422118 0.00000000000000 0.00000000000000

0.00000000000000 9.02715242422118 0.00000000000000

0.00000000000000 0.00000000000000 13.21215005140530

PRIMCOORD
 96 1
Ni 6.280984386462179 1.8052048219899948 11.295727383040708 0.8744671521563262 0.7825417294999232 0.8152091378259574
Ni 4.6337186246823965 0.2874371737412787 6.1748169485777336 -0.3775621283594594 -0.2624828932944125 -1.8394826441158707
Ni 2.6766409889648872 1.4245298008957674 4.712179023386275 0.36201492465347973 0.09975186067935725 1.8159724768090728
Ni 3.2246884446360187 4.53265965239997 4.941542719638738 0.6997331815431239 -0.3935700737519416 -0.8751880894827507
Ni 5.0236103684832205 4.553205451499104 2.6739274269221807 0.6893114719891676 -0.643050384139099 -0.787868026808843
Ni 7.235885605489176 6.116067337366366 2.5231775909661653 -0.1764247280520639 -0.6072770831942316 0.29006954466342943
Ni 5.119957167158551 4.269644537043049 11.601787572397766 0.3249614714446081 1.0213964418524344 -0.9944721066577646
Ni 5.666208219481384 7.728930620953357 12.282503477559374 -0.24990042864371156 0.79320049476535 0.3768663878440155
Ni 1.7886670786026428 6.517775623794943 0.5204740183476241 0.504905268393524 -0.10879340205633521 -0.5325024612855023
Ni 2.630864298617037 1.4484156464213858 0.32151738258967894 -0.19579464793824344 -0.6147507658634574 0.9278910763034213
Ni 0.4431943711912698 9.188828805359847 5.057677036602865 -0.03555784249995166 -0.9815309731160644 -1.0581526755358615
Ni 8.684328333368073 2.3325620441219286 1.3054499240695812 0.24755146879556075 0.03928825607666137 0.4046831529459676
Ni 6.8193637618015135 0.759666478246456 4.842438125873431 -0.16366100062849234 -0.24240874825235673 -0.6882565483620922
Ni 0.7639191697910963 7.294697504052821 2.6644814145419815 0.1913417543732124 -0.1967842655450224 -0.25485288755298047
Ni 7.575893304552825 3.7384236936393975 3.7958111075379084 0.022271409803690675 0.06426935150203124 -0.4154180228649684
Ni 7.454965569609066 3.8261766431309074 12.502420258716386 1.2673926503457336 -0.6513445058270911 -0.35160864171849127
Ni 7.84345810477177 8.864203374163036 6.886264891724004 -0.35466414071536334 0.07944991589721155 0.17263749309548976
Ni 6.894433562024885 0.5190143277877252 0.34959453502291044 -0.48545744408155744 0.8435825467623279 -0.00871295439296564
Ni 1.9104885016442978 6.564581409528251 9.158913724676797 -0.05872553886566661 -0.08350197447939813 0.43514789719372804
Ni 0.06666642395738621 4.840350145499253 1.3900767706489514 0.15236922976475695 -0.6278721337367638 0.03406377445292843
Ni 6.4410267732058255 1.9922293675681353 6.902595010603764 -0.3095952734011829 0.0025009120449827893 1.0761452554585402
Ni 3.43155467141798 4.350572959241525 0.38119047150220625 0.05291947370685079 0.1590813516776099 0.23472217824137642
Ni 5.887806759149894 5.662723738614836 4.695928343448551 0.5255162597756562 0.1810282882623463 0.47737235308057785
Ni 5.431574471597079 2.997321554517444 9.145688043543169 0.20657888303794097 -0.6456551687517977 -0.13841636712909064
P 0.3408436133855203 5.629214948519939 12.3191148999699 -0.5623231441913606 -0.5504299922982006 0.6321530205003048
P 4.080643045066529 6.164940341023093 12.525462065482879 -0.15021361687433485 -0.9498529252864932 -0.5774510009717346
P 2.3640216705984134 8.442445782023047 1.3546289481961933 -0.19679763528146108 0.10018740555487907 0.04079800785296845
P 6.226180543610317 7.6677987441961815 5.798402743465401 0.14017474458109408 0.35997115475057356 -0.984199521087163
P 4.66897868236307 1.0513924521423912 12.677005388143998 0.8405203628972363 -0.9927924049624965 -0.4575429770594765
P 3.863395592904953 6.112781453854906 8.206581633252444 0.3674173266159737 0.3129513343576094 -0.6869362868887718
P 4.7968482975824145 1.1015021756921672 3.8128020139809613 -0.5162199220753948 -0.7630908198641632 0.7552708095991121
P 0.19880949317212976 5.315449181785456 3.6312271603694937 0.028414032366318807 1.4735020499464235 -0.5223057232581585
Ni 1.630773154154952 1.069401621387897 2.586371269355258 -1.306201395682815 0.3254324975437557 -0.32716027886813975
Ni 1.5732070026368612 6.533338434711863 4.963989637055216 0.4052390254494376 0.24611885011409224 -0.6890625892031553
Ni 5.822414066410825 5.516826899844977 8.991132360091461 0.5631461543132882 0.7179597318534797 0.6779795919161162
Ni 8.536698281317445 2.5230349619566024 10.061937703693733 0.3104761333442395 0.013045006109416245 1.0477991002156792
Ni 2.255172265705025 5.249523887048649 6.947952841075427 0.03230128323586695 0.21703118871951654 0.6657059167550857
Ni 0.46046511936194745 0.10419500506231935 9.314486768215708 0.7613059600495985 0.626490680008205 -0.4829796719650263
Ni 1.4008154712677254 1.0044512591215236 11.447786156109805 -0.26394996475824223 1.1106895690923129 -0.31852394334938045
Ni 4.111615205307797 6.823272518835751 1.3960879515013738 0.12925784055827416 1.0261092739470716 0.3381646003984434
Ni 5.676336684590886 7.786993265859168 7.931464717248642 -0.44241203495530906 0.19866322773529013 0.7229720974664066
Ni 5.08942733738998 2.8690998803504435 5.007748758818419 0.17892178344230478 0.40647983983507413 -0.6935375942553733
Ni 0.7382378236324298 7.665271141495057 7.222408969515935 0.7279906337269204 -0.6810937120650656 -0.5881251928561291
Ni 5.003877013109448 4.641166025498206 6.87251112216889 0.23949208882619397 0.17862739213033751 -0.08702412870004368
Ni 8.184883066778548 7.200905389536126 9.103897743741092 -0.6060686647084271 -0.37513397853394104 0.2656062694147426
Ni 4.633204076989667 0.344124983320729 10.396760206359076 -0.29841765951780863 -0.0906900075874051 -0.46529408175980513
Ni 8.18135345014948 7.131486586780266 4.633223936725176 -0.5818810117186302 -0.05950766844732977 0.3341840184841406
Ni 7.394330186239611 6.212396081736689 6.858202182734779 -0.18870431675036534 -0.9110930309094761 0.6328251068666649
Ni 2.468131820427195 5.109196801373767 2.628187747899598 -1.3268129012855796 -0.0877293822971844 -0.31889263954270886
Ni 2.3931793731863755 5.281750821487975 11.392004672641757 0.4592473613450929 -0.10207973748158548 0.34140239060945077
Ni 1.0500203249617812 3.2651391150065012 3.799642231060612 0.23317308858670166 -0.10797193459630437 -0.21506969411777155
Ni 3.530934593334659 2.6657903516550636 2.9294247296737606 0.4289109151450806 0.8602080711341508 -0.7674131013886009
Ni 1.3582705015163121 3.3781229557467274 8.157366500515815 -1.2046183953319898 -0.15178044714082248 0.6018350862430538
Ni 3.6842517514628152 2.6852438653012114 7.026855570252002 -0.17180574122281378 -0.12186540474894494 0.06281770665716924
Ni 3.9487382926778913 6.836768111829251 5.8668285594458185 0.2924097627608319 0.35236428893759314 -0.04721496712290578
Ni 0.9874170223464511 7.523996204807254 11.420226259515054 -0.8875957191184843 -0.5233066537188471 0.2710786053832235
P 0.2945225857416785 5.5944604113794885 7.970929622565686 -0.25409132679660756 -0.03919646769380346 -0.09366605949659353
P 8.456139972371634 1.6958589237088855 8.009944975688029 1.1060497563274565 -0.29342971938491397 -0.33000134786136076
P 1.8890399872947632 3.14616124500361 10.406496893049905 -1.0414908986094644 0.4497116539405158 0.23158491816397533
P 4.014744831787234 6.2549049428780865 3.540394146443614 0.09346114257463903 -0.01838107361034899 1.6439937003435041
P 6.945996657127807 4.191812428153448 10.289345215998576 0.3950101486325778 -0.7274303903480763 0.039374645142880575
P 6.280505947379467 7.803521982094017 10.154436227256602 0.3381720565976111 -0.6623364860622206 -0.38801314848945434
P 2.3371658918989753 8.420979213368502 5.781465097222121 0.4923536569807585 0.5879940665949035 0.8569731091366208
P 6.944173172321997 3.832242889613604 1.5346700885972298 0.30388613883154764 1.2425997596717697 0.40134483260135395
Ni 5.364060398019566 2.8578430211779398 0.4769351591055191 -0.7498637796509279 -0.30948651573746055 -0.13270209035313274
Ni 1.5664276111063475 1.0928902722033387 7.081342560050974 -0.227853219035685 0.2138191095401221 0.13653251984281647
Ni 6.929630429638031 0.6861592781215285 9.1372061310504 -1.2466664735419757 -0.03576430208380292 0.13714109996109286
Ni 2.8923538252007814 1.682182787665306 9.171729573086745 -0.03303070520272376 -1.1237294329954068 0.45582470881678916
Ni 6.364530682886819 1.9282268563146834 2.548848104541827 1.0523034158439362 -0.08387658420999748 0.212129380542525
Ni 4.108934141014106 6.931715701866458 10.404423356119732 0.4570686085262193 -0.5707687038555526 -0.7059930464099067
Ni 8.256937798065579 6.9954744800023025 0.4262901254122551 -0.5285658452352574 0.4204008207915405 -0.16518026548649614
Ni 7.825259365323679 3.872720641441598 8.03786234752194 -0.2879036473603622 0.4269324512624712 -0.09018324315431565
Ni 3.2208248233643015 8.274423392465852 12.275223981780139 -0.10300944838470648 0.3219609940553875 1.5566016467810804
Ni 0.2643339823377583 5.011902151685516 10.221368952212858 -0.7624575571555385 -0.9863173387611143 -0.6716904164732949
Ni 8.668810658213676 2.2525273100213496 5.818300393014746 0.04249956392510745 0.999823343667349 0.0207598582551707
Ni 3.5264932343026847 2.640342808746251 11.788778717511642 -0.1299846914219697 0.43472006562769006 -1.6484507076735933
Ni 1.0914278734976888 3.438063248373373 12.494637950542677 -0.5339803313826094 -0.23574599152020043 0.3519482844460971
Ni 3.178415260900448 8.31565039795168 8.0020046923455 0.1913471536898511 0.1993869932751921 0.25486111508309656
Ni 5.535702675730868 7.966272514588866 3.579369780094941 -0.27249296923224686 -0.2226071401453973 0.079462771413018
Ni 2.9417865123127562 8.335528187765517 3.599835237536788 1.0126842587904175 -1.2979224435034744 -0.30028196642005706
Ni 3.4294784263420572 4.261538154094445 9.344491217708546 0.29792349349020947 0.33412154067732136 -0.35533314175792996
Ni 7.287764650929739 6.144304270398919 11.369305897670417 0.3700838177045433 -0.380908419123873 -0.46260727895626136
Ni 0.4277146100773883 0.05015485931229609 0.38103430176388686 0.22115112442516108 -0.09317960677847822 0.14688198139794056
Ni 4.557412104565974 0.46939387590366666 1.724001071640146 -0.25420548377696867 -0.7337894997968847 -0.8487679476180091
Ni 6.063050870710298 5.565374926011559 0.2746050764568243 -0.33338054874623874 0.2548577726489869 1.0304346407953027
Ni 7.933937254319492 8.736324731791187 11.269805914625435 0.06362606149107752 0.39463425335039776 0.6098217039929562
Ni 9.061636226578303 4.811688936299012 5.774793128806405 -0.33594111038456337 -1.0195534751064248 0.3153185490382053
Ni 7.797509898526343 8.622447202953065 2.6737559110246045 0.23876626640376297 0.82502406703385 -0.4349635490970638
P 8.592982577179967 1.507552522475175 3.5430625727238003 -0.6394302708880085 0.1251618161120296 -0.13278667964713906
P 1.9372088730561765 3.1565605246882327 1.5332176197593341 -1.073695508366467 0.2438441951473026 -0.12015922069111565
P 4.767157992996715 1.032543757714012 8.124137552148543 0.4734012842479718 0.5028915803976048 1.4001600467191628
P 8.423822766407268 1.6610682779584194 12.352197608466605 -0.07310700439831927 0.02658212136390261 -0.4128065533840503
P 6.2267221727605575 7.761013120952619 1.3039757900656759 0.42342752343300627 -1.0023252841535963 0.7173532086177323
P 1.8108016565424825 3.125985559157141 5.977375069009962 -0.01989725314455928 -0.03098462130697244 -0.338921533169126
P 6.881434462419106 3.8820366628257394 5.890214300722715 0.03836985802745004 1.0469516646137196 0.2907218335354477
P 2.4596733785309355 8.506935759511714 10.24544075708006 0.1410951995128344 0.7518319591208924 -1.534424853573725
