# total energy = -340895.1031181793 ev
CRYSTAL
PRIMVEC
9.04676049081486 0.00000000000000 0.00000000000000

0.00000000000000 9.04676049081486 0.00000000000000

0.00000000000000 0.00000000000000 13.24084843887552

PRIMCOORD
 96 1
Ni 6.466678783384844 2.03545781584109 11.409414453417272 -0.3817849081915554 -0.4576213957058958 0.6774962245217946
Ni 4.486885685738854 0.26176078160257993 6.0846467471791525 0.2339984127014744 -1.2790562027265908 -0.13090643190529067
Ni 2.7220888546143276 1.5350362512446363 4.806334945890874 0.5370018918177526 -0.5768408781915614 -0.03805181256639899
Ni 3.3707415922364143 3.9428315945935677 4.796126581188882 0.4853476579765706 1.3680760217004244 -0.4066346202453836
Ni 5.149615182911011 4.5835774634195365 2.616789084188215 0.09921604278054524 0.25057045812754264 0.8043061177602083
Ni 7.282995135879316 6.517530624921438 2.5520812240610775 -0.010272328460285534 -1.365985457719983 0.1089813496974252
Ni 5.142214932710524 4.531748571734222 11.46873315823337 -0.04673597060395822 0.2511751815910771 0.3573884816250619
Ni 5.781513319834685 7.75826670590688 12.471833454205033 0.1544011725931212 0.7990996338586045 -0.7180360936173698
Ni 1.8962553099304755 6.597232586127164 0.46956396874212764 -0.84085949140421 -0.9922419317756653 -1.4434224569522238
Ni 2.715548046674289 1.6687926072522032 0.43720461062217725 -0.14275716059628962 -0.2301070480668682 -0.31952847335449486
Ni 0.5938899814624246 9.175405572539368 4.702937709226573 -0.9144532056309606 -1.2349278449488086 1.204894531811512
Ni 8.71621914292313 2.387168729098187 1.3230670308320764 -0.014128726091898245 0.6802655597368156 0.7047548031274314
Ni 6.852685966214121 0.5707375116420279 4.7100213228047885 0.08169011808163996 0.2377974747325904 0.3183974450738452
Ni 0.6498604801670316 7.483199948760444 2.4678160767904056 0.050914013241047794 -0.2501603671733175 0.6628409365024649
Ni 7.603449491138028 3.879685205352254 3.830008538022315 0.9233631065260808 0.552184770205778 -0.2623437966133869
Ni 7.543143784736509 3.9284834322244095 12.588511335483407 0.6650070909158483 0.2718481365593963 0.21182059105285453
Ni 7.860124183910885 8.695764417124476 6.790940015519306 -0.035512333973996904 1.2564572343801523 0.9424859433984607
Ni 6.7826911791711355 0.8860135011125253 0.6231671082335904 -0.3846002661531634 -0.3123903196478169 -1.8668612932391397
Ni 2.0478609246734454 6.2082942528517275 9.22721637070341 0.4273703101308382 1.396921228066891 -0.7218788644022277
Ni 0.15970065616032317 5.11717349926927 1.408322798392422 -1.0460664337952887 -1.1503241527647994 -0.07433779148162681
Ni 6.312160111716988 1.8250934907654082 6.8076104813438 0.31369566872280163 0.38684483921296603 1.251119881327639
Ni 3.4106830404456403 4.702397617616586 0.7722622468999893 0.2228349398854872 -1.1026463870728622 -0.8269955889379242
Ni 6.139122721026644 5.634711534989586 4.846852672752631 -0.960279777046772 0.33690681673194234 -0.8051178150282262
Ni 5.311072719986901 2.9903705412835464 9.41924834002571 -0.029482839950465356 -0.3886451256464984 -0.6773751255628979
P 0.29185844956345747 5.57315737562026 12.419307057274661 -0.13672792368307418 0.03926074527283561 -0.21261274793684673
P 4.0435039469542176 6.205951141846928 12.56216264513021 0.46549539913733373 -0.3395018311526282 0.08928644237165913
P 2.3512440426114742 8.426876597492626 1.338133505995756 0.008741493638055911 2.073507024959274 1.095531373294636
P 6.261842029057936 7.6505921608137415 5.850826885801759 -1.0281692417998938 0.19953611725854667 -0.3269365928931079
P 4.851262063886759 1.1728582359313502 12.70812941396858 -0.7851344299277639 -0.03724654305628424 -0.19505442733810924
P 4.001671725772006 6.0415986413674245 8.186287045131095 0.6768403361053504 0.4731814549276818 1.1733794919223663
P 4.798872273041996 0.9828038884841424 3.9721087213647337 -0.32686768732838545 0.8524137719007127 -0.7075956150103362
P 0.15326750467185643 5.596678953274618 3.684848740232703 -0.13427329149499456 0.0683995716203209 -0.2609829117101183
Ni 1.4922450734349786 0.9390989878502191 2.7933293805969304 -0.08514362384787917 1.6276391702448807 -2.141167147310409
Ni 1.933446542906269 6.3584795261748 4.834882903754753 -0.5834267589391952 0.5750830149601902 0.5898948831620421
Ni 6.053422757519057 5.679827730282771 9.18459436731765 -0.4616343735200308 -0.5221961942634877 -0.1914227441227929
Ni 8.631179592941994 2.2822624927597532 10.214983312072622 0.3993020911397123 0.7703942955041119 -0.5478228936926566
Ni 2.5148728022400753 5.047160618705011 6.965321754840202 -1.9964325512727743 -0.4363018082925131 -0.6558665620671608
Ni 0.6389274699380735 -0.04914019442420712 9.126930315021928 0.999579345977343 0.8858656238012551 -0.12973169487089914
Ni 1.4988582554601073 1.217386391783176 11.452381138383274 -0.1035205836931701 -0.8144239229205005 -0.1319641837458437
Ni 4.052550707590509 6.945858554007286 1.5717814789210607 -0.17042685859741616 0.05108602004253783 0.9378983240277784
Ni 5.55749743295884 7.6911487887462355 7.961907478477671 -0.3001282144510122 1.0297838945851814 0.23607920648990313
Ni 5.507034602129607 2.96794362166618 4.790671384525198 -0.5562419709942872 -0.46154901289507605 -0.5068875889308754
Ni 0.7179373539551236 7.466834358769392 6.91597348492136 0.4152501298285365 -0.9873581213208027 0.12499006642085568
Ni 4.947673391987716 4.43091337768212 6.905539855879526 0.9671839603657729 -0.02549994404331737 0.48666252013325223
Ni 8.27565094669638 7.248246528275322 9.085923158409749 -0.999377514379182 -0.8598216343290095 -0.20824598632771876
Ni 4.647836604219113 0.4051727452372606 10.440210560197666 -0.5817149184544111 -0.2778881721058892 0.6327196916370522
Ni 8.126913155075115 7.225294896541051 4.783388742212983 0.7688050966401211 0.014145438262446606 -0.4303026532862847
Ni 7.376267238039481 6.124819792460668 6.952729568710549 0.11475784716988624 -0.7501761686850241 0.8643208077509436
Ni 2.200633571538497 5.253815771919814 2.729230367460616 0.4620228672077011 0.1761655608534063 0.05567235386163961
Ni 2.5440214650102058 5.069207574375653 11.417134054268217 -0.5873602896656465 -0.05256748968407076 0.25652847548319047
Ni 1.0200946358269352 3.349545032065584 3.83437721873358 -0.4264837937608268 -0.2522231632396172 -0.5743240253069787
Ni 3.5615287272951615 2.629649054432703 2.6760417476516682 0.07366184846052475 0.6336234343982443 0.5732351631181741
Ni 0.9523796324642948 3.260208270782207 8.02501315729612 0.11380113968357176 0.24811171217440497 0.36185680180906066
Ni 3.762004942995377 2.383758100338305 7.033869964857445 -1.1691667393925995 1.7183176078680602 -1.8348184058709818
Ni 4.079193417664387 6.587525411964424 6.076384340690027 0.7938728382420264 1.9383932398408554 -0.6133849958641823
Ni 0.9955688677419495 7.333150376846917 11.177871661692032 0.15647913816807243 -0.02534207830921442 0.4802185642801214
P 0.3206732868661089 5.593992065365638 7.952665307811636 0.04499867619787734 -0.5595103573329139 0.04819378609640732
P 8.295246230234588 1.4130587775855206 8.052554210701183 1.3558897640468777 1.144960317349725 -0.6342782943734238
P 1.8192130963518187 3.235049229452681 10.372814907485486 -1.130128394543215 -0.08414500738003572 -0.09029405770056709
P 3.96011995416952 6.007058109258064 3.949718893465976 0.2384021981961249 -0.06439430711566975 -1.1068357425638615
P 6.997370809070328 3.978159194878285 10.379739298076503 0.3785843989763867 0.5095648786527224 -0.29345157376178493
P 6.362378680009042 7.833092463129646 10.167078000475268 -0.24259001102522734 -0.7540415651777014 0.30091497201836565
P 2.3390309157524807 8.396687557249322 5.837652088287128 0.8839858902800389 -0.24563676827135114 -1.0363080688569444
P 7.019472045304788 3.9716183869382466 1.5117743156205405 -0.2613420948217499 0.6774437740173042 0.3187373449117672
Ni 5.154075235904702 3.113261737766927 0.6151290614082456 0.3810308036343502 -0.7289686813694735 -0.7320403783162619
Ni 1.4250728757105156 0.9541347040277353 6.934139380279033 -0.37198797670579165 0.8109673318304678 0.3858091988596001
Ni 6.685510876416094 0.7907583490208868 9.280736101951645 0.013377963968802767 -0.32995172557034785 -0.7378009349491229
Ni 2.6619731301861718 1.683810229908447 8.998136107223369 -0.29026700538621625 -1.1783383785895385 1.2240356235163372
Ni 6.49866812899477 2.130521176607239 2.659477128926619 -0.4053377558108309 -0.49532508090425664 0.13484536194838065
Ni 4.171325627984378 6.929366309367326 10.44150786567291 0.12024766663986389 0.3678173902678698 -0.3377593945402248
Ni 8.148779175533031 7.165152031830987 0.25880791893089444 -0.03485156046154644 0.3267995530946114 -0.24035906481217956
Ni 7.6154635892630225 3.808152469001099 8.196734244313884 -0.08977392353103893 -0.15685477633993633 -0.18588304525148633
Ni 3.3557782501439886 8.300050060132458 12.64383227677433 -0.07383848324770509 1.1447623424063058 -1.0528873133718641
Ni 0.2669590502641929 5.04431088910458 10.092188011251984 -0.7507664939708555 -1.7010899311358638 0.7461631908708891
Ni 8.634753063393328 2.309592756641989 5.9772237020317025 -0.2703016180078829 0.07616738849119786 -0.5452250510584933
Ni 3.6330795571675893 2.559292396964265 11.333782629821812 0.6210872496044465 0.3249203337940275 0.4311752856992252
Ni 0.9787328461978113 3.2977704209440883 12.659787143832494 0.2049590880463309 0.659258104247213 -0.24511971942561656
Ni 2.9370489340932453 8.200345711159892 7.9212848091925325 0.8882094414430833 0.14575840931645864 1.039698325485416
Ni 5.434027243794736 7.844554708855828 3.7593551468050075 -0.7017106169844688 -0.33536621171769987 -0.08702952801668239
Ni 2.933059312652641 8.341574691453035 3.572592915553346 0.846104541853233 -0.7444310386711308 0.3263041015154316
Ni 3.3017962294272385 4.098490158101596 8.979387600480718 0.18396757339632833 -0.22527800210934104 0.7017653814818043
Ni 7.389403134483375 6.089374584287679 11.201917046787232 0.050125713011797544 0.1597945756945506 1.062874506491563
Ni 0.4483366495851337 0.22433704687843367 0.6291497310423699 -0.06621541948480854 -0.608941615380848 -0.6672750610144186
Ni 4.529758284394238 0.7336352930112163 1.7249784188599542 0.012092412388159819 -1.5849503731271026 0.22758145343153707
Ni 6.035844901602743 5.769191631848057 0.4870513570520787 -0.20555661242101372 -0.797551315534878 -0.07790314023538196
Ni 8.163597769455277 8.832623812030292 11.06983976955376 -0.44114653797932407 -0.873534870150044 0.0862337715882644
Ni 0.10949022995284279 4.764313647411363 5.841557574853814 -0.03434453891814085 0.08069021606221587 0.06850267285708847
Ni 7.7058226344983005 8.887302433316036 2.4874520707514765 0.665070340053616 0.015017813565070912 0.5221663694668168
P 8.515191074824102 1.6298824897555142 3.6206176443910985 -0.30807163766780493 0.7683289283346509 -0.18660809634296896
P 1.7960895761654583 3.3143169461478657 1.6444604398448341 -0.4863059081247818 -0.13791757311580116 -0.7169716569085975
P 4.6926542564113 1.1130229610829194 8.29398782583008 1.1609194117821426 -1.4168411069192695 0.2353389858897689
P 8.416463776000255 1.4052876101989464 12.335572050177277 0.5344881242569633 1.620423112112416 1.3463823387770748
P 5.8949054176499605 7.96910146253565 1.4909857643544067 2.5072338734357595 0.040504902092581854 -0.1740585418127325
P 1.7747935016276284 3.1510138699021706 5.894229624630429 -0.6820730452591995 -0.5617523592895551 1.662936045773962
P 6.931582765723217 4.0124916514930105 6.020388511055639 0.6698675043319431 -0.548225528447714 0.7672328670569948
P 2.5498294853387047 8.710745852738174 10.219021786020662 -0.2855024941180373 -0.720143626878676 0.2690474338858076
