# total energy = -381174.3483997752 ev
CRYSTAL
PRIMVEC
9.15419829106434 0.00000000000000 0.00000000000000
0.00000000000000 9.15419829106434 0.00000000000000
0.00000000000000 0.00000000000000 13.39809451951793
PRIMCOORD
 96 1
Ni 7.6559033074803695 4.707757087416587 10.552567231013084 0.648168936312587 0.6261404957576379 0.30009658988212834
Ni 7.778679416777243 6.579570964883602 2.664934544563055 1.5484957298444944 0.6561380705609926 -1.3592142004344203
Ni 6.070881312518705 2.36528009784856 2.7299559005669893 0.9395646559866077 0.8548414075055988 0.45452681594097205
Ni 8.052701192477558 4.429176520899851 1.496326050986989 1.0517136047787372 -0.3251818149855303 0.17731792929029463
Ni 1.1552964582241787 8.45036872632527 12.474684344253827 0.024074524450700473 -0.59321366312263 1.6801562663069902
Ni 6.524050751426582 2.7480537508562763 0.4314483568813619 0.147018764086121 -1.9348088649237065 -0.9831289137308037
Ni 0.2817891130652418 7.8017388426137195 7.194777039300137 -1.0808601444357064 0.43697338043824097 -1.2847378264924003
Ni 3.7102881642645382 3.8049517301934808 10.138619870683597 0.37744797137909836 -0.26333187155826904 2.0484061161265883
Ni 1.6087588314817054 3.375226193455995 0.014933243893229236 0.5657558240219934 0.18525569608013256 0.5359361695573996
Ni 2.0799895038851637 2.6102189851477293 2.3880493355949155 -0.6192903056050237 -0.002203435409222012 -0.12777225715168317
Ni 3.5937460640961443 2.8048921688867186 8.215443616684903 -0.8272416435104593 -0.7077750780109939 -1.7933994766045631
Ni 6.276136749638786 1.685571710478877 8.615283441819233 0.3525643207635412 -0.6577812625913705 0.38590252990435475
Ni 2.5172489459276983 6.743110719773898 7.5454185404108225 -0.36104973252673306 -1.6070484905777227 -0.15680181161481382
Ni 4.677136293679782 1.0692378388161923 12.265299448223532 -0.26640022607094765 0.5464663796647621 0.08904784399829181
Ni 2.4999566650999476 5.107438544918139 12.048544507040022 0.2928725613298634 -0.6979493501698238 1.254847209580555
Ni 0.4018253707730497 5.398761755644632 6.806164838535967 -0.6090868827094607 -0.9405041370817415 0.6364506194343942
Ni 4.455723696336842 6.326109518849316 0.1623249927590932 1.1257240948279323 -2.1096145693151085 -1.0515570245962147
Ni 5.5764264387070925 7.069091725743305 9.272044084573244 1.2583192272895554 -0.9867510838644231 -2.460329495574737
Ni 2.802118446763474 4.573025594974641 3.8108470339801785 -1.683562720885378 -0.38522581555230434 -0.6878379727674349
Ni 2.0212378583835724 0.8509102063430007 0.42486923447220126 0.7675375427816072 1.2131436591941818 0.26707539776110134
Ni 7.400803259927731 9.052586824014217 1.9035075432594122 -0.1546955639050884 -0.34656773686047404 -0.3035855768719933
Ni 5.325592247621226 3.1200254497206648 6.848436180610243 0.9408028992690829 -0.5976105066387449 -0.12069915235498567
Ni 4.050989121303836 8.532509348806693 0.4603921014664243 -0.8882485222111347 0.7690668349419401 -1.804181140601099
Ni 0.9495650027859184 4.011104278759362 10.859437016927385 -0.8614997933623808 1.1472095183952178 -0.2818397005544695
P 7.615029811505829 8.637553775751343 9.421566930832808 -1.6249233139756145 -2.306853920119679 -0.9003920995522041
Ni 4.815794937246717 7.075801753189965 6.88632632331757 0.46896947372886333 0.8490278861476152 -0.8658657836405605
P 2.9042609928069067 7.080214076831561 11.939805445610416 0.8865968455403247 2.6234950446240495 -0.4679700859300715
Ni 4.522183176913588 3.347754443977922 4.384580012425232 1.244441955086831 -1.417785987331042 0.11411378582798412
P 1.2463898867667667 2.7385700012863716 7.168101705085172 0.4148282117997694 0.520275323091691 -0.35569849551714866
P 8.060509723735406 0.8027801772757346 12.655170351271352 0.534489409808544 0.13364234277921502 0.8245751524218896
P 3.9723545568197802 5.949057239858193 4.9002991737618755 1.0715566076465932 0.9311062408066093 0.39267635829307856
Ni 9.186970456915953 9.05214742248974 10.707275015261445 -0.5096134725024708 0.007482167309658083 0.33043740695751483
Ni 6.3892826421909295 8.469867168973819 13.000921679582575 -0.6590560155387359 -0.18034514615239264 1.0281851826394937
Ni 4.2065006441740485 8.204752428342536 4.796423737956297 -0.4970276654176601 0.8575526357891747 -0.5176736238027859
Ni 4.423272062914727 3.779338282995997 12.680546704729588 -0.4908423625425547 -0.8631098181619781 0.7093593917789783
Ni 4.17522074815053 5.329601786532055 8.179214960991994 1.791995911388817 -2.3065862682805887 0.5665091572482501
Ni 6.943404581346789 4.954682435774318 13.065392868261073 -1.6548494121110855 2.0467305281963784 -1.824767192282567
Ni 8.185208214701854 2.287625032596146 9.921195757595106 0.4117817116639618 1.3417646374994052 2.6801716713804873
Ni 7.346564634250429 7.115476049170628 11.12568413190403 -0.33510395919524866 0.023352558683011393 -0.07657465123194554
Ni 0.32749511038915785 5.0286941300529655 4.403524626068975 -0.4764678389884375 0.8609727172143171 -2.1300430123727896
Ni 1.8407994531978669 0.8431886399702068 4.017847261320358 1.724953882237655 0.21511288865088116 0.2707214791541208
Ni 2.083934963407006 0.6446413994571022 7.8219412431212705 0.6017530680522089 1.3409845648002712 1.0934184407166911
Ni 8.977156228979453 0.7986360716480359 8.607700103842681 0.759415427895105 -0.4470647032359719 -3.571902495713268
Ni 1.8608654561488622 6.442065750318411 5.234810061825141 0.6518489562673354 0.8726684083846905 -0.5149539108787777
Ni 8.355924861158565 7.414369781995877 0.17785966748894672 0.7169749993427071 -0.1678408430377948 0.15615646472133105
Ni 6.307883509782056 2.774335454538898 11.329214918040549 -0.8080218760488986 1.2403780694301025 -0.2345188039813187
Ni 4.444958358987221 1.2810751446049606 9.715829554674066 -1.4555472652402157 -1.2896190658441016 1.282468313731933
Ni 8.82450997021675 1.7725640581263715 1.1590194707242558 -0.19081056446009073 0.9578673109505375 -0.8665296424768044
Ni 6.123545416066642 7.128081380403986 4.0860570246362595 -1.4385797841479417 -0.1451961090550854 -0.35419234328526744
Ni 0.49152553031511714 8.241552306017262 4.431808352947484 -1.5461318575980083 -0.5041992434654349 0.48423668430057887
Ni 8.903327618669335 6.418054287845573 9.106792494577183 -0.8235955621174397 -0.4095057711455915 -1.1193665280410205
Ni 6.85178020929546 8.262076018889585 7.4233079413395595 -0.1084301051796455 -0.4173185823217909 0.8293424919035458
Ni 0.5721721876133277 8.928181267397417 1.8528491245867336 0.7010701551869927 -1.4354314683269473 0.5975711687603773
Ni 5.246481664818991 5.3836481740424 11.206367405995946 0.7272195598888509 0.623003749900869 -0.7361384596450354
Ni 5.7417787248858465 4.988873366897478 5.663722705742348 0.31442560491029076 1.297004045454263 -0.21983060584152464
Ni 1.5639490301837484 7.917493681717431 9.139710992119053 -0.5847686176790704 0.5631536105124559 0.8154428511033184
P 3.8745694092273855 8.376357032046622 8.626041455810114 -0.2532153519495574 0.13120262298947083 0.2405552399833857
Ni 6.670105987322171 0.5149026068369951 11.013287052783179 -0.20069877010808015 0.03325361984680724 -0.7939710543827875
P 4.162825963480984 1.1218470171735688 3.7933890621609065 -0.916047546701274 0.9027683130938646 1.143425111652121
Ni 7.191208732753467 1.29510853079286 6.500929992460648 -0.5475333874766958 0.49760693495989783 -0.8519404318087199
P 2.944933096416064 2.18339532931146 11.605402577088585 0.294011560030313 0.4120318800015549 -0.13998139762336537
P 6.17206266772735 4.020633799321399 9.249079862400404 -1.3151791737013931 0.0031673419843880933 -0.5792160632919573
P 7.485580291556001 8.539402460221885 5.4217131619396755 1.3530342968759534 -0.34446894534991646 -0.38091253288893107
Ni 7.7182891697573 3.254399928423976 7.903388892781805 1.284403583081433 1.304388253733476 -0.6162121809003324
Ni 5.4587217553385265 4.313220289430755 1.6090307111749738 -0.919754563239216 1.2239155529987051 -0.1493972916206266
Ni 2.5487302343166003 9.128090652636391 10.744093201333026 1.2737155072399677 0.9569951927582294 0.48518567847740957
Ni 6.397741121537061 0.5411980418172568 4.062087671476183 -0.22480414779671606 -0.20140376659490472 1.198288339348904
Ni 8.695710398355207 1.3176278589221704 3.4890513275313895 -0.40759261328327867 -0.09818014531686317 0.8743594229338685
Ni 8.473556310939719 3.3630144927549788 12.58579525849575 -0.08448953520364803 0.21944751147049302 -0.24882647885324247
Ni 2.751687967631616 5.977938735893955 9.914496715186559 0.4129070835176566 1.4236912970718836 0.5087979185797108
Ni 0.33428294852244383 1.2108807510701836 5.97411685805087 0.2149642788881588 -0.627698327163061 0.33077884945733355
Ni 4.877164683498301 7.913191208456953 11.064146863821243 -1.809221274128168 1.0253276585860407 2.775315600974188
Ni 6.814824710247482 4.600204410103064 3.468164192981533 0.18292267707158175 -0.3154980120388631 1.6988682408941969
Ni 7.945404832719978 6.389419955167328 5.228191576362746 -0.38263182957288294 0.45765713403983765 1.4255944276318673
Ni 7.884117474254234 3.7431242740205692 5.674910051639434 -0.03651197888310486 -0.15032597408248305 -0.741950181230806
Ni 4.59323806510046 0.5772948770528246 7.037469462698635 0.46351976346820173 -0.3487665442840058 0.40551541903927585
Ni 2.764192602682282 4.470745735954809 6.25475345753421 0.46543446399241134 -0.24662381477496884 0.4220779513836473
Ni 1.384480970031257 5.2155404741372555 1.8747020270705907 -0.9549002579024135 -3.400798922763802 -0.5001155603143644
Ni 5.149438007299145 0.40070947398485335 2.1085515183958385 0.043400992693454286 -1.578374776792114 -0.37311437700075095
Ni 1.2744658133409923 3.075590970558196 4.672196688208815 -0.13938952967563736 -1.5829557112945771 1.0564344072931742
Ni 2.9606233925191687 8.496634045173048 2.509972273598435 -0.6365647764147554 0.13750156862430513 0.48061554260822387
Ni 3.918811650222896 6.138027357977442 2.6203728220424574 0.9038114096463983 0.984985250213252 -0.8379677716787116
Ni 1.8319381891209676 4.425505687330804 8.53386325475398 -0.6180348359313679 1.7593549854253445 -0.9511451617353555
Ni 0.806784223667507 1.8760065003463742 11.704147084676082 0.5842965631386582 -1.5573935465547564 0.11339979048009502
Ni 7.121490357536871 5.717272935697975 7.5653682850418 -0.3883646182916022 -0.4396977213479395 0.24490786052512659
Ni 3.1300309886008826 2.0810880076963496 5.963224277343119 -0.5094257819716969 -0.7435967156952935 -0.8115309176434217
Ni 2.22872691991973 6.916363079194762 0.6563752510002526 -0.7592148818485247 1.1036228920535187 -0.06662088245334333
Ni 0.6541013481110978 6.582198219832022 11.120552288266108 0.15350077226603887 -0.761460997570224 1.5779592865212502
P 8.945180613875518 3.3797209048834307 3.0649217522920535 -0.11538185390713034 -0.20085432184933796 0.3159386991207075
Ni 2.3803662168555126 8.472869746057727 6.188445936651345 0.19095428912680662 1.0551300866594537 -2.0769448469962297
P 1.1088663638047225 6.9725973201290525 2.7761791101020052 -0.14409310579889378 2.1110438455624676 1.337039206999278
Ni 4.0686567242670755 2.0520234276920566 1.06578212891017 -0.12516824386993283 0.8763180893221358 -0.3252337512693883
P 3.316849870089893 4.213759923526302 1.3518947698922708 0.12937662552432558 0.06912873647686159 -0.05201033162902011
P 5.637841955950809 7.388646484417274 1.6448977760300352 1.1501883985178836 0.045749952541605084 0.5260055407072489
P 0.13745303563415984 5.521208313798149 13.257722577202866 0.03059252807487635 -1.1668936270877064 -0.6604924908749464
Ni 1.4724619711088185 2.4499747416909905 9.332080979533922 -0.14949396509949095 -2.663681129924632 1.1628731930744038
