# total energy = -340856.8496865839 ev
CRYSTAL
PRIMVEC
9.40960070682101 0.00000000000000 0.00000000000000

0.00000000000000 9.40960070682101 0.00000000000000

0.00000000000000 0.00000000000000 13.77190177145066

PRIMCOORD
 96 1
Ni 6.6397622781716725 2.6821219402218586 11.951063041321182 -1.0360144488759255 -0.3975334292750638 0.49093312248414805
Ni 7.124300247059603 9.125449398055155 0.06285801335621914 0.9239092088375378 0.18000190388036097 0.8781561709721392
Ni 1.701905035436963 7.48889403819062 7.971273444720548 -0.435381867581405 -1.0680478231623862 0.36842339928298484
Ni 2.7927600230700405 6.850960761717126 10.29672730032466 0.04452507899556848 0.871757466534647 0.3524324231713672
Ni 4.1979615350873 6.203862534342618 13.183772461508926 3.2383864498304287 -0.21219468656282162 -3.766266324742255
Ni 7.895191178801409 8.605935944055242 9.618599033333853 -1.0858007762704331 1.3823518148931484 2.1567865990152213
Ni 1.5698789306195755 4.790192381862409 10.425935229787987 0.17134782774978877 -1.4032859939426543 -1.478579721579647
Ni 4.2368608236137835 6.3568344099050345 7.964593569315385 0.2962715597090833 -0.7662293654931449 1.3762894107491523
Ni 1.8710331950825847 0.39532931025121665 11.769852954615086 1.3902319889721735 0.19987473154488802 1.0588949530185248
Ni 8.409632858124064 1.7250808815039023 13.306053043073561 -1.1839927486618382 0.6011989953209518 1.4353538210114762
Ni 6.362273159002352 6.887996949341759 3.6311413145012987 0.16925237867334075 0.0855935669011042 -0.3388829666217067
Ni 3.685731111885525 5.70820241764668 5.878535947118196 -0.5202262150213105 0.670091190306975 -1.4326253663367197
Ni 8.198726072194557 4.997109497173815 12.225192933106866 -1.361830812121661 -0.7437342697144224 -0.020191644456526516
Ni 3.1544086092400545 0.47012151993983486 0.9843420736504038 -0.06811057962499237 0.44553104020026496 -0.3608080488295721
Ni 8.260641243579235 5.647472855926816 0.874793622541788 2.242155708610345 -0.4715045814458912 0.37345247706646006
Ni 6.6255820101964895 7.6571188761868605 5.888300289571977 -0.021159407686434525 2.0807894175533 -0.009904403597905523
Ni 2.2757683420079844 7.338519212370175 12.994670542851413 0.13611702957195268 1.9567925682836496 0.4390760286035406
Ni 4.6821983967587695 3.4116200393008684 4.988981484249487 0.7237166889419149 0.03834851787121138 -0.43549705300303065
Ni -9.033216493813116e-05 9.06013736088478 5.510675142688583 0.3842824778024285 -0.4693196579794304 0.11619432250609667
Ni 5.927822493652512 -0.002321348446899683 2.713629046584238 0.3966957638651168 1.6085101627249137 1.2957161798807748
Ni 8.940550747947416 0.16736009570896818 11.690443453954057 -0.0938897454716254 -1.0363769744216669 -0.5177826385768244
Ni 0.47681739166587395 2.697676009872143 11.877851644518982 0.8976484753687961 0.3336775111613673 -2.0480387054848403
Ni 9.571633835246436 2.1309075420889707 6.495861257505126 0.14477470524695066 -0.8523788048977192 -1.7499627455771667
Ni 7.069997442491066 1.5124709578812903 4.886091266464852 -0.3892202814236781 0.46152355897377934 1.018230385419627
P 4.06905941764069 1.8573139975326063 3.446460026165444 0.339247549049977 -0.3282949066932152 0.037714226721322144
P 6.325622764998807 3.0753585553186755 6.57845214410007 0.18083494130461758 -0.7977770583924391 -0.16351290508640226
P 2.227092478547052 4.874154247252298 8.067979673047127 0.47450788704858926 0.8088963082340521 0.8360312167776311
P 6.774526576738747 1.6852124041244376 1.1246627413212247 -1.6893713571473548 1.185136118237662 -0.6113638516690955
P 3.4433680314364157 5.981240795772696 1.1450110024335902 -2.2989817164604536 -0.48820672469192045 4.647801182378641
P 6.46842286240517 4.927638416576084 8.586670727962082 -1.802625366078205 -0.3557015808409423 -0.27260532644039503
P 7.816733929712435 9.02955615921302 3.974984113617935 -0.5053472410269491 -0.689469851943903 -0.0019224138336934634
P 4.301006070320371 7.813929868759147 4.987618033134951 1.2804345711313563 -0.9433917430421817 -0.11454238872497047
Ni 0.01558794421213626 3.469874876085449 2.376231823819958 2.6548884713336665 1.1085254715614588 -1.3127042297983393
Ni 2.6178731879096127 0.5677828227186235 4.643816636260579 1.0696822734420157 -0.5124622548051754 0.6811554185409366
Ni 1.045180786736235 6.630785519280946 1.1564361393781608 2.320240882949546 -1.02948976038353 0.2414651533921648
Ni 2.222641737503746 7.533119160608247 4.6174020056965865 0.084513446463048 -0.3334186010730258 -0.7475508152470351
Ni 8.823156571929903 2.139385592152435 8.495032510472553 -1.4346699075705744 0.7864714035716327 2.023948754415172
Ni 5.761432527756577 5.52042442978154 1.463347197435873 -1.499000451327844 1.4140432324591583 1.303886374396393
Ni 0.7737138118961221 5.9764230803093294 12.226886661199456 -0.2547824393263612 -0.39546523389212535 0.8886282741480566
Ni 2.384543323954317 3.847322181519121 1.6735341489260298 0.7453203832546196 1.2651187667098922 -0.8563393322073638
Ni 1.2348501043047673 1.2532835117124548 9.537675527950059 -0.22945218809168869 0.458131759683411 0.6430933215618925
Ni 6.8304196037942155 0.8645823240635735 7.874745998803744 -0.2979057528783966 -0.8396109637090895 -1.0122011485064115
Ni 1.1686535646860432 9.04117701584829 3.0162530906475946 0.8308481299147948 0.9823174735731018 0.4603920164724974
Ni 8.886106799371165 6.02698086387314 3.965935841763299 0.028424830999596206 -0.08872208522775688 0.17199908818054246
Ni 6.853379029049323 4.011180964876686 0.28773523316943944 2.6846027105686474 -2.400701499499459 -0.5317432145219746
Ni 8.531581280790542 0.9719835043348056 1.9886626111129575 -0.10099987415384541 -0.4416641010456909 -0.5658954349236512
Ni 4.517953819780115 8.283139598409138 9.233536538203886 1.140763505659558 0.6301550162336695 0.917948877489045
Ni 5.071172462822568 0.3789180259940714 5.4480269634238345 0.001874591314893546 -0.34345130271867946 -1.368434690591424
Ni 8.95230333898989 7.877792827450303 2.253578622074953 -3.0209266582139263 -1.0004545494934447 0.7562200608862588
Ni 4.302106993580554 5.03929273627982 10.104692409186809 0.6349341827898678 -1.034719641323902 0.07182196703830857
Ni 5.488676437645993 6.975760293339463 11.162057687629126 -0.5313575490477817 0.23788129269564834 -0.6205298344390797
Ni 8.500802477507976 6.70821712191385 7.399863221003629 0.5508681082768836 -0.3133377711627507 -0.2712385279998554
Ni 7.965744363458294 3.8318057502708944 10.211286245733909 0.055995798639329374 0.591931968196729 -1.332034040475203
Ni 4.774205470588463 3.611846928646545 13.85770028283011 -3.999411902525131 0.25644748573361 -5.465941120698147
Ni 3.9181200157893814 5.989502425024329 3.4714970912141294 1.7560053522268209 0.37065743081982616 -1.1468125400671152
Ni 2.3936235884507027 2.6560291179954594 8.13616352029449 -0.8477351354781206 -0.2614287409982852 1.4752892237538333
P 1.3532228787757767 8.689389691017354 9.988003012247825 0.4350329688824185 -1.403039682259803 -0.3742839718288199
P 0.7733496603562153 3.3896674413008 4.520117086938374 0.1929026711024291 -0.4426205514216893 -1.0257932853685494
P 0.5503327185646896 9.253005942628207 0.9091932401022902 2.053346747961315 -0.02323505926854063 -0.613334345131905
P 8.105975639924228 7.274712711282105 11.416190296401632 0.47682008012153365 1.579032722091087 2.043653174822635
P 0.7609242828769651 6.972137597141423 5.928459523607336 -1.8978258599414541 -0.6968700010627159 0.8636163254847514
P 4.665148200626698 1.0624756324816815 8.930665021647 -0.9729861688698468 -2.9246455296919893 2.3107136601854013
P 7.05692750737658 7.243708077587194 1.467740539916041 -1.3126618065961781 1.4224494542449826 0.3404749936991749
P 5.5957576914997365 4.5316636077295795 12.049532628784156 -0.13396630177753704 2.0316702914291467 -0.743927873782467
Ni 7.496355851398531 2.959140579365461 2.9679686665680607 -3.349564550068857 0.022571971763244995 0.43145759282633434
Ni 2.5450052415261872 4.3645961505966095 12.804618254541943 -0.8132497001067414 0.0694318695395772 0.2868623505800414
Ni 4.328312731013126 1.7525663246064316 7.101026541147314 -0.4136357341535651 -0.2982695639757186 -2.0783173018637244
Ni 4.109426603847417 4.022971194321214 7.378006600928806 1.2885798259463097 1.1017254179204896 0.3627620872321495
Ni 2.7924965542556377 2.7858627858929936 10.924478448081533 0.2374969127730361 -0.550826970626303 -1.4399224142187652
Ni 0.3991533719002642 6.785413484533895 10.103480452640557 0.4305427943215488 0.5428516657303103 -1.11187921852504
Ni 5.118728583822288 3.279396332872679 1.9761572520293351 0.8950704302289747 -1.9235145229568098 6.202283983044506
Ni 6.830927722221992 6.909309694506851 13.058213575125079 -1.0326589021401311 -1.123574395474781 0.5587925053302828
Ni 5.764565924727869 2.750115713538831 8.854120744342604 1.5245811280104258 2.5465277859393756 0.8051054737330521
Ni 6.647082947371867 5.452731763681028 6.275112029437569 -0.9954092737600534 -2.052414208844717 0.32807173493881564
Ni 2.3561075111998346 2.8957104622979672 5.88885169216212 0.86243361803056 0.1901194519303371 -1.528136706572168
Ni 5.177237479820757 0.6804204456761128 13.324286966950345 -0.4686941085802896 2.9326313761109426 -0.2648727336828277
Ni 8.761476640558085 4.3239749051759935 5.694034382152166 -1.0289061199659182 0.6182564650238707 0.9951999859627247
Ni 3.6473305321863045 8.444561295233477 7.13530477486118 -0.17262103803525755 1.676246389729623 -2.1269402050777497
Ni 9.053475363720596 7.913530490203952 13.41901059244854 0.5532864879103891 -1.797904306453452 -0.8284019823671475
Ni 9.244264423750339 1.4733270197414337 3.982297255137718 1.0680676206567283 1.0240269374967461 1.5734254032066386
Ni 3.1652296498316015 8.086130792439382 2.4042987802342766 0.38812267748412516 -1.4076488988970401 0.3465703079636354
Ni 1.9634072433323384 5.0598056654011865 3.9146356407189034 -1.3159430484506112 -0.22473318534946457 0.28007746644772413
Ni 5.747713330206599 0.6618741230622528 10.779763496970492 0.46973746224313934 -0.18011426108850914 -0.06503734001630736
Ni 7.640021632052216 6.329612435616909 9.692746685387235 -1.7055821625792627 -1.9872794240185967 -1.6276931634112677
Ni -0.29169479306589424 9.080113942776828 7.938027444183111 2.084481521692907 0.9486730460457791 -1.6086736848859713
Ni 5.07707228234509 8.273033687456685 1.0105393424425133 -0.6946429115044102 -2.2168020603369047 -1.3901743962613606
Ni 1.944663319107676 1.903261076844366 2.881040895096035 0.051810299803072064 0.568900283188246 -0.3945802601840107
Ni 1.2669744804608902 1.7276497024443302 0.32735906093553013 0.5505094393858841 1.63242425033835 -0.09850436142550133
P 6.689934268114393 4.690676446822234 4.050908298248435 -0.03207862570209959 0.8741977005450233 0.020722320149015927
P 3.9335235318314354 8.68483544436839 12.480565727227171 -0.16993706344519122 -1.263188639566715 -0.8855843451154104
P 6.604438637840658 7.9537753516039915 8.070223862769808 -0.5613962615017171 0.0658688347786672 -0.2961437758819674
P 8.021148091287014 1.7517100509596222 10.652125088872966 -0.0857113234258911 -0.8929988924119265 -0.7889437763715251
P 1.8557708230482466 0.6961410652555021 6.633787181845036 0.0412399804863935 0.10860494019461296 1.338882945076236
P 3.2304475909968295 2.264815567009236 12.903101015445639 0.0469884529343965 -1.09163666622592 1.2969953037035145
P 0.22068241990390586 3.819836738416592 13.636648065625991 -0.16870087704524495 1.0594022316722465 1.2584220714160068
P 9.337494745646902 4.335134691386059 8.54349571696186 0.390011924087038 0.49232203241187467 -0.3163678162383261
