# total energy = -340862.65228602575 ev
CRYSTAL
PRIMVEC
9.34615268407129 0.00000000000000 0.00000000000000
0.00000000000000 9.34615268407129 0.00000000000000
0.00000000000000 0.00000000000000 13.67903917673145
PRIMCOORD
 96 1
Ni 1.7266175952642544 4.040080118328199 4.144803759290064 -1.0289644840076795 -0.24993462431575664 -1.0193169336155865
Ni 9.142135529077093 5.042043764286052 3.307372589243409 -1.4852391358776937 0.21057437735057932 -0.8514454944501724
Ni 0.5633029037730196 6.75846470695866 7.951543156326482 -0.6641054050371853 -0.6705956407472192 -0.4666570235456028
Ni 7.655274788930618 5.854392664341688 8.937856669594407 -0.29679143676829534 -0.2745799336682626 -0.637931831965611
Ni 6.938163184850118 4.968003542626088 0.0907259080686404 0.6092892285282538 -1.1228017789748148 -0.04070956190422022
Ni 1.3206581067484504 4.69370330714284 11.340251574024574 -0.34885293335022505 -0.4076237236315302 1.6906767062223398
Ni 9.066384961473707 0.6676769986240438 1.4428515763302103 1.6535849435763652 -0.2512340598534705 -0.2186000758685332
Ni 7.4156768184086745 2.0609388233630397 1.1563060115842914 -1.0295226705039946 2.104656196868569 -0.23688036223495978
Ni 9.239849555516745 6.119290670212474 5.490834801378388 0.20566434164347164 1.0225601231432326 -0.2005614731992675
Ni 9.19684790696114 3.1507282662078757 13.137677491346418 -0.23631857619421878 -0.5610206233298531 -1.1515233152792232
Ni 8.931604093440592 8.634471206920322 9.25626420349723 -0.8548596623380439 0.30598081657704723 -2.0187062750693108
Ni 5.89136604440819 2.3357157126337973 10.114965347850088 0.3807788355245442 0.27398780861021843 -1.0951644768735203
Ni 2.4346353927712703 3.2774247121587057 1.761066579487489 -0.07455299281622645 2.030920557747315 0.40498474334678636
Ni 8.578487752269579 7.528008227665316 1.2179364116941291 -1.7233117186485418 -1.1597359329970027 2.757354902730709
Ni 2.7810038116955655 1.7411041319434952 3.6008698223648246 1.2579818985547948 0.19838503437323898 -0.21511648819530693
Ni 0.9351760387902052 1.6706715252242967 8.912632338082405 0.30189430521249944 -0.0595518914217039 1.6065396692621041
Ni 5.4733967496776605 4.812483561759918 9.659426388511035 0.6238177611617322 -0.35324360621875295 0.6213405032658332
Ni 4.707844036172318 4.80274487065039 1.3195365684248963 -1.8671392294908746 1.2427193159687695 -0.23730433714625587
Ni 2.275545181575119 4.921254086839274 7.273500339746989 -0.011807791268205471 -0.9868449291298101 0.6105184729496647
Ni 6.65679725792848 6.053643293673774 2.124026288678228 0.8700443404982824 1.7222526812564083 0.31016811518551746
Ni 7.140451313808495 6.279502419732179 11.741348259292502 1.2650408622841052 0.17282826895005718 -1.6074958625277864
Ni 9.321553622387661 2.740478893604477 2.7959137290919482 0.2366163099402957 -0.9127979294157248 -0.018535082689710016
Ni 0.36601777035296357 8.557374793328673 6.280224877335602 0.4747616549306082 -0.3551544500882206 -0.5544036322339678
Ni 3.501302453845499 6.973529026652858 2.3465843536043063 1.2517292327768637 1.3879483351443194 0.3269139671852886
P 6.480491433465772 4.264013936931171 7.463625385586422 1.7013388139218761 0.6011236619983261 3.4006515985526593
P 9.26378505257193 4.133027606892746 1.2117361739954142 0.35524341025760114 1.7222943331276208 1.7117414973124392
P 2.8662500704383747 4.620906123791483 13.576842925776852 -0.07467691998860042 -0.37188307569681117 -1.047344529176764
P 4.623420238866783 1.8191538531101652 11.716411789283546 -0.9253364282023676 0.17025665156813904 1.3628119450880078
P 7.053625555260013 8.380891391964738 10.73762192893613 -0.13200223607263073 -0.41374140649349384 0.07495022825464512
P 3.240554139771864 5.093438257962919 3.1565612001056267 0.8675539699762608 -1.1211310761406112 -2.0754011566581934
P 0.7539681572382974 2.311443754081547 11.325026691282327 0.4002996791662913 0.0370411119136975 -1.2516711258454185
P 9.361386925179225 3.486208417241 5.290327114508653 3.1384340431044917 3.0716648079987423 1.1730719879842764
Ni 9.33016142902094 5.636580575754784 13.32213970326717 -0.124868710351643 1.005258141529675 -0.36092914778846874
Ni 9.109171648517297 0.7678873824488737 12.727539337960106 0.11491468446272467 0.08609698890008398 -0.31638555685013897
Ni 5.878898276711346 1.3063771854285282 6.642363994319608 0.2764411552467175 -1.244632473831082 0.6009873935307778
Ni 1.7878816261883979 8.59423601956282 1.7608478795143958 -1.387251823297927 -1.0989481122856688 -0.822082467907023
Ni 5.238808317000925 3.5063213378434037 6.117772855014597 -1.0173801216041898 -0.7350043460405923 -2.736534366440932
Ni 8.037083818879223 1.1189307469518504 10.552312020965823 0.05277446348855427 0.12747812295003208 -0.44542048276432966
Ni 5.463358981681851 0.339862562032412 13.308213935749707 -2.142566084540465 2.162132693818483 0.040692849733671856
Ni 5.431058677963493 5.942050230480139 6.408164361595038 0.44087271549264717 1.548244533065637 1.5564437810469773
Ni 3.4795633026739416 8.24475533179066 9.187376515818725 0.1635761542241699 1.4564654061791111 -1.6366305751102137
Ni 0.8824039222059057 7.13324543007966 3.283681026773598 -1.4639383175173883 -0.5297004730603329 1.034901675427721
Ni 0.7776111197140878 1.573564998709903 6.566253599837417 -1.6909111908306493 1.4595281042648347 0.021658973030672376
Ni 4.193656099433542 3.5143122983987265 8.124925504225791 -0.03589337146249947 -0.08310808147508912 1.2793500798179258
Ni 6.948275722067498 2.3090231005332096 12.444464934325588 -1.2494116403872806 -0.10889238952804473 0.3859246413915418
Ni 8.273111559071188 2.9455241376082584 8.722822257588836 -1.833334365126288 -0.7171161529062617 -0.950006677255538
Ni 7.391470282925298 7.7805506196716125 7.079559259761664 -0.5255499412270691 -0.08603579664484538 0.2188669563766747
Ni 2.878708491982522 3.053761931983926 5.751434511624152 1.2497538542180477 -0.6416193081195273 -0.4818568712144928
Ni 3.1235963849305626 7.011156637408098 7.210851208993256 0.3964088287523173 1.2857562404545855 -0.4069680923254023
Ni 7.481679348749834 9.211269020571507 5.145740263066596 0.4837741428418636 -0.23853769533272468 -0.19344851630357005
Ni 7.07237393756876 8.382255930258395 12.989328813444105 2.26791481985232 -1.2717848658761581 -0.0750993522379997
Ni 3.4886010323312484 5.353775341317918 5.186927823383851 0.23468284036300874 -1.556158902816707 1.9596639762941737
Ni 7.237744763376814 4.733415109949353 5.531379346390139 1.3449461205511806 -0.15630018938804696 -1.0667962101434723
Ni 3.583286905297305 1.2664410749573054 9.329023067622533 0.1254891175444613 1.0481477418043497 -0.39552514059578336
Ni 7.97549267261071 2.3502489800765196 4.820055814674447 -4.662918240525737 -3.0645580217506314 -1.076808857184468
Ni 4.88207501473645 2.4607391972519923 0.976004706843923 0.45997241243657555 -0.5567201961822864 0.30262038474524655
P 1.609370109689368 8.706053390421165 8.088073624144341 -0.4632755086678796 0.48633599003176886 0.5607511717185504
P 6.89532042089035 7.0685233226578905 4.815636953679643 0.6410567507478379 -0.44385468093910657 1.15296004772575
P 5.495276093139662 7.879507684419871 1.0779721673756542 0.993940916744643 -0.8136315089261924 -1.0384893927789791
P 9.185501677587851 6.066036292149047 10.426834313326587 -0.3894879332627679 -0.5550410087076506 0.4335756676106017
P 6.1617782803697825 4.363354193939976 11.850479545865934 -0.84455468086761 -0.29047140808753846 -0.7555286912461892
P 3.3098184774040265 5.350737841691625 9.33201850956169 0.5545674115053416 -1.2340297586145714 -1.5637950792057262
P 8.539112410960133 9.001429200234533 3.178858316593152 -0.16762435615161456 -0.6414740407909145 0.7384799632940184
P 6.464836627699497 3.944384860870944 2.172805728830675 0.9034861650964957 -1.9027888603736844 -0.5973017171490745
Ni 0.7704940244358673 4.31764216110245 9.095124381014783 1.7259399003000082 0.14247408213823204 3.2066667501296453
Ni 5.147169289813858 6.635459991322863 13.076381683503106 2.1802111485867486 -0.09225812340547337 -0.35186420937272306
Ni 9.347274234607834 4.459470028268563 7.214872858498468 -2.6489032002845088 -0.31709929508771195 -3.431341828547664
Ni 2.5840990666902486 0.5493603131807027 5.690452734511436 1.7606330808068196 0.2915499858636979 2.1297447644060803
Ni 3.6909358920531075 5.693769684103348 11.391999352273361 0.2144801401628887 -0.2419822022378994 0.9379530885251136
Ni 1.8801188071480277 6.792456664315046 9.945331741797258 -0.6953666770443121 -0.229008929906683 0.8225720059489318
Ni 1.7364590940534417 5.7449492162682 1.4902627397279213 -1.9644953362445459 -1.3124550899020109 0.5037971229310098
Ni 8.065954084558046 3.803566378196029 10.904437669951031 0.9147915628069858 0.9597185052266632 -0.08357113715443672
Ni 2.6309700224621144 9.278935166092605 13.491266747843863 0.37161362408550835 -0.2533601050575379 -2.760474422196298
Ni 5.232602471610592 7.200584460256389 9.75225237709053 2.863055010573701 -1.332118629769209 0.09830715781303069
Ni 3.060126661970096 6.791194933701048 13.646496997976449 -1.4881959045131725 0.7809401893407583 -0.1554506969035581
Ni 2.2683486439989804 8.764036921748911 3.8863788987767256 1.816868763371097 -1.538237542451596 0.3496348058215721
Ni 2.8875125678224216 2.4313175085640895 13.239230917313703 0.15962385444464122 0.1704181168466678 -1.4318452936375856
Ni 6.587906766404169 0.9706540344253004 3.1641530799408186 0.02292138468286375 0.7678684437584646 -0.18996955661603412
Ni 4.256976283950869 0.09010999660595527 1.776441935288146 -1.055306207226002 1.1624988404541206 -0.08407224516057134
Ni 5.387561683314986 5.720714642326735 4.030939580991233 0.7000795091389492 1.28129434802849 -0.6116854966745724
Ni 5.003004884473673 3.6120263248383786 3.67105755988338 -1.0184702693445749 -2.4900072251448275 0.001853508268971001
Ni 4.18287063922203 7.663499403303349 5.095907511505277 -0.33263929970484 1.330307287592083 0.6147186270739412
Ni 4.963040735544361 9.248532131371592 10.817424988348623 0.05783310895838426 0.022379396136464686 0.7731885704197974
Ni 0.08885106983776578 8.120984231633768 11.362056148265005 -1.2634642618256047 -1.6938345351250312 2.251388797172839
Ni 5.5602598928369265 8.068842045741198 3.1967234874720996 2.3373875699321616 -1.9344329696415263 0.3812938274877498
Ni 0.631272799256747 0.9552422286291277 4.277763996777944 -1.480638660991205 -0.29835775281415067 -0.08880975984555672
Ni 3.1767853399251162 3.355745471753568 10.703643056193519 0.6542377682144862 -0.7620317824720295 -0.3632372270963551
Ni 1.853800041155291 9.207474482576815 10.444506953459992 -0.45995852847950464 1.3866375867526957 0.7791247333985744
P 2.5326578422499 2.355351979448691 7.608596363904296 -0.48487534632584234 -0.9151571736765206 1.6858211779022514
P 2.0079087529643225 6.751679400101158 5.269466501690546 -1.877427241680444 1.9094120221171567 0.1631688914834222
P 3.109025732877055 7.80938350073965 11.718873565903747 0.7582813142906618 1.0570715266565407 -0.8819961135435197
P 2.296714217432203 1.2542910764521356 1.473984545576803 0.124490758186934 0.39926892390893176 -0.24302015658411052
P 7.327308944665307 0.8639686360124849 8.355636218148838 0.743083523504301 0.7334133474043886 0.0799494812414494
P 4.616466701260747 0.3806828185487032 3.88639291800577 -1.6107588495497742 1.774792145916021 2.081890621037279
P 4.9589284283579955 8.70286635235173 7.4321914702230085 -0.25042210547513644 -1.062944697607866 -0.16388777192731774
P 0.5202031206141046 8.217006604435392 -0.061274311692109375 1.6791908170699275 0.6048857001439196 -2.4940741961253496
