# total energy = -340882.5394358506 ev
CRYSTAL
PRIMVEC
9.15327007939894 0.00000000000000 0.00000000000000
0.00000000000000 9.15327007939894 0.00000000000000
0.00000000000000 0.00000000000000 13.39673598791999
PRIMCOORD
 96 1
Ni 4.690694025444558 2.9346116682239796 10.111575539828564 1.5387288802657177 -0.9112938340663724 -0.15668071265591724
Ni 5.0895294700358455 0.4818894728562212 5.949102095263263 -0.8019293899979157 -0.2655072819430331 0.3248018059382922
Ni 3.1404870226808046 2.0965931637806148 5.15971308500264 -0.5941163774425575 -0.8265387039061637 0.217737984978554
Ni 3.420787617538147 2.9285888163996603 2.8370533679213303 0.9804647366350793 1.1131627132231539 -0.5390325490945362
Ni 5.294956314250434 3.181484520129325 0.8486912175545444 -0.9884392702001235 -0.47497017139698844 -0.10453642655219417
Ni 5.070399135213918 4.853439170484676 2.848963603170273 1.0134525044150096 0.20463770015117014 -0.3891467478732653
Ni 5.431248508268845 4.4278121038724425 11.758971966103903 -1.649921892902481 1.6663288735055948 2.294519309813726
Ni 5.608959250167265 8.52534675732404 12.489683022101636 0.09422655998575385 -0.511723319756622 1.147608039385217
Ni 2.181013775293833 5.27006857244143 12.123081734021781 0.4360403271010103 1.515033336420991 -0.7290118759025831
Ni 7.847757620547615 7.313389703368643 9.0184682081037 0.23812246217217703 -0.5289116586104504 2.1915841663103808
Ni 8.039509479009114 8.849070466246081 7.143394252963716 -0.3424974234458424 0.817299958916715 -0.24011712400470261
Ni 8.752347859517233 2.783051819429025 1.3928320813791484 -0.36238130685396297 0.2843493543502006 1.13632835270634
Ni 1.7272770157446922 1.3534208456649055 3.041742458553791 -0.08402802218619722 -0.36695889892231637 -0.9919007463861628
Ni 1.8691527046154368 6.870160898066187 0.6561851296244685 -1.6395096964302214 -0.6498064719160099 -0.33238501760218886
Ni 7.648765525318583 4.410796174478203 4.116106638788292 0.49649956082833197 0.4862691413495755 -1.3736961961006795
Ni 8.006987909811839 4.450924111252999 12.744369105492147 -0.40513052489603135 -0.3418705884951209 0.3676255859720378
Ni 4.057168731650309 0.7213381072620143 10.714736690223397 0.5291821386630177 -0.6090364890874995 1.2533989071698026
Ni 0.2612434861974143 0.6285642213188969 0.9976103478824527 1.572474609257595 -0.7597198465094013 -0.5753002731773189
Ni 2.2221485717960987 6.740422445546578 9.33342583010758 -0.9361965108453232 -0.7547411623478872 0.5178024360711664
Ni -0.26471806758421007 5.187524381329406 1.4563997126094417 1.4982432614468455 0.8966719703881397 0.9024975759309811
Ni 6.2579078043323 2.29946624559553 7.252175377919553 0.33023480402840544 0.37736132520256305 -1.0791336486629028
Ni 3.6457475404656496 4.986152435835446 0.8107252832127332 -0.32902355732912364 -0.7931734981821565 -0.8348289689394139
Ni 5.869012811232215 5.716372876547793 5.1192007108773545 0.12741513092258056 1.1276544790814256 -0.6358484670740211
Ni 7.039331638821613 1.02620974077772 1.0467670704315784 -0.25726638209047953 -0.6122783930635649 -1.9414088867387276
P 8.912557548698176 6.503837869401924 12.829532047222617 1.2512090986073354 -2.6732780295844476 -2.547200386526368
P 4.329734813146634 6.3064750562773435 12.591579057175627 -0.45610830149547893 0.13151835445767673 0.42040133501217275
P 2.314065711643842 8.802654232809724 1.525473035894945 -0.27214767007768614 0.6091776426510541 0.6662772158775234
P 6.495728071960667 7.835144414143493 5.945993644686457 -0.6854057091768584 0.45053414984181117 -0.39669833496827805
P 4.604561752394641 1.5421704314844942 12.973480036477898 -0.4611780027089025 -1.593290774671998 -0.4202624954414633
P 4.259794675168481 6.311811412832934 8.623787432878764 -0.2883219658447035 0.7910934757246763 -1.1589178079710816
P 4.6794355030373955 1.3085515149007514 3.7915847647004757 1.1397826298035272 1.4279755262695342 0.5827235622245835
P 0.07703666840276437 5.954577581526649 3.7437442824132603 0.44899431615851704 -2.1503773530547674 0.5360135597625543
Ni 0.7522999592087356 0.31941984125061934 5.006896492202398 -0.03217272807780266 -0.4882841148970752 0.5007917604457828
Ni 2.1475036529095877 6.534684390143499 5.085936811462828 -1.2267113705762873 0.8536165339595622 -1.199506270916405
Ni 6.551398261619498 1.3641850914785827 9.379965632692308 1.9473936435672523 0.864747353765401 1.4839584693930572
Ni 8.868685924391244 2.4320422118925533 10.4046019263141 0.19132709908519308 -0.10981824377642377 0.23106786931824075
Ni 3.5355970862804535 4.5747220913805355 4.745311589024669 -0.05000821359732678 -0.6616039787715703 1.0276439654240432
Ni 1.3332928043857593 0.7446350107016154 7.312568655027242 0.5327109777518826 1.3924356814917116 -0.012610746785475056
Ni 1.6193050398789308 1.359471157299974 11.885048195196596 -0.3499335680089135 -0.41901165375349775 -0.6125496444470806
Ni 4.167731082996743 7.309160892513269 1.2549298271238096 1.2137506966505613 0.25194702676009506 1.191088222056039
Ni 5.890760981345562 8.618829106384487 8.44232842681308 -0.8048447638724978 -2.064284477919742 -1.0749705184241485
Ni 7.30378792287668 0.965258114184798 5.027741234542098 -0.5215037961821535 -0.8166736381866259 0.03626566720025367
Ni 0.9008044463943313 7.655923382653868 7.476598003883397 0.43331212953656983 -1.2656612694769236 -0.9242809903546597
Ni 5.211862926923425 4.6842592764590005 7.262357475745348 0.028752389542344034 0.4718966746779873 -0.23727065569484296
Ni 0.07313462929530641 9.114872281027859 9.404334384078153 1.1892113167483003 1.0387087078786368 0.7742072414922989
Ni 6.4094584998570046 1.6045042018851245 11.83669970641052 0.5334673963019329 0.7012046238823278 -0.4929123576977059
Ni 8.53703548343294 7.525095690974543 5.030447856554942 -0.7050569077488825 -0.14791016555213882 0.43756756237881417
Ni 7.556738546227844 6.185487130116473 7.151727390199067 -1.9822007239441088 -0.5470075968802128 -1.3467541202941966
Ni 2.4904034630048026 5.719109704352461 2.7378108658927323 -1.9046763072043844 -0.9123191900070933 -0.5047486882110016
Ni 3.343506556819715 4.422576433289599 9.310932583795903 -1.0050809925218627 0.86756862526428 0.3832288397269335
Ni 1.0162601360162684 3.74975615031328 3.760437101367685 -0.16609840642539137 0.2840606194651882 -0.41479555878962115
Ni 0.5494250467397706 7.235376381030232 11.010496243205502 0.18123937583188787 0.5679137509052606 -0.12248195528702133
Ni 2.62485584970302 5.452200343870467 7.1112022014954315 -0.03626669564151819 0.1691104537788378 0.7961634340484159
Ni 5.627732607449452 3.073915288154551 4.714525479866743 -1.4438392327746683 0.6734711625228014 2.8218163156388885
Ni 4.258348458469025 7.138132037897149 6.203224337206391 0.3027042027083045 0.645333780856637 0.5290037041036245
Ni 0.7010443917913479 7.659557230943009 2.8857771407876442 2.5234757892159188 1.1757356508593688 -0.525110025476173
P 0.23235942659738062 5.6991006555865615 8.16564520435843 0.9809527320150911 -0.18980911977876988 3.2227456579693787
P 8.593309788928252 1.6425818061239825 8.04194058758744 -0.43987229925259086 1.1584686362488048 0.63159149156988
P 1.8947727080444183 3.5067642849938183 10.853285165358368 -0.9951853306747054 -0.3074535444678318 -1.3945126186253984
P 3.974111957404301 6.6197091174931995 3.8400668912321962 2.1737885328898563 0.05470459063173159 0.6257005800067418
P 7.074324590986312 3.715504613038807 10.947719454524785 1.8605962861660343 -0.7079157173539163 -3.2562484177125146
P 6.593146327228495 8.303123662201205 10.576655947198189 -0.0794645711852309 0.28691274420200263 -0.7315212725879982
P 2.5029068301659283 8.510170635249997 5.8157105725869895 0.3072586548482063 1.067918496673374 2.004176456884252
P 6.9790665074974205 4.229671262776636 1.3773053890545393 0.3746791503847095 -0.05536047904817563 1.5784688791678172
Ni 2.665505522882051 1.769555971028174 0.7542431984827522 -0.4816241863783963 0.00785780548152195 -0.22870991060902546
Ni 1.229851697293612 3.6021505142662074 8.244619620073061 -1.2560697691337466 0.2521462872550948 -0.3426915417345195
Ni 8.160717083655978 8.659277407618024 12.167344202968378 -0.6180682602724645 -0.1391038801144185 -0.6639243993746308
Ni 2.4443442071081845 1.8332535786960134 9.34958226742537 -0.40543957149601784 -0.23404443544806144 0.15763664881128336
Ni 6.67866533117168 2.4264587170402208 2.956887066703711 1.2528170665244036 -0.6123804658590679 -1.9177855908928325
Ni 4.283236200278028 7.309060206540522 10.697963322490777 0.26411888623593865 0.0712666087554708 -0.4162991399183411
Ni 7.206561886284097 6.224296995975308 11.251047846676386 -0.19385757881653065 1.4748878745503566 0.5009354851124985
Ni 7.719035181025725 3.903027660644933 8.599445225976643 0.5689427063904072 -0.34777512690501394 -0.311746772526547
Ni 3.1911229137022854 8.600238814507295 12.948521814487973 -0.13081978572875533 0.9869524012419517 -1.9269181493217202
Ni 9.144538029907219 5.029795228386137 10.60914364929554 0.9079894522834878 -1.5985473950852471 -1.2129713952823755
Ni 8.66378996985114 2.7558208404360918 5.5772889351032156 1.1681714653588655 0.0325769054947568 1.578894910961642
Ni 3.4815195656450753 3.2174660254809955 12.281645665211826 -0.2626554143165347 -0.07963452110419189 0.2454807023094611
Ni 0.9893403682118258 3.431167426001336 13.0050826173421 -0.087718583663907 -0.4984358586190964 -0.7574917285098309
Ni 3.3882385885301236 8.641611596036054 8.513264440594403 -0.3360989761186663 0.013534544151325078 -0.5684439123771178
Ni 5.852482005161211 8.643341564113252 3.5956031800565786 -1.1186083097187574 -0.9165581677891054 0.8910870201011943
Ni 3.3187469607942073 8.832219295716337 3.656438560117329 -0.7703649849280733 -1.5119420990901766 0.2579243273894526
Ni 3.4891900061143453 3.1648713346260733 7.285412732850356 0.021101557865305598 -1.6943986351586173 -0.046575276656377854
Ni 5.921918713275629 5.247972578058592 9.48661770698806 -0.036226586432202126 0.2559427781830495 0.21123232264955236
Ni 8.019143452703474 8.94752304105213 2.8482267649151707 -0.15911297624649373 1.73788473136671 0.9805161586983049
Ni 4.757018621674068 0.8331883237325844 1.6542558870004824 -0.6258368484742899 -1.2234890069842477 0.11052066916008708
Ni 6.348332961129339 6.03086093578786 0.21258378622284876 -0.746610819931269 0.8455669241822082 0.8804801911196256
Ni 8.424486872442316 7.601617030262248 0.9352143352441242 -0.7087189299815021 1.2658492171180136 1.945664833801604
Ni 0.36454454825474086 5.297345317785611 6.13975098465967 -0.6959809135895433 -0.9531519077527392 -1.9385757881653063
Ni 7.225527462241528 6.687342631368421 2.852004319547232 -0.13799522043127202 -2.245427951603714 0.876632278128445
P 8.894598832468215 1.6182066474489636 3.67622518441616 -1.4487821786022403 1.7289594038526221 -1.35295484978827
P 1.7440366535719396 3.7796415776786336 1.5658508569475589 0.47743740199055834 0.06749994262418697 0.3383546049220625
P 4.56994408431018 1.3165880861800103 8.510799464916152 -0.6710322140640056 0.9867654820421263 -1.032854305980389
P 8.425869016250024 1.548211589849313 12.585135154919822 1.8241095040939102 1.253481182470964 1.1229678722390337
P 6.33793484612565 8.05561008137838 1.5193778732356529 -0.8854485908684944 0.9534666107796804 -1.0821140714474653
P 1.6724855400298355 3.61073628176045 5.9136404956617765 1.5474863147433735 -0.40818962343732923 0.44255653095297326
P 7.133628628934284 4.225488218272511 6.20808746969007 -0.8687924703690522 -0.47003442465826795 0.5770982456180062
P 2.166661447542263 8.64880606645234 10.763916295948148 0.44051481793259617 0.09024237852702523 -0.8563521877231702
