# total energy = -381174.4128581013 ev
CRYSTAL
PRIMVEC
9.17834725893993 0.00000000000000 0.00000000000000

0.00000000000000 9.17834725893993 0.00000000000000

0.00000000000000 0.00000000000000 13.43343897501573

PRIMCOORD
 96 1
Ni 6.8237250008095875 2.5823188706475766 6.35147791541664 -0.0025628756311697797 -0.4330277655269316 0.8639811650233378
Ni 8.065757331522587 3.5843465944539803 0.42062622378584674 -0.29583652905419366 -0.2729483116021106 -0.8316719113676709
Ni 5.669199034479452 2.064072661447456 10.089211216425428 -1.6106146106624262 0.41303949533046286 -0.5085534066690726
Ni 3.188438578127698 1.8563483024467273 13.389632975858184 0.856293309460777 -0.8869786543597756 0.06356358368425828
Ni 5.74006505497453 4.147823699781513 8.283461307682272 0.39490550473391345 -0.34613681997064255 -1.1889724612646169
Ni 1.5256983363367396 4.752869540612506 7.702384721160681 -0.48366255696466376 -0.004934461187139888 -1.2004686348296743
Ni 0.1157655782803238 0.7360015841054045 2.4753663415680527 1.796179096232229 0.20862342427179556 0.023321191224443705
Ni 5.299412594934544 3.776238304140629 0.43886360012618114 1.2637514540487202 -1.4585544274976556 1.1377540294092727
Ni 6.77906316222274 7.410882242502527 7.060803550555992 0.12092515232286272 1.6490448896141663 1.1466783284820963
Ni 5.234081117938822 9.127058823021933 3.4626573107433334 -1.0872843027944952 -1.4286463270843137 0.44137819437415593
Ni 8.849891087377536 8.512219685484784 11.94548425642324 -0.43069937450407114 3.83092134171848 1.098168810917483
Ni 7.08070037211139 6.351719305954009 11.017999399091753 1.5041200319425967 0.10490358008362578 0.9538767017339055
Ni 1.944809214962149 1.6389866786461242 4.244214704475118 -0.49942187668144955 0.16887339806736723 -2.0077487476165423
Ni 2.104714383860642 0.5261597803529322 11.39046866959 -1.5395338926655164 -0.3916119215843062 0.024014360636726385
Ni 6.205508231418767 6.350324197144884 1.1565516276075951 0.13462938928283266 0.02701458091563089 1.3502204815762424
Ni 3.4926365469488867 3.568055027768478 8.982577866976955 0.8191005024605635 0.360599789473508 -0.2893738041479855
Ni 6.599011520718794 1.971242855556091 4.098112852274274 -0.24011532423248966 -1.2688967456950855 -1.6413346654541021
Ni 2.4812193737231767 2.8717397001089573 6.498802323494954 0.8226830776054993 -0.6510696548991497 0.8858957057082419
Ni 9.147563251177097 3.1672549522628306 2.630603402964435 -0.7627730315134282 -0.6572559862155197 0.9825774121027078
Ni 6.267599751772245 5.513552618787761 6.1126444656419165 -0.30203443033478955 -1.0296178013209623 -0.6445467661789674
Ni 1.0217611707775758 2.161849596602756 0.46778090153426244 -0.6847925010728916 0.45666134578547163 1.492923391895829
Ni 8.278263609533537 5.327847115267889 1.9543097223853398 0.6700896476450782 1.450191143134625 -0.2055527557662718
Ni 0.6209014360136436 3.612955503388466 5.178738436449484 -0.9452385664429335 0.020120167788642767 0.7080897810379353
Ni 1.3410942345082821 6.394573010097452 0.5198322276357573 -0.30858405852784926 0.37019334669921405 0.32787633109855796
P 6.618781681079681 2.1736804864380312 1.2843169773158774 -0.12190602817889329 -0.6417437495125335 0.04660458723241651
Ni 1.6121124773756164 4.667859686730183 2.236129962341219 0.028993559018872652 0.4555891957672153 -0.0999655193520601
P 0.8287561275478561 7.998893070506313 10.243507497210391 2.214834909308205 2.6648121582052817 -1.0891702069632982
Ni 6.306203881056314 4.025173443095108 2.6212671879602136 1.3640285911039283 -0.6415835697855854 -0.5798202725348595
P 9.242045159605581 7.575101234692393 2.5948968779635275 -0.3759351342789977 -0.9307552852250939 -1.2928141757426317
P 3.484238359051853 8.399225050293108 13.308575318378551 -0.6815819645553939 1.2099336368973161 -0.6374502643435023
P 1.8708868047733955 0.8533036177452512 6.152112277419004 -0.030162896736625474 -1.674737152173948 0.5349866611599368
Ni 3.933821351139723 6.544905162628068 0.8209453538862432 -1.319819757797198 -0.13089100528632297 -1.1546927141461405
Ni 4.105539053178634 3.171284246783921 11.483320503515191 -0.5686336597904207 0.17853303264431833 0.941154883291863
Ni 6.323587671085804 6.243763583500555 3.7290285563076426 -0.20161973926045276 0.00045868480397340353 -0.1548364603583269
Ni 2.9593194912712475 8.542306308355249 4.5334767485259855 -1.3557979756640197 1.126899346082956 -1.2234180445369964
Ni 0.9619825939760671 6.9001530998463085 8.494527502981699 -1.2703746157921927 -0.2263280406404102 -0.3231781542919402
Ni 7.754675602130058 5.52950458661841 8.77449371675703 0.15906541083800993 0.9906673881996939 1.5321316866641743
Ni 0.16548376846550608 6.582215144924726 11.527999780962153 1.9737507934045426 -5.36662891865937 0.4801154630433538
Ni 4.043273144224015 4.650402469921266 6.581350544596967 -0.4693991050671142 -0.8984264911854011 1.676947015341073
Ni 8.089474181277707 3.0581978281179625 8.811610953757691 -0.8911356139509428 -0.3973195134920448 1.3388040122091847
Ni 2.665006602630502 7.254574985795988 6.808376050404988 -1.5284979465663289 0.06947737806553195 -0.7277386656171145
Ni 8.482839795366308 4.376245232233401 10.911727903391421 0.46130707208759913 -0.2738399701784445 -0.024768979414563796
Ni 8.508052715752266 9.129344231531618 6.793720065231234 -0.28678444615425447 -1.2429211475669304 0.09310787300027835
Ni 8.155181970517996 4.393500525398891 7.015949884507889 1.5356296725151037 -0.247022078654652 -1.818610428652552
Ni 0.6367331674929806 8.325669774001494 4.432645259346496 -0.1547179325025916 0.8076516371936736 1.2229323631498294
Ni 4.66116867145484 1.805390117523961 2.1521177948243686 0.1878046877542314 1.3855188997672203 0.2901111965346423
Ni 6.4272571052901695 2.2696125737602126 12.334261614632359 -0.7480727491887761 2.220105156568209 1.9301078599036114
Ni 2.890059681576148 5.6008295244849124 12.290374428568473 0.9584308967634915 0.5601353925114224 -0.99718204938976
Ni 4.578223945743918 8.277327418095835 5.839797895966835 2.8584046562858836 0.3448222149242771 1.5680122026108672
Ni 4.89770386303348 1.6226125068337656 7.484037342846262 -0.4596664511603825 0.2447836762424365 -0.16592408563105618
Ni 2.194074774424052 6.947917219863974 2.977965304072148 -0.15999152219670512 -0.5707782169372492 -0.310243191397827
Ni 6.256080925749538 4.14588706847411 10.509302342556195 0.11009335181468136 0.8348248551743559 0.8147183142324679
Ni 3.180783836372369 4.0396935887269185 0.572696755319413 -2.017431779232261 0.6852365305888457 -0.4708777464951697
Ni 8.110914800870571 0.8325844162602634 0.2478493404536926 -0.6046057070096554 0.8971332262952744 0.41439292403456374
Ni 6.804340331040697 0.8199990662663699 8.770571808900852 1.0878419750701782 -1.3966060108193172 -2.3576285795693845
Ni 0.20951413674927663 1.9575120478031267 7.115612052224994 -0.18344358257205826 1.4072719751735958 -0.08944482232639434
P 5.527641382090435 8.940251917810647 10.256820690155362 -0.34948028252157876 -1.001565008948804 -0.5401028993405795
Ni 5.8316374272681974 7.8701759261697 12.339272074493552 -0.20801844369794498 -0.11019568172050055 -0.9781520293415025
P 4.667786259950755 6.613522488003177 7.350911838239764 0.9566630062297912 -0.41661769960002437 -0.03598901650009931
Ni 3.618526760277536 7.745607394870747 10.644361724965869 -0.7722395762429668 0.04400031684035003 1.2776477524148382
P 7.575697827275242 4.191999085954653 4.863643933561237 -0.03938672932773862 -0.30973462719252465 -1.1222009121660221
P 6.2717024730727635 0.41779011443045505 5.901793043672314 0.0906694387621148 1.3511946725640536 0.845072243933977
P 2.4921599638578913 2.640665625250247 2.245090782935617 -0.24694545978044566 -0.23417299060612576 -0.3110705723951288
Ni 5.8973819298982 8.954037795648183 0.8466529871985947 -1.6142792039982068 1.1366204300254619 0.4598487423745178
Ni 1.406783667053714 2.714863385861854 8.90353577459261 -0.3472107697611117 -0.47146061558183316 1.5014561119571885
Ni 7.405898399848878 8.331039107247138 4.665689007563353 0.05974035328342614 -0.7888409322450737 1.1954624398643345
Ni 9.078184122965427 2.1333691845322695 11.785075196250927 -0.3994064779280605 -0.20963103960070348 -0.18038911201645064
Ni 3.946781177708698 6.119874249911308 4.902990591152268 0.8898505765909319 1.3750956475513674 -2.0031449302959436
Ni 1.1712672720396324 8.991641485062551 0.4063428795176896 0.1348913846949677 -1.1264339764107634 -0.9275172379037703
Ni 4.066448471480856 4.886111610231346 2.563704264227933 0.8682520244845499 0.026731502457573317 0.693067082376858
Ni 8.05493605990444 7.885191702562647 9.307183891305307 -0.8511685866397019 0.18193357368543506 -0.2646001967477314
Ni 1.7367544354539963 0.08570006560894318 8.157643603298306 -0.4009288281098579 -0.11555051827451067 0.11944599667417494
Ni 0.9197897308474726 4.223590957803386 12.645849988802937 0.19908591709500553 0.7052083457250823 0.5305782476795958
Ni 4.1980659736048604 8.461353284036301 8.46191132755995 0.3632796502985163 0.2514117230819154 -1.0781059787293368
Ni 8.151464739809471 7.585133168431691 0.6692043250253584 0.511387533683758 -0.03157468948248756 -0.21424179889983747
Ni 4.201425248763673 1.5669917214173457 5.040132540593458 0.6149232868855797 0.1993995916806824 0.29045495302730623
Ni 1.7471993948275748 4.945128384196292 10.268359708542413 -0.9797692532299515 -1.2431486901967042 0.39041275906988243
Ni 5.505328819491868 5.510487050746658 12.630119219145312 -0.2923431711889546 0.27522682322364217 -2.605797113123654
Ni 2.8112635689028864 0.36532668052942274 1.906326239864135 0.25080571406680024 -0.41173131804200064 1.0383225281838118
Ni 7.325027980656786 -0.25559494784856335 2.5477724887616255 0.5104328830799726 0.04580111749451467 -0.6030828426072258
Ni 9.175355287190449 6.670685235787577 6.187321335989289 -0.09945541248486098 0.09537121511315833 0.985688961148496
Ni 8.686718426794515 1.584843607165685 4.826930543847428 0.729163313878783 -0.9122520842145837 -0.2041162804300614
Ni 0.12376542589896267 5.614734720839016 4.115200181681823 -0.5118354198544541 1.033508137514304 -1.3774492353852084
Ni 3.0729198973932 6.140938557259606 8.898740088061244 2.1419616181872465 0.05583973267743932 -0.2751080382575907
Ni 5.5544696916238 6.721074363169779 9.547064590521616 -0.5136359633983024 -0.23829266920145412 -1.7717312476025102
Ni 8.978296167901581 0.9411293886186239 9.63107767587321 1.2780542438246376 -0.3417142654229147 -0.2632048590621015
Ni 3.4404117500809943 1.2191323538790102 9.41011079720271 -0.23283087475593447 0.6274371030818742 1.0089792991350042
Ni 7.219357666713017 0.7019554221543043 11.235312377650986 0.38697493703292707 -2.331984653749035 -1.1402323157464362
P 1.9001106629855873 2.776624485707908 11.316463654274388 0.21089447969415936 0.09759264824450935 -0.6623722243961624
Ni 4.391178403499493 0.6463107730345704 11.879848976127636 0.9385498415688481 0.05461151669729305 -0.25330765455304766
P 4.310115239011404 5.077627007673427 10.440684099346344 -0.8135615749202053 1.2116130814822683 0.42473930026589435
Ni 2.818615425193076 4.021648957682582 4.4040592962805825 0.6325479419458784 -1.7317493078929338 -1.1624366197576175
P 4.414243590587193 7.107317579653901 2.750429482147106 1.2073473642273786 0.8700991049956176 2.1092031928093027
P 7.894223196432244 5.705563646990979 12.96040755836662 -0.43672372632128015 -0.9651977831736797 0.9144668324777153
P 1.940642245229632 5.616836562400133 5.382510599047522 -1.7330808822201638 0.7358684938131004 1.3118531946519536
Ni 5.272189616461755 3.751264020787811 4.653585520809453 -0.833305333206036 0.9425029126793252 0.5291934515169273
