# total energy = -381170.04578596336 ev
CRYSTAL
PRIMVEC
9.27165169921848 0.00000000000000 0.00000000000000
0.00000000000000 9.27165169921848 0.00000000000000
0.00000000000000 0.00000000000000 13.56999945471852
PRIMCOORD
 96 1
Ni 5.230685596080142 3.436982639815578 6.830771437139131 0.3152707265194054 -0.2924586137208964 -1.0940792142291416
Ni 2.874582807699048 6.896328502867416 10.754807833768805 1.0046837570834442 -1.759048767038835 -1.4648304903143545
Ni 4.95528973381371 7.639608982627477 12.422193811023913 -0.8102656777777528 -0.09384963626230934 -0.010169741444150227
Ni 6.820050626596806 2.992397682352099 5.035459849352389 0.48307428856136153 -0.6016929042382347 0.2184807766818495
Ni 5.221358314746943 4.182785008763145 3.895282224066402 0.7009886512167799 -0.024531152372144847 -1.4961154164705652
Ni 8.006812737300812 2.418593718983247 3.058026139796354 -0.013148878677132193 -1.0006700079383606 1.0442625478173306
Ni 8.503114966411 3.7460345967534963 1.2078857141447916 1.0767713190783132 1.530657673221809 -0.9876370860138023
Ni 0.07936070036930719 8.632352515619221 12.334735250300314 -0.5189414347716159 0.5929182433693982 1.364963958434004
Ni 0.6894344369462541 5.4739459145087315 2.6619727145500724 -0.8472664233718182 -0.505959163579335 -0.14957726884191658
Ni 9.059933264369889 6.064095799339245 0.42130105924075095 0.3905801378856822 -0.4774307171223391 -0.06060141573214079
Ni 1.0001793974343143 3.084010870079083 3.595113436358442 1.7659881744711459 0.945207713204998 -1.273737875837471
Ni 0.03309701409057957 1.9838923419384469 12.51194617830997 1.0191197300031156 0.3398175626208341 -1.0380301937543737
Ni 2.6846437566136307 0.6035344408271399 5.3065212145777965 0.18714237157988417 1.5240535376417301 0.22591049348701742
Ni 9.04127870170349 4.657549191613866 4.686752112106092 -0.04316676519546114 0.49511527888629575 0.9064449906145033
Ni 4.3396984374739525 0.73500923952413 12.290184965204862 -1.1020092677094955 -1.7280392060311982 -0.2358879164147034
Ni 8.667501346170075 0.49912544696899336 8.498862987067653 -0.05133875948329224 0.5408927422317266 0.4229981492050715
Ni 2.1271857147064406 6.421749753045187 1.0634751073801274 0.9747430036599536 -0.04677813669580331 -0.7191396110941938
Ni 3.9227893595130587 8.753143590379585 1.834067090741786 1.1844470625904377 -1.2648241182876088 -2.6430377426426674
Ni 3.2687763396695444 4.941725307779444 12.833758709103636 0.6568623503215267 1.9224351738497019 -0.47066743025657654
Ni 4.570710904370577 3.033916137431689 13.444164370801586 1.04479322350982 -1.5445349454245334 -1.4328950750583387
Ni 7.684455960568518 4.438348808632247 6.9333057030792125 -0.08365521222781076 -1.0499552273267336 -0.687494473385087
Ni 3.83541331648714 8.379848360720253 3.9669038769915517 0.7699170987573772 0.08115764261693764 1.0719229898470766
Ni 9.134560786686912 4.0411419899487395 8.611141758655044 -0.11705718472702421 1.1073738744555186 2.212557683238254
Ni 7.921281752908399 0.24168691918182622 4.652297728246943 -1.4284815193716753 0.7644373065897286 -0.606567972942349
P 3.8795927355256055 4.83209730133436 10.54213840205071 -0.20000971446085553 0.028173634220738576 0.2915654124826656
Ni 7.387030654517113 6.59878266534749 1.6787177896263175 -1.324792528421441 0.27831266123781745 0.5492827660676346
P 1.8796882515767852 0.8032235605507209 11.722742281878466 -0.11317841849790831 0.1441005619980615 0.390263892196844
Ni 7.9157373053564575 0.2066335866406451 10.802045043447121 -0.4872564449635092 0.3533065982462045 -0.6346045673645909
P 7.402189804596418 4.764173182997362 2.9755075149518104 0.22028234866696256 -0.4276737003038699 -0.4575026107398444
P 8.67978628430774 8.715370882475554 1.5185778262197314 0.7867336560940837 -0.5563414726866289 -0.8808092923242702
P 8.61536685020926 2.4055114188230635 7.487762511420242 -1.7386668609483733 -0.790275093588439 0.7845731581076553
Ni 5.208507805872375 8.326054239154423 10.253952296643972 0.3314355092047259 0.7560691371306915 -0.6774234623023301
Ni 7.397238742735655 7.665662323130749 8.87358512388124 1.4842320347694178 0.8918100143101478 0.7953224262043593
Ni 3.3538344698393003 2.7801973961960926 4.241140782829903 -0.04674985456102916 0.7017116454257334 0.49222330205048126
Ni 6.773868530850614 3.5593128087124337 12.739433563334941 1.7437219068737775 1.2605087787417064 -0.07172915021418615
Ni 6.353890536268161 3.1860268507045273 1.5997808037271168 -0.3972750334073545 0.6229667260153464 -0.31656167741668706
Ni 3.040053970674809 1.3698494113866067 0.4148081217480673 -1.198557790960207 0.24895169157719707 0.8524988754153512
Ni 5.956387024739064 5.249071280855227 11.066510555849032 -0.10184371021137943 -0.36139271768844855 0.4428606924569534
Ni 4.772072630011165 6.295006278070198 9.079089423378361 0.09507553824961046 -0.7232379495332835 1.0494299509508829
Ni 2.363260503280925 8.07281762379291 12.539194634681877 2.32790662702492 1.1438298032897074 0.35382853218794547
Ni 7.9078378583426545 2.648947898628722 10.335793163769372 -0.6797811639012292 0.19987781686868156 -0.17827078012186715
Ni 4.499810585926264 0.7321600610413345 7.350230542847527 -1.7809000585859716 0.31722219381882144 0.12814506711006962
Ni 6.097177051622402 5.86726791124531 13.392557431806832 1.1266828591967757 -1.1164326422236772 -0.04315236701775794
Ni 5.746643726210591 3.7292621793263017 8.976554230273138 0.6329516051422003 0.33547702626395126 1.0558690217080073
Ni 3.3331586871623267 8.010790275761988 8.637779213198069 0.44694900359371414 0.7057567620293845 0.6047183213281199
Ni 1.9433195953041706 4.102195814580071 5.94751312716053 0.1568105533655622 0.8233561924131239 -0.9488537945980173
Ni 0.5317607328186252 1.82137883576715 1.5545787215365119 0.6970612911379156 -0.7962349107162997 -0.2738577107902574
Ni 5.978713161369626 1.2073729918210083 9.23405858678542 0.44288254683382433 0.040637571015704206 0.33624655744012416
Ni 6.663776941834299 8.99731253064779 2.145213513736534 -0.8841815512306127 0.4218401243412283 1.4498059918810644
Ni 5.724095069945838 8.060310166021052 7.585412471389818 -1.7471666708892686 0.6611046705376485 -1.0972794663339942
Ni 4.112376087844339 5.245381163588215 5.563034431552783 -0.16241581536748156 0.9764782411835053 0.5865617050237512
Ni 2.25861137365088 0.747312720964643 2.7636113389625327 0.42553659935620913 0.27178540164226095 1.741378860562898
Ni 5.104897101201891 6.646068087613214 2.9086885774646296 0.5305530508686154 -0.29748383484962965 -0.4644875266981097
Ni 0.6332528651385763 3.973913245468589 11.051054712924136 -1.9539196176112286 1.138897913205729 2.1603154381040857
Ni 1.2278633414694888 8.62210734079498 10.225496671256572 -0.08371871847589452 0.2858362233083723 -1.1672882914229639
Ni 0.7150019429148738 8.660371446224518 5.3617644952612995 0.15627704945959536 -1.6541297603362415 0.8651970397083101
P 4.353921150759368 6.587304360883771 0.6828923597010197 -1.2120442554824158 0.2518315842281534 1.098395067995676
Ni 2.6946385968494058 2.887368415013643 11.839715290582156 -0.9008245591039324 -1.075117328414658 -0.8519558584276876
P 1.7363392489002436 6.339296956925759 4.794918906286649 -0.07740228933956347 -0.21186635668912546 0.5254165009729983
Ni 3.735872866792078 2.698263812556444 8.782734065901362 -0.39651192998908485 0.5986286634906142 -0.8506862476866446
P 5.819537449711203 0.9599126152970514 4.330525992719544 0.9596177179827409 0.22222584554657857 0.7109689023579433
P 0.12963993888005151 7.890759476418446 7.672871032113416 1.3367011069335688 -0.28311059684709305 0.9210113184644525
P 5.491608410472693 0.8304284401609342 0.6219794641713422 -0.19405992463532384 0.47822621644044094 -0.5032739034376882
Ni 6.986615844440675 8.592206264950478 13.252528607505457 0.16249346268295242 -0.5124229169268079 0.1740837386237131
Ni 7.766027949802605 7.741949471052784 6.36850914906941 -0.7502371038299466 -0.35458520784831193 -1.0100807597292991
Ni 7.2861921736226 7.278626506060084 11.252758562502294 0.4648441387065801 -1.140799501103816 0.38880504826313034
Ni 7.188431881001071 5.451406529895403 9.140426033378146 1.6634116998587998 -0.039348677000951585 0.11472005195341535
Ni 4.814861301335934 1.80752698853872 2.6303406213845877 -0.24768233794647027 -1.005485684159449 -0.48643677727569123
Ni 4.8263210624968025 2.8892134736471484 11.095617978331584 -0.00333754901366522 1.4361539483152683 -1.869579206390935
Ni 6.274998054295799 1.5589076555866819 11.889626444531341 3.4211659164559274 -1.8777476011343404 0.19929931865739225
Ni 1.2926258266706818 7.712706682459433 3.076739113866729 0.03654797432736287 0.44636047808009577 0.06205691723174473
Ni 0.9975926066868364 2.0300002644732404 10.00769816197036 0.39651115865813646 -1.2540547955862469 -0.314755991666516
Ni 3.2704452369259815 7.711102686762968 6.113420057753249 0.15706766368169078 -0.25891831587160574 0.11088088071298323
Ni 0.9047166200358142 6.467700057505763 12.089471327998858 1.2621324303880588 -0.7034620524579369 -1.3921875700366475
Ni 5.90258363152181 5.76238699032965 7.179967790415507 -0.8367554965381654 0.2696105054781292 -0.9652965135350731
Ni 3.067989456417285 5.266094032870887 3.3654407230926795 -0.797631276843194 0.16750737095777604 0.27952750748152505
Ni 7.995538409168436 7.262883241941025 3.7754989778158974 0.7289928497391897 0.7297047882045496 0.14288417309245716
Ni 0.12141783839667028 2.2781003849454984 5.604287717401629 -0.1348538465888129 0.5959122930007157 0.12485636905646885
Ni 2.053559530743281 4.428910267481952 9.509868891870534 1.6675707163324958 0.642946511571383 -1.3818993007367621
Ni 1.591098829333073 8.892338893217882 0.8342223999239017 -2.19978084318856 -0.6708301253555286 1.156905662637059
Ni 1.6818682967804142 3.529689882410671 0.28099779405720743 -0.4525568366987948 0.7136742171042483 1.0103278427430986
Ni 0.4747048442816029 5.770388425509124 7.021062810978684 -0.05149276856265326 0.7328117092646476 -0.6288021017502009
Ni 3.511498902315504 0.9498714168041535 10.107505635226453 -0.7424623449805342 -1.4415856608538011 -0.1811064497984494
Ni 1.5407352187943641 2.734358351552614 7.765866623067816 0.7351141321455792 -1.1708567255005125 -0.4567335937843037
Ni 4.225425333665118 4.162869501502993 1.6147758455762062 -0.552428510785468 2.6058593338201574 1.2413651159337202
Ni 0.40815756618116456 6.355475988661777 9.563510958353 -0.15741527682909665 0.03707247937226518 -0.38596886436591593
Ni 1.9384612499576532 0.12700586271030792 7.624643610062947 -1.3812989481486018 0.5424839979782463 -0.1250553724411524
Ni 6.956084296299296 5.560478237255007 4.937674523272013 -1.6772756023250854 0.5425901845388075 0.707621068931633
P 3.406330560205679 2.449301428501694 6.421377959823059 -1.1224837335137636 -0.4484410147582084 0.7207442365771523
Ni 7.8292606125187305 1.382087991267147 0.49789788032036947 -1.7793810508382837 -0.002039399027531972 0.4997435216869265
P 8.467354206866117 5.348083246419083 11.945452912089456 -2.3434767135490353 -0.8499177449517363 -0.01180059217935387
Ni 6.650342318919979 1.1606624119436124 6.628727317953688 0.8327934265666238 -0.1155695444379042 0.32509902546373687
P 2.7337371509071624 2.76747669044147 2.114721833696281 -0.815644168480847 0.6871553448781134 -0.2929949458403406
P 0.485382078062232 1.0611034189457014 3.9428448687097233 0.11944419690196204 -1.5238257379016402 -0.8590045377443529
P 5.561090166249033 7.406241516268991 5.155432237291955 -0.2189047515931456 -0.7569620812586061 0.8029460041878882
Ni 2.7700727528403726 6.0532201522181275 7.605061882254081 -0.16219495760592711 -1.3429121208402874 0.4346213352662966
