# total energy = -340867.072594379 ev
CRYSTAL
PRIMVEC
9.30896154144573 0.00000000000000 0.00000000000000

0.00000000000000 9.30896154144573 0.00000000000000

0.00000000000000 0.00000000000000 13.62460618015812

PRIMCOORD
 96 1
Ni 7.02044647490447 1.2784834762078403 1.496445364736413 -0.45576351656155056 -0.6500301578910418 -1.3178793462413756
Ni 5.8717671591480824 7.400894426244863 6.754494096676 -0.9880770017646983 -1.0143403063366014 1.5018186375029294
Ni 1.6262476633955474 1.0063639109240712 0.2949702733058707 0.7508906782535455 0.8776414361192498 0.6951334779875834
Ni 2.9568520155620575 4.133718867021758 11.41829223278633 -0.823028119649744 0.7716263681390001 0.1373046221221506
Ni 0.5469508310795516 0.4975909931293374 9.273111850913553 1.0517609130769048 2.165064522753297 0.12568040761966098
Ni 1.006764196272566 5.7845049531762 5.502828807921156 -1.5904821015786093 -1.6383660697440814 -1.2165151467695758
Ni 6.778590343759231 8.028560470608006 1.0805712291580647 -0.733978218768923 0.432962459506635 -0.25881932839989613
Ni 3.8234604860918613 8.178229955098717 9.124603193933478 -1.0928391711744534 -1.4456531460549555 -2.8859511984455843
Ni 2.750267539892332 3.8899171629036027 3.6565442884579773 0.2523203509391138 0.37762614882817547 1.0956033641831517
Ni 5.780157668112315 2.997252908875261 0.040520978917751756 0.4195418152253549 0.7282544289112683 -0.7064183068727834
Ni 2.201308765797191 6.704323448171043 3.8308573869735825 0.2650887063483757 -0.29880975274990473 -0.24424631568172772
Ni 0.47865563435321146 2.2874073515699602 6.390566759474533 0.5546525150199801 0.26864917000612437 1.5503937181981557
Ni 0.32575500929360424 2.496775206755964 3.781986269506996 0.4168169600950241 0.22868265691551587 0.3514551468597624
Ni 2.9779926673395427 5.458346865845624 9.103852587646735 -0.38755986300211964 -0.39838086487702357 -0.25032131823121406
Ni 1.1566012420719485 6.235068003234347 11.428102016512932 0.36494289693355214 -1.262381313174071 -0.8673415968551386
Ni 6.709005855852274 4.637389542967421 11.904431341364075 -0.2325843059627672 0.9336097239547534 -0.6055619002753377
Ni 7.173066900220131 9.195867018511795 7.495114150111282 1.8428721294133938 1.6550952095733045 -2.174518983297978
Ni 5.316757560017554 5.3223894817812605 8.075372445770244 -0.16199364022839846 -0.544370673477998 0.37203605633490766
Ni 0.5423996797567808 7.561939461802101 9.261530571795822 -0.02949826656943307 -1.3249596501269245 2.2591111055177606
Ni 1.5006790804688657 3.1847074684715686 9.038004716923169 -1.2905577756082869 0.44720842790268783 0.5995586315040512
Ni 7.660512056109362 6.465958177623143 8.416995510995111 0.3353893516461514 0.4847730164200232 -0.8993523454337802
Ni 6.867816740627216 7.359013408038387 11.623983048143135 -0.5129145118512457 0.01025638762068556 0.40985441273426193
Ni 5.722628285468168 6.973333820282782 3.500719718562039 1.6032432578990194 -0.3041399067135665 -0.6669662715247481
Ni 8.262755326362285 1.4405804244250775 10.599275828400248 -0.6557578044034383 0.49897013385601163 -0.40559203791348214
P 7.458116613156443 6.065533194704379 1.4509524694318914 0.8062077056582954 -1.3567636820113986 0.33016024203672817
P 0.5383214236829296 8.193841083690018 4.713023925013607 -0.36692984545659385 0.0013819679491911684 -0.6977855708984498
P 0.007626832233066236 8.125867046138632 11.540817716168291 -0.3787798028166444 1.334281955969115 -1.286716804595642
P 4.516643002145863 3.484362942147148 9.26188431233635 -1.2392290434273239 0.082525983719374 -0.5497764178746015
P 6.748783048738752 4.989696503412465 6.212438848498157 0.108930956075464 1.0208788787860676 -0.1062112431514558
P 7.046055428246548 2.5276716502828123 11.887782263555168 -0.6703698978896584 -0.08327931694563076 -0.2869880775246283
P 0.7026618316440565 1.0780894599973962 2.2461798224673073 -0.34422186233611685 -0.5735496090347992 -0.04730649839544756
P 0.5127748403835232 5.093537969981309 9.522578058160992 0.8528107502288151 1.4168945858650244 -0.025738285306368576
Ni 8.989487339997114 9.005433591205758 0.7926552869472965 0.29007571531101656 -0.11146940622660158 -0.24269028404851753
Ni 4.758769093177296 2.624652412157686 11.3218569760608 0.8918352111211286 -0.6775741289475814 0.19499452063445127
Ni 4.18658445990786 3.6888622104200626 6.2017028230930595 2.301109561436734 -0.09939910532562882 -0.08253729657328367
Ni 2.200647829524095 8.595150417960108 2.5075130939533783 -1.2589792294710576 1.015156888700626 -0.8749656890592996
Ni 8.438378195774012 0.9299187183231437 5.123301512882301 -0.08913063352008521 -1.356753911819386 1.4275584933367738
Ni 4.822386536703202 9.178170682523685 10.829232313941278 0.7434635325515391 0.8559523811815903 1.6617319981635317
Ni 5.906275479772978 3.780238977416008 4.147630179226194 -0.7868156742849287 1.2235424859300026 -0.5156103135158538
Ni 4.69784193955174 5.8113985432180995 5.343693040386621 -0.30465541289740433 0.11714948733051436 0.0648182820269658
Ni 4.458024470995347 0.7463925405190416 1.0723616559292826 0.9610472513404158 -0.5773126756216573 -1.8731952058769674
Ni 6.6006216160260935 8.53396261340995 5.020762370040305 -0.7127609612613595 1.9000298095713084 -0.15613409612382786
Ni 9.0024919593424 4.379224111111415 7.317721647100743 -0.5016055145963297 0.6318401172455763 0.5233171952418084
Ni 0.34217694843964613 9.034337916951724 7.08509535137487 -0.8604135022767375 -0.7473096457705065 -0.4219506817771636
Ni 1.0875939097837515 1.4393609504564073 11.798378065520758 0.19735582177777625 -0.46411703073256844 -1.0538838729571784
Ni 1.8550619393491277 0.5103777827733503 5.50692940550283 0.817997756314688 1.5097407205634839 -1.4280385182969857
Ni 4.367057298309489 1.9431991877107426 4.235876342438446 -0.4579592386612887 -0.6255640544288775 0.5055840396281035
Ni 3.3676471816953173 6.767885037927392 11.063752052455147 2.399485624814487 -1.0828422078627415 0.46910137132103724
Ni 0.07534301154832769 7.099302688557959 2.431583617824698 0.04825240724848464 -1.4600338402566597 -0.10372935726986653
Ni 1.3009832363778893 3.4879282744372295 1.744807529138932 -1.9665964417479482 -1.145776385493117 -0.20343776630579802
Ni 7.795882975593371 3.6315376249309597 2.3013047003320066 0.14587796561345842 0.7244119152367267 0.30979427678586646
Ni 4.264798355211439 0.3072236594506102 6.593233093209806 0.8430372157818191 -0.7692977200058235 -0.1367898872692612
Ni 2.397662692676315 7.715220823390858 6.007129700566659 1.547986908528876 1.652922884512334 -1.4285601951284108
Ni 9.221922802010333 3.5298465284900766 11.37128756211912 0.45754117728726357 1.136874969238429 0.19459342854129066
Ni 1.2455297521689603 6.75367956253662 7.4615842013498 -1.2584616664046908 -2.8688885865363427 1.7328744226363122
Ni 3.1785449358970657 2.0558655498696594 7.706581176136484 0.4038768549945883 0.8143707010850619 0.30286772486936225
P 8.67988058637872 2.310800772052928 8.546810842200477 -0.2531942689036349 0.32150050947920117 -0.6737095037858526
P 6.3303731520224975 5.945577915618218 10.06690841655214 0.2281740927102135 -0.38390066898297753 -0.4361123179895263
P 1.1479625257137336 3.5476173361709304 13.229043514953235 0.4302913404323751 -0.458017859813366 -1.0336886289562262
P 3.4031329432874675 0.9979858454904575 12.400190330851931 -0.4640974903485427 0.8406234641340039 -1.270890636196663
P 0.5535034091447967 4.696892425469263 3.549155176626078 -0.3497322506313848 0.6518049904032774 -0.3729917353799576
P 6.1039698971214795 1.7962665379283458 5.873758346032805 0.0026826890384857023 -0.7366110284060797 -0.7163936729179404
P 5.703098084046255 9.040332888217556 3.007331721591898 0.12834149939159187 1.0953747931121134 -0.3410493781454062
P 4.086978570863788 5.799715796419006 3.168279943948571 -1.6952154746329577 -0.8570404720394466 -0.15535865141038405
Ni 5.723373002395601 1.6438695276909148 9.001055586568615 -0.573003249613026 -1.065275916844204 0.8163363094518651
Ni 2.27852660221033 8.614950579268214 10.70298696950679 -2.046728728424165 1.208143634876429 1.3699069042615761
Ni 8.111354375015296 8.941052812829234 3.263896942950084 0.442197862061974 -0.3687707553200746 -1.5646715682734085
Ni 8.338576818536488 7.237131173902497 5.912207150099976 -0.02131393098642781 -0.0961857405946537 0.841897445750421
Ni 8.800757452662578 6.5733277406356985 12.947449288560207 -1.0772418309568286 1.6259021329491161 1.3654357558641
Ni 7.929131451834199 3.2282734087263587 5.349197429376506 -0.703972159325136 0.8792835997083631 -0.05274798112599303
Ni 3.8708710274845215 8.51386456533087 4.388962215833751 1.059799210000349 0.3506730172780993 -1.1891560380303328
Ni 7.512918470053869 5.7304105773598355 4.18735896551239 1.2718221468719968 -1.019752221380792 -0.2731753400112521
Ni 2.780372721683784 1.5133113413504362 9.956889523070245 1.3068616549746332 -0.20212496103164543 1.0176873684319634
Ni 2.8564362468594022 1.6909449464662303 2.3220692700611383 -0.2758199767229508 0.6675943920270503 1.0992263056477198
Ni 2.0765779894138707 4.223568964316467 6.956546969842299 -0.15282560057588518 1.0756462043349346 0.1678920079907044
Ni 8.413402251820251 2.1192502693557427 13.449679868147449 2.105997798498128 0.2816656368704504 0.9086432838174029
Ni 7.833528416275076 4.3663777441132074 9.536284573210382 -0.8737672978758243 -1.3334730869145746 0.16630589445050714
Ni 2.3226790070454735 5.512208517622166 1.6904459861248504 -0.3891200084003879 1.4792944882584846 2.345042001153626
Ni 7.865672260655373 8.618227333748917 9.791200246574306 -1.003150351158053 -0.5649608389245238 0.5173501790250961
Ni 8.414454164480249 4.493407834009975 13.613297900688965 0.0019247278265386207 -0.7110761173597688 0.9844910841856529
Ni 7.094545809183986 0.40547602547907463 12.736173096247658 -1.1362118817331335 -1.2209248458014974 -0.474967343183511
Ni 5.377442680641695 5.079788633708589 1.6246120788436742 0.5382105674138731 -0.5094388945978194 -0.4768216227834303
Ni 3.355582767470914 3.801379629193493 0.4855005138124738 0.5939993922487189 -0.8081452890006403 -0.7864271805972586
Ni 2.9973087626448183 6.12759604164427 13.341323555206046 0.7013357501435534 -0.6350982191715578 -1.5358474449528645
Ni 6.78932357647585 1.6640606653859236 3.606719002428118 -0.48852682703550065 0.18554365963419658 1.6609817502610684
Ni 2.9952235552480078 8.404149143996904 13.410481692672048 0.330569818770321 0.6847292519351239 -0.5856744173227914
Ni 6.514746445331554 3.145600520819779 7.519924394548688 1.0260812489226134 0.8858080310904423 -0.2628222789117022
Ni 4.302890626049602 7.8424464014810775 1.7586918453547482 -0.00936755725782903 -1.4127111439112963 -0.09398230518543169
P 3.517298048262842 6.45895783850528 7.129579155242721 1.1944026311412528 -1.9496631563277196 1.7029889479307898
P 2.541821271904026 2.562468548717087 5.610136000891038 -0.46472561085084474 0.0041721290998186205 -1.354564617477551
P 4.753909815225801 5.123782786196654 12.620404988085985 -0.6960791297303044 -1.409739977098114 0.2944512186708929
P 1.2731494412151065 7.213114052992804 0.440347395606093 -0.5803159812243553 0.300191977809412 1.199955956859314
P 4.991995816925912 2.6090319746047927 1.9344627272558022 0.11092844612146702 1.1371477632838416 2.269057160986879
P 5.842872142363709 8.716492732323612 8.876158179772782 -0.6841677230046992 -0.4202254715559408 0.8308501867973239
P 2.3060159657941752 0.044063969700011016 7.940951971264869 0.5532733752842665 0.08598437458161966 0.26456831506853146
P 5.198989886905726 8.26959741313307 12.810277085007971 0.3892138536657748 -0.0349600610149527 1.0341686539164383
