# total energy = -340861.29051599413 ev
CRYSTAL
PRIMVEC
9.37986173531157 0.00000000000000 0.00000000000000
0.00000000000000 9.37986173531157 0.00000000000000
0.00000000000000 0.00000000000000 13.72837578058387
PRIMCOORD
 96 1
Ni 9.05575944838713 7.723922249331107 2.1634135380746176 -0.5843724106819161 -0.3521190056960065 -0.5749760570686807
Ni 1.3607553130274554 9.323329386482841 8.024373293014513 1.4064080845114035 0.35012202987063573 3.442461078389278
Ni -0.0030944164123177286 4.3373981804132 5.896488795517576 0.3930507109133618 -0.48883175987042915 0.6209247558846531
Ni 2.605144060394972 6.6238708155517845 9.437393196067534 0.3234344932771204 -0.4315810057780761 0.259572661626153
Ni 8.549368848654492 1.7029514317124368 9.724467618818515 -1.2650709441910923 0.4838757014167344 -0.6497578780662615
Ni 7.148101912453953 5.090966898658711 1.2166721936944107 0.54788177195505 -0.057348456012481876 1.5351038819186207
Ni 0.8018037196359402 2.600791804513446 3.8267022241081046 0.4365162382961644 0.40606203557136517 0.48465680255713306
Ni 7.722627828400826 0.46920882750339415 0.6967455153785184 1.4229647033185042 -0.7172089697303842 0.5783143774132944
Ni 6.901458446064457 7.609544214375658 6.510668077281584 2.3976177183678122 -0.3910987293933136 -1.6033828688006773
Ni 6.294027974875358 1.4318171461275437 6.008717904131521 -0.6396593561796791 -1.8260082637785198 1.0714175109655677
Ni 8.997360428735448 0.9717818234778831 12.695795856500656 0.2684051723161184 0.25643642999001637 -1.7711715184442982
Ni 7.170313425228638 4.127289275787808 11.306951609286093 -0.29568354841609723 0.40015261206546565 -0.8276208812267489
Ni 2.626445726573734 3.754111473532394 2.645087263942149 -1.6891988361252328 0.4329426620122931 1.4946887113263678
Ni 1.176591106178573 2.389998169975658 11.630089724738134 -0.04373780720758274 0.02511916366513093 -0.2405963776339663
Ni 0.1890042155447173 0.0339391540002705 3.938272866422732 -0.2402305096541153 -0.9182083017980187 1.9832242801126165
Ni 5.4262781987724855 7.231470124253529 8.142477947068517 -2.4180842137522807 2.785815472064247 2.8440928676489023
Ni 6.791545225332299 3.3528503650069617 13.467618723821678 0.14468317397440889 -0.3580050321631383 0.45446408102383673
Ni 5.9499183643803955 5.241654378694735 8.612647272421627 1.5630682283420307 -3.341765108629096 2.2056429583962918
Ni 1.4553230798325094 7.204399843059382 3.328170072602929 1.8789778739970158 -0.7837442344484568 1.0328684470477763
Ni 2.496140686258736 3.920322624869982 5.212664039787337 2.685937113109355 -1.9801173590525187 2.3749675850684646
Ni 3.4792064834984204 4.3615138051360525 8.86107666450044 2.266125332052065 0.9556559051215154 -0.05086490517066724
Ni 6.3084448224829135 3.0626843398022063 7.55163669948301 0.3178762824630525 1.1029099251468941 0.3671728147053354
Ni 5.938315475316931 8.372248918027648 10.709808032548006 0.45885578233362906 0.6865773608874562 -1.3762135632058943
Ni 3.831045100127817 3.1556106307898744 1.0096164340893556 2.454978515675469 -0.42417494312199205 -0.36624953156011764
P 6.187801039835957 2.1300165400871753 4.078700653607004 2.102705243789785 0.5129026847767038 -1.3326071393698535
P 7.249592017277469 6.63245338911126 10.33108298001601 0.944367733802206 -0.15941199554415125 -0.5854530453406046
P 3.727059952061875 7.725216670261388 11.054335046893675 0.051228716267989194 0.06269197971258235 0.9034918215234505
P 3.0643633350668464 2.7099827758859547 12.902902267359504 -0.8626902141260563 -2.113672798544883 -1.5599628499438294
P 1.1927901275307182 4.872547436466438 4.17900045396637 -3.1562646435280097 1.8947636760763624 -2.8087448271669113
P 1.1357699475656395 1.1741429622452149 9.889235209422985 1.9336955772548698 -1.5704845754107597 0.16010979294212424
P 3.353356877544898 6.349322260266728 7.398359439600242 -0.5512753710176312 -0.37497457013794133 0.9802240813791829
P 5.485577685158278 5.563862011854863 13.762696982658236 -0.1274567827937934 0.18142526659044883 -0.8797016610823882
Ni 6.9822753354507245 6.947907521765571 12.625850226956391 -1.1984816863066325 -0.44257041491004423 -1.1853667461912296
Ni 1.8142528719930133 7.665260593548643 -0.037809284984575725 0.05795780746170664 0.5329290072999595 -0.3048137928521396
Ni 3.041317014590749 9.18018331534498 4.316640546219629 -0.8139621527927337 0.9496330959662033 -1.0743891919993818
Ni 1.531271820937501 8.38387056681474 5.976662226383428 -0.06289483975200781 -1.8069404485137914 -1.7122181798385414
Ni 8.320866035012564 2.136038411371528 5.110923492653398 -0.016653549396280998 0.22839726446461311 0.3529728690558695
Ni 1.05685717012754 6.044382952705499 11.743404083363917 -0.44017286121214516 0.6690902598462865 -0.9953241702454149
Ni 8.070827058646532 3.262784931872452 2.7378090739422807 -0.6391284233768735 0.3807490107278733 0.8916783738282902
Ni 9.12290049924912 3.3110161813181556 0.6301503724740823 -0.5881282781799225 -0.6476886542420587 -0.017423337682769994
Ni 3.928032871280789 2.4084202185776347 6.825844566026213 0.053766652198494504 0.17081175274066066 -0.018172042923336445
Ni 5.7137146841894735 3.8300414549137587 2.917046039380461 0.5556614159004688 -0.06226491947749277 0.26189976709743285
Ni 2.7985568109920975 0.5260733017623666 12.135500128911247 0.13239047264998488 -0.23583932256495513 0.03766871819536738
Ni 4.817187492042374 8.34736414463608 5.662433103681976 -2.0037527390832715 1.4388294382649027 1.3763436610258557
Ni 2.480288719793695 4.281709940825658 11.297204056889367 0.8656942910597026 0.2934688001529655 -2.417249633666127
Ni 0.4277376444667759 4.984965080302837 2.1087608352313 0.29608284073704494 1.270844613450076 0.46596899633964267
Ni 8.88056238943208 6.1026600341536055 -0.21630336536711656 1.3494437513112179 -0.7683937201343154 1.0456254896031283
Ni 9.437360366551186 6.537726164655372 9.363150651826443 -0.11121023902794396 -0.455408447214977 0.86864848859202
Ni 4.588103126968 3.8592409647395995 12.31193720559806 2.8213380904508893 1.0757246229813537 -0.5705072226640497
Ni 3.6877583310627498 9.143395497311909 9.450435893919392 0.015850079658379156 -0.299616050701284 -0.615063926228502
Ni 5.352805741186294 5.762686942718455 10.761165589936194 -1.602618736941143 0.6209070152728404 1.3020799173152737
Ni 9.055009059442039 -0.07132259325850726 6.7181459306682525 -2.9644441497461655 0.9816736693415157 -1.7617651375287335
Ni 5.424580443784218 0.27345673936994885 3.6563611196139743 -0.05310279336225048 -1.6864513552870826 -0.6979624627959463
Ni 8.866980349525939 6.582449345782779 4.991802061578795 0.7348253972605667 -0.4651256745027409 0.20788140389944842
Ni 1.3907333513838285 8.272165792476178 10.718209574774477 1.2942892176262613 1.05619426625791 -0.5164271529901945
Ni 4.236630324949334 5.424308427791622 2.903894535131565 -0.567680551848532 1.0877450444809975 -0.4333738360124407
P 8.971387591373496 6.758575011057376 7.327808808968997 -0.21791616242763115 -0.0036052008527550816 -1.5233228301232926
P 7.155652701213929 5.727653158844533 3.4031404941207586 2.0477484279379317 -2.120630460809638 -2.1102524600094235
P 8.95495407347601 1.353270183300176 2.4709013540906106 -0.806858708978733 0.4467993653897273 -1.5408412986230302
P 7.009964687524571 1.0910467664382346 11.141442071612165 -0.6408472058401931 -0.8737192182467082 0.911810882912107
P 5.709437467202457 9.184544951088318 7.477283472872518 0.29120931469482747 1.0211817547384672 0.4623997909311455
P 3.769653904557585 7.2549854378203085 3.718275711473407 0.049276477637624806 1.3166323612081519 0.6693895362542601
P 5.023375614429668 3.559113526288765 10.012132034877574 0.8831561952898919 -0.8663080133843015 0.4836324750576767
P 5.786230395870676 9.135610212006593 1.2378106502776154 -2.233311627956154 -0.059568089371619996 0.1362548407013976
Ni -0.03368495974512103 4.143000544325644 10.099238121609885 0.8052985635804648 -0.13936870374003094 0.5716202532225705
Ni 1.9493416418329645 6.07218486312111 5.803355209583826 -0.4858225407304601 1.4222291107040603 0.6867012880598302
Ni 8.564826860923361 8.286554500498292 11.119284024049819 -1.0947484723820244 0.2676821781071648 0.05908395064634985
Ni 4.781544017150566 1.3810533339921585 10.998858792183121 -0.2723227622029697 1.1647362144250715 0.15303411704226547
Ni 8.1649914913936 4.57666907541718 8.043496955280148 0.577843865534779 0.4249195345975005 -0.3646616182477075
Ni 5.981866173717632 6.846117261364019 4.571851578389698 -1.6148931834331222 -0.7810198935387581 -1.2589074956928576
Ni 5.214480919020638 5.722775630701444 6.643765502458501 -0.17806354920706752 -1.1881880176901085 -2.7826625282575628
Ni 7.116285421182108 7.470806678290204 1.1645257899276962 -1.2182691533462053 -0.13441958726487171 -0.17406805489442925
Ni 7.027936502759493 4.566895259407374 5.4123706776614116 0.07954607515544365 -0.14819170134829962 -0.5200994596354591
Ni 1.2306941491196115 9.453493728870635 1.7424050064729424 -1.8105597904339334 -0.5394925194500901 0.2073137043214365
Ni 4.174967113386507 7.283181302432091 1.0377926009913296 0.6613221858650933 -0.0650234560592364 1.2549060878429485
Ni 4.063337377942454 2.4481814528056276 4.442831579143167 0.015398336832941222 -1.8027186971229598 -1.2306487579574805
Ni 5.376255395720377 1.4756117209353992 13.2875713383228 -0.21671031504498808 -0.17409170904351307 -0.18503329565668133
Ni 5.083753784924027 8.560915458547075 12.797084294295178 -1.417539932758507 -0.41687609546773363 0.9300628871437596
Ni 2.901585213153049 1.999195607372427 8.902893026451798 -0.451663378350248 0.30264352467369815 0.529780691478965
Ni 3.607438574352605 6.2163814787820995 12.77253813391508 0.4468862686765788 0.4211001608514103 -1.3902574428934704
Ni 6.24088167783931 1.8019089738462715 1.7239266787000842 -0.5345323472313375 1.2196110120860804 1.2757744466515253
Ni 1.3333754963934588 2.3028873933124427 6.647100981319429 -0.5266328898786027 -0.8729160056191224 0.29731388493066857
Ni 1.5173521060060684 4.426178572479243 8.155039458009334 -2.5540690886217434 0.3509062163348279 -1.0599614466098262
Ni 1.5264318122416658 1.8719484020086736 0.270160655928638 0.14597849574706473 -0.30378149493288326 0.893165499896778
Ni 2.0125243910096007 4.680701122792191 13.454920266898382 -1.4764153669384767 -0.9751564370482884 2.0963646462837375
Ni 7.782124291884704 8.275598821899967 8.461649318959571 -0.1949122453332901 0.4543278125562885 2.436651949452139
Ni 6.031907736493367 1.2357686543607875 9.04299064250023 0.25715788153707325 -0.3901247955158184 -0.2478502309829022
Ni 3.3605418516941414 0.12993453577335962 1.48266443903307 2.615767594072805 0.8370617149246745 -0.4223708000337177
P 2.5316903625324074 1.586772463288771 2.9804717269780703 0.5368494254002883 -0.6713407464433598 -0.673190398057589
P 9.155542418360564 8.267625939358378 13.267377433824228 -0.6878675404537895 -0.19605818601227526 0.6698790742961689
P 2.285131314899234 6.1035511210259 1.3744030119662922 0.26019461148086803 -0.5106956498230559 0.8069877783574295
P 7.664922918523351 8.225275863269824 4.46312209621842 -0.14023285151253914 2.0621391494419647 -0.7693265163612298
P 8.336155209768787 1.9375417756714135 7.403260417397865 -0.1321901837137207 0.6897254195981347 -0.28306431699018997
P 9.117694675942552 3.909910978256849 12.384313157338237 -0.35668991289614055 1.3440621752843305 -1.3262734838423416
P 2.9369003928813795 0.4106081408227182 6.65304593773691 1.1035902390433705 1.2712804154359136 -0.015225558700502809
P 4.832082712602424 4.275594270923168 5.165274163946316 -0.7542775924479074 0.08085990887086075 -0.31091553487450324
