# total energy = -340868.44778928295 ev
CRYSTAL
PRIMVEC
9.26183318061710 0.00000000000000 0.00000000000000

0.00000000000000 9.26183318061710 0.00000000000000

0.00000000000000 0.00000000000000 13.55562906027765

PRIMCOORD
 96 1
Ni 8.179782374907937 2.4449016466785 4.0856261133248974 -1.2068845656583471 1.1766481353713092 0.21667431960073008
Ni 1.2620729452158244 6.471196457352313 0.025344080014740155 -0.7866207846653034 -0.4757921530776515 0.5308060474196858
Ni 6.440734288382689 4.74847698253076 4.881111063020121 0.5031684882080754 -0.7019163052373718 -0.15712885593692938
Ni 2.6340097543166245 1.238621983880741 9.886743766942953 -0.2678634408800355 -0.581528770585534 0.5826780536986288
Ni 6.269492256737999 6.497407444942474 1.320323391947554 0.2507254956481682 1.923468757320539 -0.03691461363816223
Ni 5.234936240904609 3.4492085157028924 8.126396242904953 0.051589699151833736 1.606893453057097 3.379772184000489
Ni 3.2917295680013043 5.503677589284853 9.723208506596414 -0.10840259437581976 -0.5995717441301739 -0.1065539712028552
Ni 7.754145574309559 0.7195416232484821 6.6955449136412515 1.450903081599985 -2.540912239524811 0.25092475614316784
Ni 1.4159212543536877 8.299880564336066 4.324761086111253 -1.2598724307092883 0.9477528482243549 -0.5998216553574508
Ni 3.085811233339808 5.072641140006241 7.209615548765554 -0.16795345735625916 -0.9724117844236156 0.5696469315462834
Ni 2.311855414617492 3.7296568210845376 3.7588399309070937 0.39713593672632896 0.0831888141143535 1.310962307406568
Ni 5.026137476158117 0.8819895443925162 9.897832033495229 -1.0147755941018073 0.4394177282136754 -0.2504100212902784
Ni 8.622368330025745 6.1314446348187985 5.616870155975448 -0.49141134767214717 0.000303133062715607 0.0011364275972883654
Ni 8.687664253174379 1.0534316316315344 0.3687432124115088 -0.03405014760617362 0.4455495521430262 2.136628636010107
Ni 2.0874226756476104 1.5771327207827794 0.9324887630273536 -1.2987829917315568 -0.3216560612204589 0.5341425679920865
Ni 6.9176168113614045 4.993285754256243 12.035364930788704 -0.47121224701645303 0.4533641630914385 -1.6398899625877756
Ni 7.1932767490454825 6.560758383146254 3.4694817421114093 1.5535942274133243 -0.8722819715795492 0.8344420179136403
Ni 2.813522602893475 2.7976941301756004 8.069191457126909 0.1255757637209966 -1.0063449468359507 -0.9725094863437445
Ni 8.330805824959228 4.656914500793544 7.775671000549238 -1.5194679751535767 0.44539811416682645 -0.08147774496051774
Ni 4.3061040495735785 7.110448175893962 7.3040575344044605 0.9875550678229572 -0.4901299098565623 -0.9528441467043333
Ni 4.4952028953786325 2.822228725979959 6.045864371061963 0.24569256120995106 0.050948980244041285 -1.5546576356808322
Ni 7.2806065730693765 1.2396222618523796 9.546592759404088 0.9942139679003716 -1.8894846870656103 -0.8212278332162114
Ni 8.663027777206242 0.44704367537475054 11.780817341589351 -2.395986867632609 -0.8487383799316545 -0.17851040693649903
Ni 5.046115250091677 7.073502723774828 3.475270387780614 -2.1439575655713528 -1.3015279014665455 1.0834996389410823
P 5.498852174255004 1.4463556378240998 7.730151869556532 0.32393637261420344 0.4375896738660013 -0.8191853488648859
P 0.14907753892313114 8.24367976126289 0.5227054420961419 -0.5808553986675932 0.8564977121620991 0.1012443860644837
P 4.511661172745316 8.357600308032843 5.319350439877838 -0.3449150317483995 -0.5115083755323384 1.4865928216921105
P 3.393248520289554 5.623136712231102 2.93903618611806 -0.4449648832841498 -0.10630894507158466 0.08337496198323059
P 8.672465585105314 8.510763241523472 5.16258002240616 -1.1127094277358192 0.1283741524017402 -0.22586652762295942
P 6.496175621144068 0.6900047114026234 11.527801659579897 -0.9974360743820951 -0.5300640270473388 0.6958215051935436
P 3.3609154610396423 3.317097728782028 10.109300058532705 0.12271643989533058 0.41320995947005607 1.1160346354543103
P 8.557711473358994 4.7257854915074775 3.8453121091886393 0.8811443070661856 0.09845988134081109 -0.12845565637195294
Ni 0.1319125836931509 7.848440296802642 7.2037055730831225 -1.0937850800274904 0.9424682027866478 -0.43073999793401946
Ni 1.1587942446441362 6.915745921081118 9.104231866829897 1.7022291869466297 0.10908445093419278 1.0803027292703395
Ni 1.353348310127849 0.710189950396968 7.794811504773205 -0.7720657696692639 0.49846696896734793 -0.6156632503753977
Ni 4.40751185986498 8.664370743001497 11.687663676930583 1.0361872270083639 -0.11038542913380343 -0.2779156829097149
Ni 6.866741562303895 7.419145072141327 10.914449731037234 -0.86594883027267 0.839210128726245 -0.2412509804988297
Ni 5.8190800526754245 2.864036640461226 11.255618614030569 -2.1593710719129455 0.2911064705683761 -0.3201095426689454
Ni 2.9712423582549023 6.757424146570092 11.85517041129785 -0.08995364364201282 -0.7151983670582587 -1.022558837591652
Ni 5.449745935314003 4.824210991550104 0.23267391803621518 -0.1200311797536836 -2.6920931054084214 -0.8690755488271096
Ni 8.831991397915534 0.570745644050701 2.8301309219559045 1.12941414208501 -0.029616794425168343 0.3479949562253039
Ni 7.6766147696744955 3.3821991534361753 10.121852620893462 0.6880344050489571 2.49700165418479 -1.0024137301023446
Ni 1.0145411945675473 4.2387149521509615 8.806197192813555 1.1490481142658533 -0.408359059135658 0.9223832591113147
Ni 1.59774956119822 8.942410971784753 11.771775940145707 1.5977603804075773 -0.012533870800952607 0.7904918375849354
Ni 3.0642959951165065 8.319534174112151 0.058507925691095974 -0.6264359155108695 0.194582115687381 0.3916080649295643
Ni 7.017107422207165 6.7159959672447265 7.906076684001782 -0.76025720707011 -2.238892464478041 0.3476442577541045
Ni 3.422302890632428 5.9942027923767505 0.7750931718234018 0.11188566782841376 0.030697171973540677 0.772736056263411
Ni 2.4431233747289203 7.725869197944626 2.363355837407275 -0.015549517698824832 -0.8760530085862074 -0.9188361651900046
Ni 8.493008307526887 5.505965262053323 1.4788517053360561 -1.0932909139998912 -2.232480904524742 -0.883186277196879
Ni 6.0506629267759084 8.787655003005957 8.093577863602135 1.0361286058562864 -0.8005039704052989 -0.30623381312811776
Ni 3.9328799623224513 9.230741097109586 3.481627710000362 0.541381766053003 0.7063378313438352 -0.4738142034156743
Ni 3.7167365639508714 0.20065946584393668 7.702850764213947 -0.30578901228121536 -0.31061368736336825 0.9166658970115632
Ni 0.6412374555520121 1.3310921252588896 5.332933844259368 0.47784337917972547 -1.1676335905775244 -0.48648948489049765
Ni 3.021534111828956 0.7940354728196547 5.587575904156042 -0.43191319230651426 0.23132780784784676 -0.3293266903918393
Ni 7.125952484454361 2.7513664411558194 6.629502486747119 -1.7760728124006573 2.1985287159490134 -1.1950076117151032
Ni 2.292183281175266 7.719737864451805 6.287466696178361 0.8328227371426624 0.05520312753470493 1.1232406662844463
P 2.8250628468996024 8.27230808728451 9.632372152571943 0.5257646283410364 0.6167605972046345 0.13287126894114534
P 2.007687554741713 0.9431046760930221 3.172843752522132 -1.067817452319135 0.6219814792839418 -0.14725170603253349
P 2.294304240948462 2.977420000913078 5.842801459536174 0.053044429320489285 -0.31007606969234336 0.27328461189560677
P 6.2928135524100925 5.02811024660218 9.757802379298893 0.04571627109019224 1.1930931683012096 0.3574758991325456
P 1.0763824539807982 5.828740144568195 7.307527943256062 -0.7177419594157188 -0.3477697275883752 -2.044630708244556
P 4.916690394761323 6.891016826782273 13.013335777476483 0.5820352779083072 0.1305107391287688 -0.3834083027275913
P 5.942651429505077 2.6912386208606534 4.215542771991307 -0.7157951201019931 -0.6451915988518178 -0.46336549727852455
P 0.8839021129216216 1.8669725248981421 12.399794907539176 1.2711343767763528 0.174255488314887 0.5757432742520084
Ni 1.1411782381436115 5.492359629272424 2.73758668591319 0.48168640707489946 0.48756677711507646 -0.345819802950856
Ni 1.6282395156670568 5.7849779833090045 5.00616155459117 -0.831616118429071 -0.3241173782767579 0.7459407904474379
Ni 3.5534041377485828 4.373511670662337 12.406192981824436 -0.09024340696828974 -0.8062082198789275 -1.13227783678605
Ni 0.3798638953795319 9.078096826270917 9.889373201351733 0.9846183537921365 -0.32529134398020104 -2.1740253314910105
Ni 0.20311940870752207 3.5371866680417385 5.996711822955611 0.07127946427127724 0.8756377754256597 -0.3845678702533312
Ni 4.275567785939388 0.6271066768360023 1.1542485369730229 1.5096628161376968 -0.16473135087453566 -0.4657134286854109
Ni 4.812920817036886 7.423775988676691 9.503702136636855 -0.015005729380212867 -0.4914992794002632 1.1627713773892168
Ni 6.123284959883487 1.8569604833486852 13.360319239271623 -0.7879407890283076 -0.033488361565432646 1.2767501803012336
Ni 6.591850356764688 0.11575624208457293 4.311408301373184 0.218423698191669 -0.4441251609916738 0.29219996074287097
Ni 8.585950802391643 5.979828427450981 10.036031549476789 -1.1981962938557298 -1.0247440181684289 0.41380337007968093
Ni 1.314633847892206 4.093202292776753 11.272535352134256 1.0933179105830848 0.4789669512612073 -0.43972446082081684
Ni 3.2250351080589916 1.3768177951290739 12.417485008704267 0.3865715309469213 0.9443314812476318 -0.3377488530172635
Ni 8.078615372276374 6.790748221958572 12.860103380237824 1.7003098584367298 0.408364972672929 0.5141735810693274
Ni 0.37348619712702863 2.163323397662227 10.2857805829622 0.27672089127066535 -0.29043438420201595 -0.91460798604127
Ni 6.3137545569830085 7.208197562122425 5.7042768532138295 0.24314639774932964 0.21414358275907638 -0.028334328168318944
Ni 0.6188145576877795 3.039326093157824 2.3047414006358657 -1.7185430936153046 -0.8275442623525425 0.849209406030802
Ni 1.7427620815866087 4.106928329387572 0.663539949586325 1.1727261746090833 0.04266977095438458 -0.16931485648016
Ni 7.954293786967991 3.0217841813218653 12.478254674031236 0.9582547761969433 -1.004914127926695 0.49968798585864266
Ni 5.6296663045459665 4.455571511668987 2.552877022800354 -0.6851054043276201 -0.06660545583437562 0.659693906233051
Ni 8.951237498701156 7.495416267478772 2.4636411135305036 1.2992828141861108 1.004140482985464 0.16450946467171668
Ni 6.519728462642929 1.437223470416362 2.3094186263365835 -0.20867870298976318 -0.21361804927290953 -0.0023895832780991104
Ni 3.8276470149728397 5.5937118685654 5.09333763218609 2.294177610203591 0.08761008311050074 -0.5303591896902544
Ni 6.448514228162101 8.52460042013114 13.402830126882959 -0.2561134994329589 0.5894215430700495 0.009006831484300617
Ni 3.8899606278726977 2.450310557191805 2.6675718588150215 0.8290632701002302 -0.19367863003650518 0.20796162231808057
P 3.853996930059061 2.8591000834345275 0.45135505866917447 0.6800390455483062 0.3175273837640661 -0.014557328988884607
P 8.091850531734444 8.108558878594037 8.973067639248862 -0.9156055740678489 0.4032032259663314 0.314070278453401
P 5.608058447991957 5.023692352227444 6.772731178086085 -0.47453539785241494 1.8722485256929822 0.39406526822080523
P 0.1222006255351855 4.486885769281119 12.942182671093923 -1.337003468665336 1.7602391878025103 1.1130745243847218
P 7.17949514143624 3.2865058941494136 1.460009432136967 0.7907319786201995 0.532265919794664 -1.4285560813633527
P 8.52662876157363 2.47581764546859 8.244018744353276 1.7590711356363384 0.27137453935708744 -0.26861908809913737
P 5.752709756890588 8.511856137825818 2.230293860230047 1.1282558601108503 2.0747059303633817 -1.5971723691145912
P 0.7662508997907777 6.947949314668039 11.463629196782744 -0.767193529178627 -0.3435191798421374 -0.3932237461561164
