# total energy = -340865.81472707103 ev
CRYSTAL
PRIMVEC
9.30655930659514 0.00000000000000 0.00000000000000
0.00000000000000 9.30655930659514 0.00000000000000
0.00000000000000 0.00000000000000 13.62109026663281
PRIMCOORD
 96 1
Ni 1.0633395263310923 3.6997760486910565 7.643746902351625 0.900361760534901 0.5192548522469767 -0.8025461976463082
Ni 4.128240724402454 2.936600973927542 3.467139059503077 -1.7966820040105766 0.2117599130182482 -0.669783172148253
Ni 4.8102812166847695 3.918498801326198 11.255515474645176 -0.49022735466637507 4.54450042800576 -0.9861337619953984
Ni 7.704704864642502 7.270135086142888 2.2787268237338867 0.9137631215424714 -2.3811976251385762 -0.729093636983112
Ni 0.7408039679307193 1.638326668959674 8.809903432621212 -0.5845187064517933 -1.1580577739636315 -0.319438741854166
Ni 3.2036247684389654 0.14142061120300736 4.238529034009211 0.8576901898083036 0.47734998448307464 0.4830179814021295
Ni 1.0036844823181887 4.042834431281329 4.19251740567851 0.25303640316953196 -2.047483347202003 0.49192608252503667
Ni 9.258286006179164 6.7442307363573715 11.190433776004514 0.01211015299997269 -0.02381612858299124 -0.8975608007509961
Ni 4.006026989928594 4.551679858184528 8.806129622894655 0.1788261384047049 1.1913116509207546 -0.7993485166446169
Ni 6.707897929520184 0.6574292966673189 10.095747897217219 0.5092830857462455 0.3680287349477275 -0.5979252096656864
Ni 4.9996603883881345 1.8294554737791744 11.218343216174608 0.08281343305280577 -3.770115523285017 -2.107994774323499
Ni 4.936664289648143 9.575704818370756 8.412807445107926 -1.0858352290527944 -0.8581668723344058 1.2585421419336391
Ni 6.78561700480127 3.544607788343609 6.250364216371298 0.06388497157941901 -0.13556424239227619 1.2669187960331083
Ni 6.871693370179638 6.067960310734652 10.260794139423526 0.48304497798532287 -1.3249210835795053 0.537416610757668
Ni 2.702699223354016 1.2555106657729709 7.574933273500485 0.8020504889568123 -0.10708850355008653 -0.3570658081783205
Ni 5.464336885668051 2.498764593173868 8.21015246680793 -0.6979930589235656 -0.30796210867313417 0.6168477576018021
Ni 0.494276008587723 7.542817268604365 4.862306743524228 0.5769630055917225 -1.504221076296835 1.5659830879959804
Ni 2.323354566722198 8.974910587279181 0.8718468350496723 -0.8163892741769876 0.3019398137384542 -0.20856068935466016
Ni 6.706259975113589 2.899700466983523 12.676331104968222 0.5879236183682842 0.49852301901626406 0.2744819746378176
Ni 7.736570523098068 8.690455607520306 12.088268246764269 1.3832815257962694 0.6913480428032222 -0.87243135267322
Ni 6.415076353104896 7.543468727743352 8.318876343825206 -0.3662770423639434 -0.5020927386453933 0.06545617272128082
Ni 6.648103287120356 7.277859530219442 13.451725691867297 0.09306287869495584 -1.673639034013763 0.4880213481539918
Ni 8.38409298757323 2.7191811395703738 3.0688313579912765 -0.28760514228333695 0.3050410783715973 -0.43189262348122387
Ni 1.6451856030372887 8.413362116031978 3.0259793064846594 0.05702938211016629 2.4269018120439103 -0.22091406871369051
P 7.318687405115637 5.075974173240834 13.472797603045771 0.25432606851523293 -0.10585257426045641 1.3801144409221973
P 3.5896329214067024 2.775709179716142 9.640095039668179 0.3151246878598444 -2.9739646876420913 1.1375614537824925
P 7.849905800163456 8.107557889632602 4.20461220992175 -0.24717017419674203 1.4025308609441844 0.10425720474887851
P 1.512809105995239 5.739410853825521 5.75052474673663 0.15624645333197607 -0.5012900402384399 -0.3976437296006829
P 4.441304066921964 2.613719211527594 13.063483034052837 0.05869725673089246 -0.9230743716410682 1.7007317764654968
P 6.869413263193185 3.55619445445844 10.377090763603565 -0.16670287277860968 -0.5464530099283235 0.6586415537091366
P 2.3930327749163642 6.620928134465491 0.8025166921669071 -0.4173941727547328 1.9856336608850578 2.025321466392983
P 4.770021041895405 5.724576198574886 3.06123069115113 1.5516892970811276 -0.08427099143493874 1.6384421743976558
Ni 3.2299716373314036 0.6284635620361549 12.50627235001537 1.1315113909336705 0.0010994037117658484 -0.37766497248591085
Ni 5.060004117776538 4.61839858057587 13.586587970852536 2.3960465172259506 -0.3014466761521195 -0.23965432543567114
Ni 7.481514963625739 8.506725517207867 6.393644278088155 1.275479541118926 -0.8417305811552537 -1.0991059780197716
Ni 8.651209847675936 5.023531712552424 5.105347535161822 -1.2010383912902154 1.230363622616894 2.8047773578787307
Ni 4.4365949480030045 0.6699959434583677 1.4291384861515561 -1.0227447283502127 -0.3366908440663943 0.6467046930622347
Ni 3.74405665702388 7.600834358210674 2.2850059591778034 1.2014759930482661 -0.5646533349864341 0.1881844396911533
Ni 5.091441674512199 8.62181042738939 6.254001219678668 -1.951509208397523 -0.44326178455011406 -0.04046504999358192
Ni 2.4272064600357686 2.5354789689353194 0.2707250130767793 0.16857874964508385 -0.5989572504746266 -1.0113015195102777
Ni 8.73921267079388 3.6967793366517188 9.37546396150866 0.04106977345711636 1.356078483018916 1.0269734217195796
Ni 6.214408325178809 4.274781804437896 4.3773959253873915 -0.8565877007727442 1.1440555461472683 -2.4396244018169013
Ni 0.5090455179244591 6.141054026128933 13.654870195177446 -1.2522992463477207 -0.4354479449326501 -0.33440204803221757
Ni 1.8653415657782002 3.6423173526324506 2.129997771647364 -1.1100185111672172 -0.8096406425992443 1.7925432992518548
Ni 0.553979446708094 0.448074526450803 6.508688239409513 0.6843199323118473 -0.7027048625769382 1.1577698104095673
Ni 2.941012282954393 5.020711825136525 3.9703437809185664 0.28565341787360476 -0.6182932317990771 -0.05046946950446147
Ni 8.716290615660684 4.489446897293064 11.950381336062307 -2.7416076671987812 0.5436831604926702 -1.5149389769349717
Ni 0.3614909535999377 1.3727733107905344 1.3265755512772657 -0.0948017157629335 0.5016885612284392 1.0225979183597034
Ni 7.709842085281367 1.5375645532767248 5.021537316931213 -1.9977816091015013 -0.17447094675980274 0.9281517861639756
Ni 1.5639858746421902 7.96916935539362 12.405285015601514 1.4045730881851939 -0.6278122270331059 -0.7402460540555057
Ni 5.521376786565879 7.863409617458733 11.014721286381173 -0.5997257532095348 3.1872022136471303 -0.9726100164773509
Ni 8.77254876559173 8.734252274778454 8.357764731799048 0.33381840761460574 0.13051948087951715 -0.7285372502590098
Ni 0.9151884115664418 6.54152457198217 2.565791362672359 -0.7883385386873584 -3.176076278937298 -0.9253140596048645
Ni 3.086911210409976 5.624307330525742 12.854168282040574 0.23322271087771446 -1.5217768257924116 -1.4799632321907352
Ni 8.115524304246494 2.3680725833340546 7.646852501132765 -1.6287671132017367 -1.884527600170651 1.8102335174427664
Ni 6.018160912838701 0.5266544584512631 13.234250948811273 -1.3944588825693274 -0.4329246642901641 0.06622159013239563
P 1.1309609849578872 3.704382795459604 12.467152228719232 3.309374865223849 -1.0815348019052275 0.9539363513272473
P 8.67275453205813 4.975267896912655 3.057430823059013 0.5397331747059866 0.08942219661857503 -1.9155101645950947
P 3.3571178481433046 3.2725863715802466 6.726679496497163 -0.19060230510402656 -0.1521979942942153 0.010220649286743688
P 5.876598841936942 8.167315305795919 1.6603152762122928 -1.5138442012088962 1.2611209584044087 -0.5197495324952082
P 8.007149423196532 1.096563942419402 13.557656670490148 0.6375536226905858 1.0383600662899666 -0.32969975746054186
P 4.492713499547124 6.4427819796300785 7.899115162210668 0.32693325045899824 0.8315484984159291 -0.743211564441733
P 5.187476058157932 6.162207835027736 11.96582836290359 -0.8322923185604892 -2.2440724660170837 0.8791432174757569
P 6.430404255989335 0.9228560856323125 6.97770345455508 0.875558328337976 0.14270882385685743 1.2891997189184958
Ni 2.247319978643349 2.063897004782146 5.1054703817423155 -0.538596232888066 0.8237161468557039 0.5503695713739102
Ni 6.4108418687014845 4.518855624138738 8.368770668624267 1.0888380204348602 1.9443075484427614 0.2996422759535291
Ni 5.619225949241647 8.985566597481174 3.907101058361673 0.15475264239526895 1.1133663445935276 -1.1314807948060512
Ni 6.033544655077909 2.361260182052082 1.4527985514236317 0.4111659324568338 0.5681819169649828 0.21075769700597896
Ni 2.615161728192492 6.1316637079684 10.67863444723397 -0.2948775075750341 -0.6835809972632938 -1.0921794261032673
Ni 6.043874935710409 6.952865178897351 4.861503587471448 0.19845214016574855 -2.2399615291725037 0.3067989416029684
Ni 1.9707662675844668 8.088209553204706 8.688416540415279 0.07857522660174208 0.7332580527734469 -0.33678803176589095
Ni 4.246945886084917 7.825178272559356 13.311605206974525 -0.09875170154961703 0.01802189049871735 0.2351482100352015
Ni 4.968930130146229 1.8801483013514497 5.827810136362333 -1.2275392657942215 0.5514759170642115 -1.259501677633431
Ni 8.47503668337574 1.9035636041184487 11.300982669266865 -0.48156068013031256 1.42180873533719 0.0407373298183621
Ni 3.6096699432101005 4.797968638957925 1.6063074522784893 -0.43019826649793647 0.877571759223579 0.020481922003435696
Ni 2.220256504698026 5.878730043977341 7.879092100245963 0.6716071127308691 0.2697058934054129 -1.207026233442534
Ni 2.587242050807358 0.7938085447904838 10.070739311527442 0.885465817259675 0.5149883636611389 0.11487560369467313
Ni 7.563403377396337 0.24507520546305653 2.3069629241293854 -0.22626144906853288 1.5290949567203793 0.3881661291275509
Ni 9.114276310226643 8.549777659735744 0.46678629423431994 -0.04724016393388638 -1.314876811969626 0.5426374928369752
Ni 4.440392024127383 5.078794060656733 5.919412736551133 0.4647351239325415 -0.05441019931976435 1.3094458707620416
Ni 1.5929478866497027 3.047209429168315 10.402426009518747 -0.5825980923903128 1.1810709470293532 0.7638392679944136
Ni 0.20097700568914992 0.39257951436828464 4.331805884185206 0.32237365611277385 1.0918503248986229 -2.439218681738051
Ni 3.3949210913227765 7.031012355898342 4.747821175750572 -0.16181109190394713 2.141438655804241 0.745769040756264
Ni 6.848361826444794 4.60204695618731 2.152541049824034 -0.8581763854161026 0.5952456059509943 -1.9863612830797015
Ni 0.2637832506229221 9.40204442503522 10.509365819151114 0.6090115493868351 -1.4742821226455578 -0.23208114107410352
Ni 0.06622175213388694 3.7727115525801556 0.7413139673709546 -1.6163684824270677 0.37794008052416844 -0.1501863631808252
Ni 0.8974138142871526 0.8751850978090217 12.619122755350169 -0.4412997757277368 0.9854195095371932 0.05941870827794928
Ni 8.853283166030408 6.02665780132291 7.751026401392178 0.8708064154752874 0.422121403027073 0.7575886590990114
P 3.180479355886689 8.13167118433423 10.601430955328595 0.5149721657112227 1.2292765602003022 0.8725817622081553
P 7.203844465471451 5.770448228518662 6.477795116382862 -2.0861743360142975 0.09247255340912462 0.11909041310696909
P 5.877343366667212 1.9560153713659876 3.7317840975012873 2.155019222702153 -0.5841068157253554 -0.8601995864937184
P 0.9881239154555408 5.359796306978979 9.489772704658876 -1.5058439566122388 -0.38942314146310353 0.4710934620504016
P 9.346018939082386 2.495544523715449 6.107901270545912 2.3566860131504574 1.0012986426612949 -3.163365773349165
P 2.257063946050761 1.5007198856874762 2.4023514325716095 1.16891631394469 -0.6610589049013776 1.0899291966165099
P 7.774587817137492 8.090945681588448 10.025054343422147 -0.4310472447617931 -1.1315036776241867 0.6192252566950432
P 2.5314213091553466 8.58748783732393 6.3679414230874 0.2740690554701151 0.5450507302641581 -0.06874564210583001
