# total energy = -340868.00655750994 ev
CRYSTAL
PRIMVEC
9.20094940652801 0.00000000000000 0.00000000000000
0.00000000000000 9.20094940652801 0.00000000000000
0.00000000000000 0.00000000000000 13.46651950267097
PRIMCOORD
 96 1
Ni 6.916721488610769 0.950412038957684 0.21623610565432994 1.2425308541070472 0.7021160799530037 -1.4517428038924611
Ni 2.118610543495777 2.669554175624604 5.157595707464498 1.010914054263872 -0.7693961932569008 -0.7032378522622728
Ni 3.9936719638857903 8.333041987965377 5.779614831326132 0.7031635473809116 0.6837568607195257 -1.465628817845934
Ni 7.4382496864151095 7.397544687525049 2.470176969035884 2.578887433217004 -2.4693365841693535 0.09163823043328734
Ni 1.2778370142067101 3.1321870981361615 11.788173199130975 0.4496550896709675 -0.6587886208099623 -0.34620418287346827
Ni 4.064565276826097 7.981188492812844 7.983154735638976 -0.3875223248959649 -1.206861939950528 0.954189604988634
Ni 2.5552415838049587 5.015833004051588 5.134150769021513 -0.7471355820864874 0.8310399342106268 -0.02369040163840436
Ni 6.785221523842066 1.0043940074224182 8.697809015202493 -2.1467824366146577 0.4065351185530418 -0.13086735113723913
Ni 0.9848051867540325 5.203789992597283 6.802881825575696 -0.9909121572206484 -1.1931111660233387 1.3511589342301118
Ni 5.128931070587894 7.015530481169621 2.4929898022745856 -1.1320729198640955 0.008723753026243041 0.8402033458774497
Ni 8.106533022622811 3.123390990781076 12.033883625184133 0.25871057073617376 -0.35889874762200125 1.2155504688634615
Ni 2.448768200632314 6.817544458087269 0.8663291654593076 0.01738862779009263 -0.8151230058700543 1.5247896444768063
Ni 8.93007317421724 5.534895347492788 11.209194275045093 1.1460836323208907 0.07539014400554113 1.074606964437143
Ni 6.43100338476667 5.155945057193052 10.008882617901646 0.4996435057739524 0.8295368673025391 1.8345908632412082
Ni 1.6859543132047936 7.294135220408099 6.13577713094978 -0.11095647114592504 -0.34820064447820676 -0.15125054277928146
Ni 2.9485085509294984 0.9356813194226509 11.811982495158961 -0.031511954565352183 0.7666985918200795 -0.40448337823033564
Ni 5.767513743048509 2.402855464542486 12.088315520060652 -1.2864082722162877 1.3131251193858415 -0.2288983724707477
Ni 8.958255681360155 9.132098413961602 1.2811695979765971 -0.5934869713886747 0.3074957105596769 1.3143062841781366
Ni 8.934305610810691 1.490084508419168 8.124404946186115 2.5343579833460614 -0.08895836960827906 0.5253059435370631
Ni 8.016299314640257 -0.22295555879388942 4.070766716530414 0.0016956425348680477 -0.38830522580857646 -1.60057676681045
Ni 7.9447251314653515 4.410042514241104 6.293335103710468 -2.0575834117504823 1.3249753338562082 0.6198448925569131
Ni 2.669351754744048 4.790556965890593 10.998173267349824 0.47777010273962883 1.0965279328799504 1.4047031860051549
Ni 1.8196349029140357 4.238592028409868 8.932920867968704 -0.6128355511186155 0.583286376706589 -0.6373726170280313
Ni 4.500938690560025 3.650605375139228 4.982948811910295 1.0619797625914353 -0.7341615384243227 -0.4148660070162403
P 1.7914431948220046 6.447868724496662 12.328476853701831 -0.14818450225944801 -0.7354609739620366 -0.38540707832517496
P -0.059159342532419 0.8509479388217592 12.53499951737419 -0.5298938200180616 0.6308813528767329 1.1751589524202923
P 6.110736747930047 7.88657513305098 4.83993385932267 0.2327061762526121 -0.9311257811906352 -2.597342040377766
P 8.532794593278037 3.830023882905091 0.5918455313299739 0.3086982155082103 0.8559099579794293 0.6355170518765313
P 4.885124320906877 1.1508823183014085 10.280744901627774 0.1175508365339911 0.14474282356775073 -1.2721435347671575
P 9.265263750520337 5.510899272197743 4.87152715830296 -0.10047022690262052 -0.06832320985643071 -0.25810327616947804
P 0.0015706020141350177 3.6340988724247683 10.024826942625104 0.018808390955754702 0.1931240430846158 -0.10083146689678119
P 7.329595678301927 7.043280543704074 10.97934720536317 0.09584198410198977 -0.12212251506507354 -0.23432699968548676
Ni 0.6985516985152581 8.272738967457814 11.467696780654503 0.20942098047242644 -1.3809531347734088 -0.29021326933014535
Ni 8.02730364978323 8.024166126134606 12.883257281612112 -1.6623027830653372 -0.4519536558971571 -0.4245693503469333
Ni 6.370231115854182 3.363397748477104 0.983925576018524 0.8445539095366617 -0.7337473337050395 -2.8509949940853736
Ni 8.008984560092879 8.445008337760392 9.406673137487186 2.839668513328961 -0.7501283461662241 -0.2537565691650081
Ni 9.183835350841983 6.044241488667283 0.2639991526114259 0.7069186435479696 -0.23488364351990515 -0.4435970564023457
Ni 1.7250951507451002 8.93241941624187 0.24040699898258236 -0.01535642785141226 1.0792709455717153 0.21121046827268142
Ni 9.070406050137493 2.5766797952457003 5.971297284168976 2.3133742377366997 -0.0679740540471281 -1.2909233864778218
Ni 5.434595801177112 9.136938113196722 11.971695330202662 -1.2250005585327675 -0.8009168895730013 1.1054663730201608
Ni 3.54798718964627 7.585124437156981 10.256275897548155 0.02717450353226288 0.9847520511565234 1.213166027791685
Ni 4.059900395624184 2.975844570753723 1.6358993098228525 -1.7223938348199626 -0.8477896428651399 -0.4291304873550545
Ni 2.7072320622554353 7.107263943858116 3.6016204421395006 -0.3930239714404844 1.2176088940543868 0.19312327175366742
Ni 1.605768041657127 2.1730065546707404 0.4798212155555269 -0.16803059045109772 0.1315090984862961 0.11606216780360656
Ni 2.9231139313687917 5.034759356383607 2.4933799225171125 1.2748344513357595 -0.18438743454256631 -0.4161962957918897
Ni 6.152288234138797 8.444088242848771 6.796027118484129 0.3005385625155534 2.3476231316172407 3.218364755292864
Ni 5.853119373625615 8.220707600205714 9.839500505431731 -2.027791010979398 0.0677447116451414 -0.46801045224970367
Ni 0.5965637780367602 5.523182539267868 2.4117187388261194 0.3923115187544921 0.8249780442872631 1.4191412158073557
Ni 4.494314007196362 1.1546547074390496 7.748648305324612 0.04694628684255141 -0.5849375391567668 1.378883910949206
Ni 5.108845398667234 6.327722730937347 6.2519391135417814 -1.419575218020981 -1.383408795402753 1.1707795924056739
Ni 7.562508504229365 6.85106351571758 6.0885090950551355 3.0677225355215425 -0.5394647515359484 -0.7441307338218925
Ni 1.799061580690217 7.006338733002539 9.03013625614063 -0.2632899625767401 0.08937951630609768 -0.621768077721555
Ni 5.035237805737649 6.817636467578431 11.79229430424012 2.6337887132405737 -2.112593963658407 -0.3848735744192081
Ni 7.168919503885759 0.8035961742901572 11.1081411709968 2.8916382215280327 0.10024885492043381 -0.44400149092961594
Ni 8.013447020414235 1.8772144424832038 2.3903743770663626 0.390271862616644 0.4860979058790339 -0.7339597068261619
Ni 0.3389031592714831 1.2752699494032909 10.353126928135083 -0.3870335581850044 0.7077902475196456 0.4925796569486356
P 4.125466359026213 1.7071993047140948 5.805510902613672 -1.1253481995457522 0.07344561868466061 1.1442342378169779
P 1.6247311977856111 2.720840265998292 7.329112628473326 -0.20517454649124667 -0.5428596361501103 0.6590848118941423
P 5.825479722480557 2.110164072207107 2.648177610542941 0.1110891400690474 -0.46793280493423284 1.0635949295973555
P 3.4505491385057323 8.48109446019412 1.9192351770968803 0.016700086363500274 -0.3402618492471043 0.06461207955343067
P 2.9641501644270356 5.923009783112256 7.410975312949964 0.12857238445547534 0.10982004354863667 -0.8127233952896261
P 0.48706972326926784 7.726340604192389 2.862901080162568 -0.10451842883006517 -0.09084041712234033 -0.2128922268504785
P 2.1375644986751454 3.148951227425874 2.821895210236408 -0.5321993282227867 -0.0638281501995546 -0.32769326855347436
P 5.181882532751614 4.593472635821629 11.803094378312714 -0.9987931026306218 -0.6027601691604846 0.06411225709887669
Ni 6.398505632488258 5.370290367804004 4.587975988819613 1.6529524521986887 0.31842264188482583 -0.6945578079897716
Ni 2.165572187784852 0.019453566716377668 5.012548265217105 -1.6890967633297296 2.3040120797955095 -1.6814040226711622
Ni 7.136072115540932 2.9545443735497243 9.941132349179432 0.797989174403245 -0.38511782921953025 -1.18684307362644
Ni 3.4843166217621793 8.054851291437126 12.611934173504194 -1.234541151033351 -0.9107487601961799 0.3643219755201016
Ni 2.236382692183113 1.0036211276966576 2.576198585606923 -0.7109311071414725 -0.44620621189041865 0.08176313741142048
Ni 4.423862339813633 0.6630599573944356 0.44812670613495936 0.8105215025423009 -2.174165970833933 2.4371101200354803
Ni 6.447114246669133 9.243825539079596 2.1628441063719 -2.4343551829981624 1.3084842781797206 0.8895353593433583
Ni 2.717730345197017 2.004334755472597 9.365520052375167 -0.21257135317595002 -0.6557583186240706 -0.04207018969717271
Ni 7.449714069013893 5.051560289469784 2.2228775390703577 1.3804707958203515 -0.11147480554324027 -0.4738761670018613
Ni 6.600043221929463 6.621150199202021 8.211021761071091 -0.12996720792047295 -0.2490578781377582 0.00016377927137391148
Ni 3.9949324939147095 5.507108481161869 9.216970728894147 1.0110454376354137 0.5493956374964152 -0.70224052134601
Ni 4.799629101719164 3.31902157088968 9.844052214959515 -0.6643324334463269 -0.24961632174438947 -0.005706306356157914
Ni 0.13006553680148814 3.5305513910710746 3.669344028109277 -0.10787089024206584 1.333508311027884 0.34478339126654167
Ni 1.8355617458341749 9.327278147563513 7.45098472008684 0.48342293015003196 0.7844191490282942 1.114361104406629
Ni 4.247489346205231 1.0383363087120732 3.886437662221236 -2.2184707062885796 -0.2079166280127581 -3.515254151091604
Ni 8.906684361563865 5.942994244592639 8.958453501766153 -0.8869665701749176 -0.38773418379645486 -1.1910177738294196
Ni 6.002110342664212 0.8342555769351526 5.0240218487650035 2.4569358965121557 0.498425059985819 1.8771097104400254
Ni 4.875086085421105 5.474132279529415 0.45536049233011433 -0.5119300364507893 -0.3739823814280011 0.24894809203277124
Ni 5.445958973335617 4.295693118624993 2.7819805728754288 -1.4535112086467934 0.9597323891837343 1.3841695848281774
Ni 7.050714910589962 5.42191689329499 12.782514249549035 -0.24057478036741148 -0.05375199691047517 0.12774011836216712
Ni 2.468071791878098 4.582882343388885 0.0379023897892665 0.09458625731801776 -0.9872581054078288 -0.05830979148448667
Ni 7.066549744018939 2.8443998116797164 4.419428402434537 -0.47238724116116065 0.9249484487353297 0.28273161624111953
Ni 8.959350594304983 0.22208514900749707 5.93103209064667 0.6243065278726926 -0.7645380938336511 1.9782394253035158
Ni 3.8391144206318946 3.597433090196719 7.296671922079435 -0.35726378312173956 0.3488976705452314 0.7023456794653066
P 0.14355780858548103 7.846118559787056 7.7945960050210825 -0.45713571431872885 0.18341710020949703 -1.1305469701378725
P 3.8091469293604376 2.321270648729157 13.100297550219198 -1.6513737948576592 4.623958828543405 -0.8688966000470841
P 6.268937867033958 7.228964897818068 0.6391025260856789 0.17057006904349978 -0.22491393390170297 -0.7436087998801516
P 4.3206368916790066 5.635627338416924 4.183333888302717 0.049661886001501565 1.2299982688576752 -0.7023461936859389
P 5.76349292828473 4.548654812676628 8.036105277707785 0.40892213072797967 -0.26719701094063014 -0.6599289050619925
P 2.074068748824262 9.203893419915296 10.15001137592045 0.3319142486133574 -0.7612846198933598 -2.7342396568694842
P 0.3887493011084864 1.4470884731991742 3.8579828069844817 0.35876350759571757 -1.68166318986982 1.1777763354384814
P 7.382271111992161 1.8800483348109926 6.827834799578825 -3.0251059864025964 -0.3795722168109527 -1.1398242816747404
