# total energy = -381160.79542037466 ev
CRYSTAL
PRIMVEC
9.27888671357095 0.00000000000000 0.00000000000000

0.00000000000000 9.27888671357095 0.00000000000000

0.00000000000000 0.00000000000000 13.58058862955789

PRIMCOORD
 96 1
Ni 1.4915068323930099 0.46118294650017005 5.6187649886635755 -0.6447997627300379 -0.016263770157030052 1.2902973228580488
Ni 2.372796949021043 0.8225176472275197 2.511444860218279 -0.5897714702103004 -2.735855338096037 -0.7727162587690692
Ni 3.5234717091027714 9.037979124955458 4.647861238474399 0.8163851604119295 0.2559913720327978 -0.1935369622523183
Ni 8.514584953582744 2.1008977272270357 4.934588121478072 1.9725246343069254 2.7610300375894514 -1.565404589784691
Ni 6.541021390798913 8.056811070116638 0.024409039786073658 -0.49468230511393513 0.5479627617046304 -2.021008697950242
Ni 1.2337022397463626 5.572055072187069 5.121878741285713 -1.2415178394615005 -0.20499482638027278 -0.31575435102404326
Ni 6.652061829907839 4.687972010612786 7.93284328582792 0.8427857618926453 -0.06652240920226607 -0.2968785971654629
Ni 4.0383293045600315 5.665771829519748 7.662534465242508 0.29021069822698403 -3.1405611167498235 -2.40184306930307
Ni 3.088486771776174 2.746504117493679 1.7497363980580571 1.0332271159387754 2.299820667421981 -0.4718287975545294
Ni 7.960858101049586 3.631552183301884 1.5719529257319065 0.1226822442232855 0.0008263525560372866 0.12535542018007442
Ni 8.848513534066749 4.749296173901071 3.758903049741443 -0.212935164273272 -0.7682276268700963 -0.16964267213322398
Ni 4.6221104716477015 2.1597444277224658 5.7630860112898405 -0.5563993225077578 -0.16708673848058966 -0.5410917456164102
Ni 5.833107275236334 6.361094495607034 1.4296148012286107 2.671060195997522 -1.856320798719132 0.13098099389696796
Ni 7.380343102138262 1.4481465940746332 2.533377365100185 -1.3894408605294457 1.173298502172786 1.3118812196764116
Ni 3.62110415669232 1.0888031424684312 7.433593705965639 -0.8389674165878197 -1.0637692503916905 1.1583264542439857
Ni 4.886920623877138 2.823017818579349 11.872218829308881 0.4278094545507858 -1.215061702152501 -0.23952242784349717
Ni 8.748746942498338 6.396892441130745 8.03149269941783 -1.7651762200928116 0.40822124800621307 0.0875270364783912
Ni 5.421922682717492 -0.05653440188876666 6.325593474462992 0.955428876712374 2.1188993370511446 -1.0600331803880259
Ni 3.586577418669063 4.286112699392888 10.419326084602995 0.3843498407052542 -0.4991863636318758 -0.16644550535216493
Ni 8.231996454120694 1.9149302766862888 9.63556356414294 0.5809700698685866 -1.500148191779042 0.6307998489065201
Ni 1.4444907126499722 0.19535582827037087 13.560598587974626 0.10389365076187268 1.0466341333733007 1.1254824111307713
Ni 6.685920488076844 0.9321013010987012 8.035117960515839 0.3541272943752869 -0.13974202791904966 0.4104449951304092
Ni 4.784342529588746 2.9560492195574293 8.028925231422392 0.31711137927256994 1.251211669710497 1.7621230350887847
Ni 2.400299569687782 1.128832260402409 11.511925219687742 -1.005465629554791 -1.1327385784725525 -1.8525484761608932
P 8.877649238821661 3.9360945290856306 10.743834739142033 -2.4426133092418962 -0.10880908578561906 0.6602670051277015
Ni 1.4469310598953675 3.306865374135044 5.802714281311267 -0.0898986220343613 -0.8255490862993846 -0.2702172858241927
P -0.1515335013861358 1.9965473655475006 6.933366131427828 0.23989112403682555 0.33787715106501165 1.6915614228201383
Ni 4.347102822754046 7.572731542389327 0.43409787574233955 -2.222101103952315 0.8300724280910351 -2.52138702500769
P 3.456737954772412 2.0403529904353794 9.93007264955997 1.8049295887313495 1.2104884809595218 -1.0180846038703821
P 5.600559812635188 0.2271564293328021 3.8927806852015765 -0.5980632779054474 1.2133187513194652 -0.39788824151132124
P -0.14485270284360827 1.33615042961865 1.4533947324852632 1.955846402320296 0.6622583245261175 0.2185643375345913
Ni 0.9144268773989699 7.95363912706891 9.540892937240576 -1.7858098371827633 0.7487036979045557 -0.5716261667598413
Ni 0.07138062087216127 7.480118972593538 5.766861590355056 0.29804073579436413 0.5468273625486066 -0.16705279991886068
Ni 7.190506355774968 2.978160806955823 12.75611167370244 1.5873828938279952 -0.15718310621363255 -0.9441088237138644
Ni 5.837338447646602 4.1987705373362045 0.43794583012509813 -1.6450259982627606 -0.08425607903660327 1.4394328761768564
Ni 4.741307052310631 7.82611010600155 2.6978382116661117 -0.6187655434498053 1.5047967462946472 1.6698633690214146
Ni 5.481159096461237 0.05503400588275734 9.719518932494035 -1.309898642028744 -0.0435485740149121 -0.2368366534812179
Ni 4.500622005929211 9.079873299149224 11.937717563797557 0.7073822134479494 -0.8523096422226806 -0.25030049229560764
Ni 7.228410608616947 8.506697899747818 2.0622121921110548 0.13631089075031363 -0.5083680301311438 1.6485070148328254
Ni 7.515963312551572 8.180099639886866 9.243804321275181 -0.5202694095544201 -0.4077918737782783 0.9840452548974858
Ni 6.330093734592334 3.3604787824388276 10.118380235367976 0.6733724321614081 0.564987321287085 -0.49145865597031485
Ni 7.729173574926848 0.4048526801224251 5.853953222466394 -1.2311894609522989 -1.336707534691472 0.56244604292247
Ni 2.5819801744970734 6.030793959887099 9.187757060946808 1.089705510641478 1.3629554126444074 2.5099497297050255
Ni 1.0676380015302294 3.3277057540329844 0.8101368284840551 -0.1283705528573144 -0.042636603723603984 -2.825456226384321
Ni 3.4786082911123257 1.4328178729742782 13.24438804195862 1.1992388761876316 1.4308657033331358 2.903458611201729
Ni 6.61515969684724 2.700285982020999 6.660871205097111 2.19848115054053 -0.4973022592352855 -0.15308348222296214
Ni 6.849924813409031 3.3768652966417494 4.329111061123545 2.5718634364906867 0.02792886519978416 -2.2389963370457564
Ni 0.4850269020761883 5.442642437086192 1.537689708095605 -0.16847513418768406 1.0208469971068677 1.345681456055308
Ni 8.839568687129253 8.901709392461624 7.554556058798906 2.028148137208501 0.8789532129521379 0.9900927466431464
Ni 0.9680848243597038 5.997937421499473 10.655805011568681 -0.20644749966639928 -0.6955965336669311 1.475814500129684
Ni 8.585549880323372 4.325566526341259 6.304448747075893 0.19605715757101072 -0.5156635353512925 -0.1297795173896991
Ni 5.626438628100617 4.4444197881901975 5.594822676886792 -3.147946096359985 2.160696989813221 2.0079292390584644
Ni 4.834958857435256 2.8598086049975735 3.66498030112037 -0.9397932270576459 -0.2039792406315648 -2.3776605585195956
Ni 7.3588346423860695 6.2074082924683065 5.899190579597484 -0.23836157476617653 0.45565810133193785 1.2821243001289533
Ni 8.164919380976345 0.4577126428128016 -0.114401251931293 0.2304178944390677 -0.5471806321229673 -0.4047206910521223
Ni 4.891123959626812 1.2543106474726873 1.5868780152536504 1.2887652024842384 -1.1085578674612908 0.34146923929164413
P 2.7126269015509457 8.251779040916068 1.5679880573746539 -0.32913694297853635 -0.7773126198905 -0.07864773171089036
Ni 2.7573325784646925 6.970531784875384 6.0872541306809484 -1.2118655638127065 1.5680762230795833 0.1418045668750332
P 4.945312658916202 4.7628526276102825 2.505305948668645 -0.06425469621401193 -1.6518841588351745 -0.4515821314903513
Ni 2.835238112580056 5.906651732525327 12.954876565006872 -0.47128398079465283 -1.8666327221681016 0.49556367927762396
P 2.322440430006741 8.703122655784993 7.582354675956626 -3.2635094701503027 0.04829997265696843 -1.116317713912368
P 3.108761139575372 4.756143992407161 5.893296630661077 0.4386011458496511 -0.6295094122298707 -0.35085170894780865
P 3.9423484988323856 6.8606697643982635 11.387459159174394 1.4084125165359422 0.49371711298718846 -0.8975008940473381
Ni 6.546106220800725 5.83299592859396 3.8305137870078467 0.6108614581113802 -0.5110252652483328 -1.560067236732178
Ni 6.588937562567819 7.3104916418213906 11.48659757010207 -2.1743292358846746 1.1917446246931154 -0.7971394248084401
Ni 2.669619260933424 2.0490380285406653 4.220412613059247 0.5598610558041133 1.1785646356677315 1.6557616395127097
Ni 1.3586053358310344 5.541796622121539 7.557462206164906 0.2781334553474758 -1.6799523778263004 -1.7293047030071833
Ni 2.5270862798059714 4.537329282365654 3.4443497129194562 -1.0657924514693065 -1.9402184659750517 0.6183785924240317
Ni 2.9649940664949246 5.985095442078837 1.8347922423912977 0.6718976473880944 0.7903722812879357 -1.1180982028515585
Ni 2.12040194741647 7.848509338892747 12.214721101255796 -0.22811727133034906 0.701320837745218 -1.9434940514025303
Ni 4.2488858052920255 5.937485473576464 4.0906501639235735 -1.8997981531764767 -0.36761170201496685 0.2507074979260392
Ni 7.053809794485362 8.054333607323784 4.414859110416885 -0.007099072938626483 0.011309768585864393 -0.019021278297509176
Ni 1.532185472407511 1.4651362359237554 9.343200685257694 -1.9327111018544134 -1.5605043242695962 -0.5380182488974089
Ni 8.856122221295738 7.4807963313346555 12.34828603822859 0.3723777559450425 0.33260356137089814 0.687568521156132
Ni 7.958148666085116 5.970072924245015 10.46221402757996 0.07512686304182545 -1.602060807555144 -0.8955987919286189
Ni 5.394549966466858 5.803479789477597 9.426191977263558 0.032529597196589134 0.7522986143446656 3.221593803753122
Ni 8.992818782585344 3.7820186126985886 8.671748883518333 0.7815410561495508 1.1645143282222525 -1.976602661031041
Ni 2.0690618663945184 7.2562843847582705 3.7243679607200075 0.4239258032256635 1.0083840887531665 -0.7457176186930383
Ni 4.980785843399651 7.215809880254792 5.668402393945868 1.8826288404860414 -0.9598126076023663 -0.5256653837590108
Ni 0.08828489696212895 5.230304390076191 12.861619112573994 -0.7779070589413893 -0.5976742699971449 -0.34780829413579456
Ni 1.4477290441657251 3.8028589925965286 11.480554231087142 2.6961307658129052 -0.6219236294628128 1.0196529767987665
Ni 2.34749342454122 3.0436604693331866 7.98711085565566 0.2285798127890644 1.9517904870833678 -0.01087653770318772
Ni 9.056388436494867 7.147350252967613 3.4070300299499476 -1.6311947488066227 -2.2901301796070945 1.1393802521587861
Ni 0.4875507593033654 8.376097567128268 1.788332855860137 0.11022190697274567 0.252716557936268 -1.348540008550026
Ni 0.8318447843038373 2.591723005704926 2.8653276869046507 -1.1351824120273546 0.46399875998714923 2.2325811775480324
Ni 5.84572656137222 5.06037085603751 11.89510242009441 -0.4139843757422354 0.7519468874322018 -0.7435990296881387
Ni 9.129867941575807 0.2134116142202381 3.8287071877353047 0.5444974288638494 -0.5772293718792316 -0.6741316789249359
Ni 6.95885894519969 0.8952641202461533 11.353548539238949 0.35164180894927183 -0.785454275161028 -1.9402606320668974
P 3.480714598430595 3.897132483141084 13.025645707234656 -0.25783562433038815 -1.1107546180022936 0.7647617798086829
Ni 0.34818744592886725 1.8233662211062025 12.233272379764232 -1.2822909076138045 0.26009768089168755 -0.8291098070674496
P 8.035181984835205 6.763362077848977 0.9564119846840098 1.2324104778435936 -0.5541609200955424 -0.22888577406525742
Ni 4.245508290473303 7.956988805227038 7.800201598098154 0.9772899384515233 0.6678553589979208 0.7823085304431946
P 5.906132114860907 6.758583451113696 7.569929318556211 3.138096200149099 -0.4167866210777209 -0.25732885989729876
P 6.112531674277551 1.1149046512186118 13.151645567746726 -2.8331499954841526 0.2838253635259305 2.8145195248671593
P 8.832637358641382 -0.20672710412296466 10.898558321832224 0.33566703078757026 1.0655425402420295 -0.5313799176452848
Ni 3.0593881825687204 8.451813283943581 9.56237819977561 0.7827957544922582 1.1824457158896926 3.1334520165088677
