# total energy = -340874.22305679455 ev
CRYSTAL
PRIMVEC
9.18004276560151 0.00000000000000 0.00000000000000
0.00000000000000 9.18004276560151 0.00000000000000
0.00000000000000 0.00000000000000 13.43592052040047
PRIMCOORD
 96 1
Ni 6.747322360444439 9.36878459450309 3.042684831069054 0.35538713492431695 -0.7399771166648352 -0.6323689931658529
Ni 7.31039865255175 4.240656563003196 7.129139623254105 -0.7730384179951784 0.3863434740965153 0.8233135121006466
Ni 7.718378119656973 7.872630380711135 9.290737705671914 0.9912091196357767 -1.3154920769561216 -0.6096815788706661
Ni 1.144558570253636 4.938202123688816 4.498614850832502 2.4195078335726845 -0.20333080841428852 1.0325437167185054
Ni 5.209683532732126 5.055091610090211 4.025603041732767 1.4148739558905696 0.13947051942521788 0.19281499648462921
Ni 8.82367364637501 2.9160498111120376 8.514974507356946 1.036393172371583 -0.9838724767650476 -0.3808446557654731
Ni 8.746882587414225 0.5973114261398804 12.859035991727767 0.24747305014914153 -0.06329747450706517 0.09294152262574316
Ni 6.782537005055745 4.842371655728072 12.972864851822225 0.040110494867640595 -0.6009064037811973 -0.7949665855268373
Ni 3.9496033024710164 4.563123930381018 13.202498117245854 0.14768030892951986 -1.4956024813898887 -0.7640228447601294
Ni 0.8253565441396934 5.401720850413017 1.8537407533347967 1.4169586063337403 0.9082547901297325 -1.2298553155219079
Ni 3.4046851352440934 2.9143974033878366 7.4515886305461025 -0.41254712907507657 0.7733562063459133 0.4631310126702153
Ni 2.1323128275235113 8.256484695043023 2.4622398977718096 0.31208230148909477 -0.3695958223245312 -0.18707629422863908
Ni 3.5487108284940336 0.9476741899150889 6.088353176084582 1.0122029482786246 -0.670205347287336 0.42329999671620644
Ni 5.681400037776946 5.895065536559045 8.993198744822244 1.0602023589760385 -0.4986801134194186 1.211806942660629
Ni 3.41575626699624 5.515131100550678 1.799378375217167 -0.4038246616004142 2.0826053877161166 0.9072119506875149
Ni 6.3120598058040756 4.3536078109952445 2.138017306189169 0.4518168732089767 1.6254077098112008 -1.9961666992058975
Ni 1.5917184605082466 2.3310699366161525 12.67691220238779 -1.3436430854690407 1.172993055117225 0.6169056074229311
Ni 8.94935761388632 6.532096254367262 11.248284548249599 -0.09134435334195236 0.46959296624547514 0.029485925274258896
Ni 7.083559792190603 7.491484179038352 12.678779423116136 -0.3709338244096644 -0.15891474419275858 0.3356462048519639
Ni 8.407083299018117 5.655952958824251 5.522660571747287 -0.8606063350138339 0.9507165588383691 0.5295279520382106
Ni 9.020750807614714 7.8519936442444465 0.9834552431740786 0.23668418706375366 0.4047466591940514 0.5581355884725743
Ni 5.29500285155837 2.437833835685361 2.8267022894559077 -1.9709035537637347 -0.7733446363816875 0.36599910611220837
Ni 4.628825497503831 1.4908389689457766 10.229424633575931 -0.7465241737547337 -0.6452422495840952 1.3122892537481077
Ni 3.292633531457442 4.093059833060399 3.6307758221078927 -2.52870567015629 -1.8205523828702712 -1.0211545010449574
P 6.945234905589156 3.7937353538643026 4.745714983905226 -0.6470556486437502 0.19352822050156993 0.10184113910821815
P 5.375686248713939 4.603855780782572 10.99622627399998 -0.41265408696658606 0.5253367967749984 -0.1791711804489495
P 6.084559982353249 6.817237567263966 4.675162682107592 0.6468268204623956 0.05330231096756626 1.7309568938986255
P 5.973536543372767 7.635427251902082 10.622143197343867 -0.9262622824507467 -1.2154409398687906 -0.4078260694503234
P 5.6665008281304 0.024097612644597685 6.731731893566604 -0.1699136664064235 -0.553110367343841 -1.6989821407642418
P 8.633554957662776 3.5756083542268606 12.069205295654104 0.7184636680730916 1.5361629193107544 2.4705082358799517
P 5.509926016219445 2.992620549042929 0.5434254922493952 0.15186837886893845 -0.881762914486791 0.2664781304967346
P 2.2188163718854326 8.200128411604858 7.881430369846795 -1.2321181434141555 -1.792122152554036 -2.3827533996614703
Ni 8.994881446688057 1.993336157875296 10.886092381177694 0.3274122469779458 -1.7461752535102764 -1.8284657241800768
Ni 2.087000135708755 0.6763203834682593 10.801566218059067 -0.3888179037789368 0.17926271172149127 -1.2442596638726957
Ni 8.480505282230116 4.65008647688855 3.2913978976814557 -2.321540832707892 -0.3746421264991871 -0.18105811305901723
Ni 8.792204459271895 3.14200738735361 5.636315011026413 1.135030974051155 -1.2093535960241302 -0.40510815629852814
Ni 4.832778510884794 8.895626822721052 12.329056508331911 -0.16986352989477843 2.111198625972777 -1.1940740441572402
Ni 4.547609657859352 6.643404274678022 11.900947043128754 0.45903370267239 -1.7737814452633194 -0.09072497459039859
Ni 3.1341768107494796 0.6972462912866824 8.509116721974655 0.6037387310236699 2.0806994289426557 0.5210379122893285
Ni 7.478108856515237 2.4533756483357623 3.0306332707338814 1.9714504274061404 0.4855356056176606 0.48819489761737855
Ni 3.7807914933580618 7.813152882682811 5.612076943725258 -0.052063810574774855 -0.14029738620188742 -0.4180130372856543
Ni 9.193078573163053 3.333796843875871 0.815971786270523 -0.8582434912086122 0.09734993610608396 -0.19742627000439547
Ni 4.852405442631136 0.38841954967213943 4.45699070025988 1.1948734001300843 0.7805846057735524 0.3280177417724286
Ni 5.455763763037302 3.2953967243740228 9.119093853320535 -0.3379288302385535 2.6491885927354115 1.038768614582295
Ni 3.2232691272126495 3.43496091676862 11.160211216549687 0.24330760591754227 1.5378210237394678 -1.851116371700057
Ni 0.14821638283937216 6.940048181343748 3.479486878905798 0.4203604544719083 0.430221149316072 0.35959268836523234
Ni 3.1142377575441214 4.9586736193830845 8.558211591469249 -0.19692516199826085 0.06393407964979958 0.5003096786030415
Ni 6.952973681764164 0.19363556315190988 10.933829522325569 0.9640605842454429 2.5939836654284942 1.166688453055436
Ni 3.52858817443043 7.792571226473596 9.512255813161133 -0.10848075591192285 -0.8208719925386894 1.9075996514987663
Ni 4.195297970973878 6.871289659931162 7.510142616257455 0.3569740197954626 -0.22420353809823967 0.5217513934165853
Ni 6.664261332174603 7.176783127964274 7.099137407008363 0.005862372318047968 0.3620375503612991 -0.9092019845343502
Ni 6.844759335914824 6.821497107175239 2.507236796110384 -0.18297924134113003 0.33177463771169957 0.13378298212213735
Ni 3.581410141347388 5.286538851993296 5.896085439326594 1.22341778742668 -1.9263373371175858 -0.8150373881347833
Ni 2.6293019907056934 1.3530648849190636 3.684116461449392 1.014027403081873 -0.2794501172763703 0.13069997232143943
Ni 0.8443050707148226 4.458664222082779 10.34184343907907 1.7242601986047401 -0.38992296391765746 -0.3159415273341849
Ni 9.094567532671938 8.141578097910669 7.13357358398071 0.5766377610418197 -1.0621959923672997 -1.2798804984000989
P 2.8317402970061387 5.85503136941882 10.509361780145694 -0.742707885332437 -1.3780871260795233 0.3911825473563715
P 9.052981938279546 0.6437716233186649 5.47920867463084 -0.6495992410012102 0.5782886663816815 0.6707859023811544
P 1.9629869360074712 2.6087203344964793 9.085678497120027 -1.1883127161934308 -0.13184025657346973 0.39504742962841644
P 8.47912827579328 5.584926966812344 8.7836798714236 -0.05961436922852314 0.21322441337891665 -0.4603279960037814
P 4.719836442935656 0.265809060527844 2.397747342300536 -1.2967826734720762 0.0610025078253014 -2.144221874976333
P 3.4142231998298977 1.5757635459267951 12.081727792190673 2.962944682382503 -1.3038298101268448 1.7686088999234446
P 2.213987669313601 3.775981150872054 1.3840879219366458 0.10154006292803158 -1.3459933308687722 -0.32139072337421426
P 5.131818408750611 4.445931502563519 7.213960465750215 -0.615177826098547 0.6906638722520041 0.25365861013456314
Ni 6.954350688200998 1.4503641597457648 5.163330742055415 -0.05181569911971077 0.035162149723429764 0.37248445672623587
Ni 2.2422438413974377 7.5772257798385585 11.545365424957946 -1.1844935995576569 -0.5782619269088042 1.111996717939511
Ni 1.5641599716857393 1.4855237240995969 6.766799657491313 -3.5931115256907153 0.4764110176085731 0.8510837402353795
Ni 1.3620521469301345 5.028432765473103 12.790619885915808 0.3733198081433377 0.22946092984243704 -0.13046008839649145
Ni 1.6636349166826385 8.67886764947753 5.0786567802459 -0.4915537867872825 -0.44154351630742666 -0.27368853220224476
Ni 6.573672668716741 0.5643385480077411 0.5385830196131951 -0.5712363875205904 0.46074888559128396 0.15849514015683672
Ni 5.57625182626029 2.145293408201401 7.2629616988071035 1.1019930697595797 -1.4971068338495572 -0.8661295788249084
Ni 1.3273883048935626 1.203099703904912 1.4609414051892338 -0.16092586108551638 -0.2775048206245414 0.5283622138648836
Ni 4.528294847572026 7.453185040008538 3.4466627174688367 -0.7290753821506669 -0.4480715472339315 -2.2989950861968924
Ni 1.1743294494179906 6.702771612191398 9.167395567107512 -0.10413816267251098 0.22027540668842707 -0.35613918259899313
Ni 2.1835007468020926 0.008037127569655342 13.240199635482082 0.3487801711307606 -0.6358618368104598 -0.4221784815172536
Ni 3.487929764372174 1.8603448762058534 1.2844266220686282 1.051085741386751 0.4123789789283285 -1.0415379497973158
Ni 5.347595317402523 9.012608109551568 8.846277666037787 2.0065976647312347 -0.33018800995087005 -0.3493278161041145
Ni 6.329382546779449 2.7288320159600663 11.316081919169273 0.3284599715161698 -1.216381192294873 2.5708769042077013
Ni 1.8386616148471715 6.373722154045509 6.539719362001575 -0.9792660883412877 3.379794809708308 0.13807286774674282
Ni 0.6831650234636163 0.27798271543374914 8.862857741541562 -0.6821787175991283 0.7524127713250268 0.7856846460042791
Ni 7.739492218355096 4.133176620586833 10.24949771540781 -1.7764811035826693 1.7437689580616291 -0.9281312173386854
Ni 4.604333143014007 3.029157119833595 5.247237252277467 1.8060652449976897 -0.4606388423759809 -0.09110909740269471
Ni 0.7774128520262931 4.610832613395865 7.174741486420595 -0.5625270326720506 -0.9155523522324103 1.2259140714859726
Ni 7.6493074767853715 0.8584707949326811 7.474967445830672 0.26857615067634394 -0.2896759087694366 0.11869652010266007
Ni 0.9236041173992279 2.758942556712173 3.1164887040661995 -0.6629656350057873 1.4741250282424032 0.5658586681484449
Ni 7.765132078208948 7.99393546775331 4.933374339121276 0.5991338852618069 0.925703067513167 0.34415167121981377
Ni 4.036841250265916 7.91093869978386 0.7734626795611615 0.15099240402188835 -0.3727109709147452 1.2105422170155926
Ni -0.05925534098984729 0.17835538172450688 3.217365441615796 1.1605550864641883 -0.16632080684884257 1.7052342923215407
P 8.473455009273524 1.3031070913907203 1.6113297861816387 -1.838416921855518 -0.4386373984042252 -2.2167215848079564
P 7.038706102521458 1.7939089056500617 9.348982323937125 0.10463335714137463 -0.08852051073991206 0.30581343776124753
P 8.070359324997606 5.901078464666555 0.9802780303221568 -0.24979089964904078 -0.4455562370112455 0.0003632968766896969
P 5.220846464913395 6.064639289233715 0.6944298541212108 0.9049732911649833 1.0055723303359843 0.7111594211021945
P 1.889078410521126 7.0243760555354715 0.46650315867496567 0.2893370373727791 0.26130507093622735 -0.13466872716120032
P 0.19916745701081826 8.75597082989733 10.954614975487434 -0.7300130634735879 -0.8148350423159902 0.027054433014630824
P 2.5129724869219445 6.667455987108059 4.0194634290330695 -0.7508809080615326 -0.3138170247920144 0.5234640052323178
P 2.4927488523863066 2.935658382772556 5.501619913392461 -1.261191406631028 0.7739077079740091 -2.245668349749294
