# total energy = -340892.041951238 ev
CRYSTAL
PRIMVEC
9.06811234161116 0.00000000000000 0.00000000000000

0.00000000000000 9.06811234161116 0.00000000000000

0.00000000000000 0.00000000000000 13.27209903079361

PRIMCOORD
 96 1
Ni 6.473117884162364 1.848888370646888 11.348706405500531 -0.3350263118797778 0.5724157525406722 0.42250835405284654
Ni 4.708018872160508 0.5708739484999396 5.947334217797333 -0.6828590314956047 -1.0425586777523466 -0.04831797037909743
Ni 2.9403717205721547 1.9106422161417667 4.832676399803534 -0.018706061049935527 -0.8436344830461858 0.20832054831939606
Ni 3.2679663494044577 4.313719208458847 4.571308916316713 -0.040832203525013544 0.18486257440677195 0.4025008005826681
Ni 4.695060539530232 4.627167581935496 2.221643106079638 0.22404387259192382 -0.42582070625553115 1.0889208099566536
Ni 6.9758812403697865 6.133353848479233 2.764710594693309 0.3656859457471638 -1.1805693248025861 -2.2669280304590185
Ni 5.054547719699611 4.2654677823386935 11.511037406140396 0.5945105275571826 1.2026689849151029 -0.2814020987964186
Ni 5.662183795899439 7.710017484653838 12.618501490561346 -0.670719310809277 0.6614350572938738 -1.110925339252203
Ni 1.826100204166913 6.401851588752047 0.34289525489742934 0.29387194912865516 0.356079018785019 0.06847773315642401
Ni 2.72100501332302 1.482074155652272 0.45263301719644167 0.4497126823817803 -0.272871178507272 0.504697266147776
Ni 0.5705547509431966 -0.01601337970035333 4.805362338420989 0.20434716549394483 -0.6395207737192857 0.8250631478019017
Ni 8.884963741177469 2.1615296821192715 1.441482564082709 0.1720790494888585 0.6487060397629796 0.0021622977586414375
Ni 6.955124331069086 0.8804556788460421 4.874510322772919 -0.1100882096083588 -0.9817649435037415 -0.5600184073175838
Ni 0.665253048814418 7.223848774152086 2.4466719427159984 -0.07703899246287377 1.4641959420541493 -0.13289518020054533
Ni 7.562760407268914 4.029007683201476 3.813525755307701 1.0083822889809535 -0.5892451653931852 -0.13678757327641602
Ni 7.505821729462402 3.6847367956518324 12.924901220263669 0.7497717341577539 -0.3562014032954962 -0.3752674187880118
Ni 8.0323435401774 8.65209461455361 6.9151620665006 -0.7210769373262227 1.663181843236181 0.18195208562819631
Ni 6.978873717464253 0.713583367512517 0.284446736375074 0.17625297836089002 0.5316714807437746 -0.07581000515177912
Ni 1.7085139905792344 6.567136073603024 9.44049716391769 0.2739279019065605 0.16639485461988765 -1.5600132435657907
Ni 9.250562829109482 4.772475015152813 1.4124437477202638 -1.7180337580790541 -0.5295094400954494 0.06285010255700144
Ni 6.450810327639984 2.077649642350163 6.908088032011533 0.2609952530052924 0.07518317020105761 0.5510563130282896
Ni 3.4353092957719307 4.0402521425867395 0.20367071148304308 -0.07687984117719018 1.6747448654834318 0.24971993720178928
Ni 5.784168044004742 5.731337221118815 5.0114116157885125 -0.21532037667599688 -0.21420991722063756 -1.5716983932132027
Ni 5.223903787021543 2.8429529889786918 9.265783655785425 0.16775522530252399 0.8297410128935453 0.6109226503666187
P 0.1058212445502255 5.442835224875119 12.555246872463034 -0.14019274230322307 -0.4415707700009363 0.5156303681205119
P 3.908283902720812 5.9918368862482385 12.61769170812336 0.2901819018715776 0.6347678324153325 -0.008855136397784751
P 2.4131607333141885 8.333985231299522 1.6419177730587662 0.013988343859292037 0.8084070273024594 -0.7024876043598095
P 6.480989005732049 7.792247127964786 5.703379323755341 -1.2206386820196462 0.485694242682712 0.04385042152604706
P 4.67613538893584 1.0637439940708122 12.703562198565908 0.6862567443232439 -0.2354444011193816 -0.839524060422238
P 4.091296547328395 6.11651436373856 8.239783865988228 0.31787242580831065 1.4985265970152193 -0.14463612278655735
P 4.973270228191447 1.0509851599135005 3.7695943779384664 0.021655373486246573 -0.5529100784075769 0.5050793320775431
P 0.20623970772807967 5.533062943329457 3.569159168962409 -0.258892861950309 -0.7204904686951334 0.744259288979957
Ni 1.5666705763015705 0.9790387560726242 2.888486701810327 0.6977930270976176 0.26400395792462916 -1.5823191061518427
Ni 1.8897764894921756 6.522647914131971 4.826186351753506 0.3302255480570248 -0.39314584173032935 -0.7845255926991714
Ni 6.082907939156471 5.66494050207131 9.422128795425115 -0.5229204740240221 1.4978969338510204 -0.43448455257811625
Ni 8.534626286427228 2.297324665421152 10.04391294060308 0.2838780711407369 0.41651691235610205 0.7452941580023744
Ni 2.289689314774061 5.329302457533581 7.038446681925135 0.6298104884100573 -0.33436888080143706 0.5570986625676277
Ni 0.792135891242236 0.26332256852186986 9.192309275003888 0.06638922605851147 -0.5237038891572658 -0.5107948944050816
Ni 1.5528326367677696 1.2757564621574882 11.603862231988233 -0.24131011587153925 -0.5608401318879309 -1.0561001638822072
Ni 3.9462158169212636 6.836576897566214 1.5454965338301254 1.0090101523729398 0.25973027024993983 -0.2412370965417587
Ni 5.816450524175339 7.974543391692179 7.8155140907798755 -1.3423189673409786 -0.1030582993447709 0.8225349820634092
Ni 5.32891252870006 3.093940204192679 4.874231931722011 0.3446952024281096 -0.5109820707152232 -0.18922419380957733
Ni 0.7911111945401917 7.470011753565299 6.86929374032113 0.883358283998369 -1.0722726598770114 0.8814613240859722
Ni 5.020723660419745 4.5488281588473525 7.016427491377313 0.29225549657115474 0.09982565134008614 0.2109119631956561
Ni 8.24028442579312 7.413372323468233 9.153475083618893 0.04882987701850946 -0.7606976370416383 -0.6408171239332061
Ni 4.594368219357672 0.21866211491507442 10.635357902099368 -0.0658436379676866 -0.13388582624858877 -0.5484304453696683
Ni 8.138041458398883 7.238103846856631 4.438256130206853 0.6739272762236136 -0.11527592445688535 1.0517310882802338
Ni 7.109236901434057 6.151644231205103 6.979146667647718 1.6235503448874877 -0.46778085273740083 0.5845912115609416
Ni 2.1879722978994574 5.292095992325725 2.4221046125816774 1.0979834343795543 -0.7095779355476877 1.1430044791749348
Ni 2.143656432564146 5.221700235706527 11.459502416517495 1.0557849466346334 -1.1459460783017619 -0.26426286801297066
Ni 0.9628521754252881 3.365901963405147 3.744563667260124 0.7061002614117323 0.31233401248858467 -0.19134021171131563
Ni 3.737866866247206 2.278136539566943 2.6111529928076735 -0.14263091943107048 0.9838619352420862 -0.281978797235495
Ni 0.5410072134746926 3.3089904899358578 7.973000905771668 1.7318434102686369 0.6009177166351071 0.03966492268978975
Ni 3.5663253838350744 2.747891966611172 7.349624400054952 -0.2792796531367771 0.3827485576564053 -1.091385212336746
Ni 4.1419056826744916 7.059289738293707 6.187518590700299 0.3538583569846164 -0.5859760077236101 -0.4502587846932375
Ni 0.8535877685939458 7.186352129347193 11.506538715575049 -0.9687410204402478 1.6423646493805135 0.4007424231306647
P 0.296706824349975 5.558834518791491 8.147436022853023 -1.1268270980841237 0.8233929591883303 -0.3982903620457463
P 8.434224145851706 1.4959030270736655 8.008384680385621 0.23390482454640363 -0.13631603295663622 -1.1734023747405016
P 1.6793237367395848 3.1997650759878673 10.372026265465092 0.004072884517792985 0.07895883519340595 -0.09619011147002789
P 3.99697004206588 6.129073699422907 3.6561314350624645 -0.08592112544385201 0.9190349114643721 0.6760461223388292
P 6.870001959900154 3.9984028038262602 10.473318894679025 1.0482377304149948 -1.1605841399299108 0.0776570856628469
P 6.43099650202966 7.909824273440058 10.430423095746724 -0.8610745328995041 -0.08015362683245551 -0.6713397180020955
P 2.488344453284532 8.369169507440509 5.85387190364725 -0.58369209678544 1.670212781941033 1.0524196297068262
P 6.741724441784066 4.134134310341289 1.7498337515751174 0.3928861603110395 -0.7328708446373572 -0.7343199183790579
Ni 5.2029201749106555 2.6924404592394855 0.7536825605783546 1.2677927139976295 -0.26554122050476203 -0.7176054338378544
Ni 1.6173069159848896 1.1583606789303664 6.831109732595751 -0.09789938085165076 -0.48279172432393624 0.7399938288353837
Ni 6.813280916791422 0.6276983680901169 9.119033485884076 -0.616753398115783 0.37767294290571085 0.6493776119087075
Ni 2.8538982006545095 1.6758053091254859 9.320623972380847 0.11611590385967743 -0.647443371000472 0.3038470580634961
Ni 6.638438641462971 1.9391070209888186 2.651605842257402 -0.09519123789186833 0.9155973465377328 -0.39396448097688275
Ni 3.9099705716286013 6.713051070351642 10.481029510659098 0.7478112679972734 0.7187246350439621 0.017438507191421582
Ni 8.419697029774937 7.430411306681871 0.2908143649076002 -1.4161160558277868 -1.3317913283367775 0.1770883297779918
Ni 7.301281385999482 3.9947211501888273 8.110779085257063 0.5408911995698298 -0.1618584002021148 0.8286742621919277
Ni 3.18709692295463 8.362839964980093 12.603968026805894 -0.1186597533274537 -0.45189477763476366 0.15350514314141306
Ni 0.025585679157679887 4.700728109784901 10.283939528350155 -0.6652410613035252 0.2401096678055349 -0.22938739629202434
Ni 8.693554024480568 2.2183867469141156 5.82135546617654 0.5299357289995906 1.3763032947062233 0.06117862839184947
Ni 3.5111005792735748 2.716044755836133 11.618249699133926 -0.5698207381199865 -1.37148993247798 -1.0904827551271348
Ni 1.1242373719410526 3.4657509491238114 12.763220403283421 -0.9562570290406242 -0.8545472733039475 -0.4559100694417439
Ni 3.1382197970783605 8.372062235298491 8.092622910594823 0.2855474884233598 0.1740325736708035 0.4549255940412875
Ni 5.9042751928416966 7.975749450642373 3.5317051442858305 -1.8684188675342466 1.0172456529088545 0.56680869076654
Ni 3.1208997023800906 8.40093510520388 3.8023103138821406 1.513971985036012 -0.08070435712960294 -0.5979372938505444
Ni 3.274867182946543 4.485396712557092 9.277502377449599 0.04181873580799894 -1.2536768434215377 0.6947393278729583
Ni 7.6259651507489865 6.4718483484253175 11.447384697907392 -0.9997999466285815 -1.1997469261723015 0.1391380757864636
Ni 0.779589250915259 0.027352147454655272 0.40279467140498015 0.30489915347709423 0.4249159350530746 -0.015019099116651552
Ni 4.812728366129578 0.05328513531754131 1.4064977864146853 -0.9709321145542955 1.0266330076610255 0.8017825800074063
Ni 5.940538574359174 5.491422171154349 0.13678884842173952 0.04650071466470056 0.2241911968030655 0.9223719462574049
Ni 8.260986926419378 9.028521028700144 11.073336849645337 0.18468542539895935 0.05683989180717952 1.0456925953956377
Ni 0.21133961414604147 5.0922257267526545 5.873116251798386 -1.1085804931691103 -0.9944463956261519 -0.44648749057626325
Ni 7.950540098149603 8.94153969448768 2.6396350270682998 1.092998322460137 -0.3113775621125863 -0.6000772230116826
P 8.759143681523806 1.6054639611807322 3.6666830906597982 -1.5492292655764093 0.6433740860271049 0.18840169790828198
P 2.014526511881756 3.205069921746238 1.5212873941358995 -1.518389140267101 0.12666076925505929 1.7771174516150876
P 4.850542394868732 1.1163299779217377 8.09895335986648 -0.8057533917296963 -1.4607313805443167 0.6112314398562891
P 8.684295481712539 1.6523098298777283 12.51091740495911 -0.8388907977136133 0.2121700039724733 -0.021063248428202435
P 6.554214013422378 7.900747092920178 1.2953517462587925 0.286559474627642 -1.747415810785597 0.8797895928105042
P 1.8318856598828797 3.3586837459287993 6.050338906633798 -0.3162454317278489 -0.31870803433572853 -0.3279735187980545
P 7.1382457930255585 4.104962192726454 5.90029791873978 -1.2582706334398073 -0.1582999934268951 0.8693889663024704
P 2.257488447615131 8.458163962607431 10.561127240743051 1.5381005026530994 0.7012753292192633 -1.0614454873545205
