# total energy = -340872.49835887627 ev
CRYSTAL
PRIMVEC
9.29096755074363 0.00000000000000 0.00000000000000

0.00000000000000 9.29096755074363 0.00000000000000

0.00000000000000 0.00000000000000 13.59827015590581

PRIMCOORD
 96 1
Ni 5.689658393516142 3.6197887918552505 5.219737054483608 -0.17540991363430436 -0.5926341364700761 -0.35850793994148583
Ni 7.789175472313529 5.355304347853005 1.5395012283914282 -0.11262048911190926 0.627670559248919 -1.2364586797710384
Ni 6.707140111989675 7.6793283641390415 1.2480807433198764 0.34705393246827326 -1.926076627257031 -0.10783540901844009
Ni 7.862248931316518 4.870678194635598 6.233854513643093 -0.913412165960956 -0.37725128198726 0.22803242492602663
Ni 0.2717830962668833 5.057714660393916 7.834330503222675 0.15476986878644958 0.7157742941663867 0.611938750335959
Ni 4.996812368751883 2.9889692657946094 7.574480725549998 -0.4758733999375481 0.383169704354224 -0.1698355048703204
Ni 4.506834618282634 0.9448635168756488 3.691712958184537 -0.7825067624969299 0.21288425643067854 -0.2931011324009017
Ni 7.106642421420003 7.756675668169542 10.252986739385259 0.5251809879234246 0.4682045705383807 -0.24218583360827323
Ni 0.1673070963758837 1.636278732652437 3.275089253935302 0.2818319872449856 0.39242027641821453 -0.4858821903238019
Ni 0.9060337766072201 8.97745304544084 2.165375172477843 2.8417511068896024 -0.3234910575466687 0.44975793379741896
Ni 3.9107911833915026 7.336296554876568 0.9013817892044488 0.48819438339674626 0.4427485923591214 0.18061896863906957
Ni 1.2137348239433539 3.911181404024449 4.662098762648388 -0.11821032449486094 0.2396622958554711 -0.7269868750527545
Ni 5.565623978043808 1.5902234069972794 9.47010752363275 0.3763274846214099 -0.6719482981203717 0.0020026322523255835
Ni 9.187568274347717 8.669048671868655 11.315800017149508 0.08286125557160569 1.08571798674864 0.04171229213712171
Ni 2.586781866770911 2.2462679096876874 3.109435020668971 -0.3302103785483732 0.5344421015103764 -0.9441592173358256
Ni 7.173379440621335 6.9731405101149875 7.211135145052415 0.8483372878384938 -0.34794507682397496 -0.7502481595735402
Ni 6.637680839325169 2.4022818351267454 11.419228925008767 0.854373980950877 -0.2910848733018213 0.4584359211873911
Ni 7.83140291937883 3.107438391763727 0.5894812245804126 0.023060738474205447 -0.5879202759341746 -0.29978317240676755
Ni 3.232773542679216 7.96319529267284 3.252339391034511 -0.2542625622671492 0.1009754486738132 -1.2894480874838763
Ni 5.900489026916756 6.32621973746157 8.956024358111595 -0.14452119447524786 -0.6884681501522658 0.072416663199514
Ni 4.088072133326154 5.138146565618185 8.278232487908372 -0.8730198781868383 0.870289880850185 0.9223984286199662
Ni 6.524126635137688 1.4232833038357144 6.684555628309514 0.6363716865673427 -1.5571693463590923 -0.690863646967636
Ni 0.1802633504864582 3.904148141663958 2.27246100512586 0.5146399791827846 -0.024694417422886503 0.994660568519487
Ni 6.057078992337782 1.6379511067936372 1.8234601375029929 -0.3043602502544887 -0.06938173302793212 -0.0986192897368108
P 2.7692100126734776 4.47886880625479 2.689452631686159 -1.332589912978673 -0.5196677714146793 -1.7738614065716354
P 8.39908103064172 8.821401956131975 6.852617151242428 -0.4287270812690488 1.1073329939152543 0.15291507496589793
P 5.867171617637072 2.3765179823848146 13.379011711534933 -0.044972965166264485 -0.2615066454240722 0.7708452669986015
P 5.720792425444816 6.0300515680225 -0.15304081585470258 -1.0595521269865495 -0.19462222489669706 1.205600299629285
P 1.9307187821456 6.940780070482767 8.361141365055108 0.5353034210694071 0.4129885874878694 -0.26483596690762135
P 1.1233987474162004 1.9893726596644647 5.4711283353887925 -0.6150505564920633 -0.8680674192775695 0.8515259699791204
P 8.913819209368178 7.107552936230213 2.0259381911650576 -0.30326033232209065 1.4193723579815556 0.7471684922069519
P 6.471437558722437 1.5703314456844504 4.367029714658785 0.610705135039174 0.473657623233152 -0.42859466945624247
Ni 3.862078641045327 5.269149206678852 4.270536514001781 0.2432422998972456 0.8059621653063925 1.043849371539312
Ni 3.5070614837709195 0.6692516129221626 8.93750374359455 -0.813373113058483 -0.7897089366723238 -1.4582600361856883
Ni 1.81641200959458 3.6169736287175636 0.6632347824008231 -0.6212029492467044 0.1606103867276266 -0.35161172704228477
Ni 1.8475924963605088 5.742040868005507 6.061836896769496 1.120636910113012 0.14040691519655818 1.1325945966955202
Ni 2.6950680924136106 5.409284868743962 11.901790625258538 0.46752168553874324 0.8214484338674498 2.0611796137421727
Ni 7.216405910887429 6.688093628714897 3.888452910348796 0.9793612191582554 -0.9052352865771183 0.08441188788817722
Ni 1.5591358299058613 0.08361313247952952 7.163622995700922 -0.2175029861496125 -0.2958694391746582 -0.49619179977992606
Ni 6.4612918222658235 8.890108660432944 3.1859795851116948 0.4068701332949573 0.8198242680004654 -0.776256924932476
Ni 9.09385957663581 7.545389777363824 8.649288642293632 1.889751567573752 2.249271750829836 -0.09095123166859176
Ni 4.871690910087769 4.133644328673855 12.24694170419661 0.04636264642493951 -0.39941804789228635 -0.4250568315063131
Ni 3.5857559780818304 1.9318615711420868 5.896740121550232 -0.24606280006517622 0.42138452486104855 -0.4332612216939764
Ni 9.053852670791326 6.389463352901283 11.151370333393233 1.0254796107828728 -1.0026993796635635 -0.30034238734434726
Ni 5.8470845460077685 4.006553184910104 9.532169328012685 -1.071048043441291 0.4894747927710667 0.7532843752967027
Ni 3.748515145890395 4.958422091243891 0.6154336839616014 -0.04176962773761839 0.05467090918031874 0.6726936609268286
Ni 2.8324071732759357 8.818298773003304 13.014699870422435 -0.6114091030847342 0.4378241584743105 1.0368616273675693
Ni 5.528627345653484 -0.01140930802996447 13.66993327165436 -0.9123497861347125 1.1124173504166972 -0.7282228043423845
Ni 8.818651829766447 8.660315162464611 4.136539394131621 0.13192536008810826 -0.12355461952590979 0.13547939598795378
Ni 5.382666246996528 5.9478543789825205 6.0391279141254905 -0.12268661509865968 0.3609713138803138 0.1931523252193899
Ni 7.932451481377114 0.6880825457520746 13.038184648848608 -0.7198548919936635 1.0107448756758592 -1.1327162098750494
Ni 8.017668234838705 3.46400714060247 9.699876865085711 2.2299326841815916 0.0405115869608012 0.2628600741281731
Ni 7.870731584599382 0.7140154941016161 9.552131900678141 -0.28722821855989245 0.05300637699370226 -0.2693006875471942
Ni 8.07055242157043 0.1911254205335522 1.7405373239050805 -0.2594646752933789 1.014577876268704 0.1250214338794234
Ni 1.5151895538621059 1.770031500078633 12.67062282732171 -0.03758541445294172 -0.59318178144343 -1.1507656111775924
Ni 1.365642141769021 6.1020751477035144 3.7337861751901493 -0.9617381067598533 -0.3013446033566165 -1.973067908404905
P 8.586823609926322 4.781875127737878 12.911544117006237 0.14888461365026617 0.22171239624526978 0.8119268675302597
P 9.053202303069748 1.652389270212664 11.191376310140974 -0.4015592626050052 0.28938023190588874 0.0166517496240681
P 6.092412541554358 0.0595996980053877 11.198025855545733 -0.9103376408006904 0.8757496184131757 0.3961524897671371
P 3.5277524682845436 4.341250996368932 6.479303291766548 1.6094789543960861 -0.3541537767378481 -2.597282905005056
P 2.0034856392227023 7.6546701365237935 4.95677294452132 -0.7114399284570909 0.2669249882261661 2.1061291818696697
P 0.33155467717011655 1.598222929972686 0.8653830067183735 -0.32013062571486806 0.4182830031175893 1.227012446756474
P 7.225808369947954 3.116831559856801 7.685551454137797 -1.2985243387535312 2.0041695149057164 -0.23300853798437937
P 3.6811091770325843 0.3141276095220674 1.6982197544555049 0.07934244378506981 0.18984485811271176 -0.8748019097879256
Ni 3.6997561487069643 2.2806537802242497 0.2931541795979291 1.1352981116696124 -0.9493258491384295 -0.06782133051934772
Ni 9.120013650010687 7.025708803953375 5.8851134048819125 0.4701642653679129 -0.31051598544323944 -0.5650924794063816
Ni 4.735541073059186 7.574832853216395 11.997998593214795 0.22447504659207146 0.09235145445022803 0.05879418732007294
Ni 8.373549452086065 2.552135849145717 5.109264664199661 -1.4688568378649283 0.7682453674819091 0.5833447407483502
Ni 8.984625672313097 2.035279329840405 7.71681463051404 1.2030765047661667 -1.0728519294192491 -0.5910891605804593
Ni 0.7514692420905353 4.15693678407379 11.410620843665313 -0.5616564571416391 -2.1425352313025297 0.3354608283140352
Ni 4.149104498512504 7.736207666874745 9.536956034443497 -0.12199704523080279 0.0994286730119836 -0.3757924380535464
Ni 2.153348944209125 8.354976808151294 10.566848627238224 -0.2095348803424714 -0.701466876404779 -0.09503414348871375
Ni 1.3521609479974586 6.253703736505648 1.0891206521020709 0.9531411091194616 -0.5496522335919114 -0.4486708713808273
Ni 9.432004337018999 8.258397201496994 13.692370028952048 0.0003604686632122824 -0.5738404008023407 -0.35716710964287524
Ni 1.7920510929377664 3.2529256510806763 7.056006648811447 0.07882050984332878 -0.12559633254628694 0.9747743711185212
Ni 7.2635111158645635 7.173602423840162 12.508001165831422 0.36579598896246684 1.8989646015315873 1.1702800270614362
Ni 3.4927812667985614 2.9065676754707046 9.633884981473956 -0.9395757117302013 0.6875435814554676 0.38308948593559183
Ni 2.140453081386983 0.45250727873891655 4.658794894622773 0.35553548757672315 -1.3129831944913386 -1.1143433637948164
Ni 5.975764445205658 8.711461938282978 8.047156836431787 0.15941302398541576 0.25041644904818167 0.9677547452675785
Ni 5.454067331858317 5.662696005973018 2.194012721452403 0.025058742740840714 0.7100908706283642 0.3661723984652791
Ni 7.0853010691848 3.537461529270955 2.9071873829996933 0.5736231425852121 -0.1480880858908998 1.350250049262597
Ni 2.031451451250547 5.202467933282228 9.726761208502246 0.2000829909009522 0.7504713313279399 -1.424338186627263
Ni 5.762889798965801 8.794067929890806 5.27581640492177 -0.32669542341657926 -0.2261614331555589 3.2568757668838684
Ni 3.792461421934151 0.7642322440781267 11.29783686067953 0.8910895912043557 0.9141176766684127 -0.1559147810241702
Ni 4.819178362054089 3.4663856282699546 2.8182691081055795 -1.391521140097242 -0.6545856384722082 0.1732609856121016
Ni 3.5406947859439413 7.599491080831644 6.911061981993644 -0.5610386210519821 -0.6028406446894328 0.22740044776898258
Ni 1.0328675605725735 0.8081617963804703 9.410370319309088 0.12084724789707575 0.7592393073285569 0.7102510503553122
Ni 6.941792785934939 5.162219462284014 11.594986156281436 -0.2973593934566233 -1.14407071565592 -1.318306149366149
P 1.5057127670619725 7.199449895289153 12.405919448252574 -0.3078214693302118 0.23081075900211218 0.23143527995998853
P 2.930584826331827 3.2376513005910494 11.756411141164023 -0.33716906925439355 -1.4433190986051403 0.7528372604569551
P 4.401530793191742 0.24787093333795857 6.944636751071723 -0.22851296410687097 1.4069621572426607 -0.20015395334820368
P 8.438744170690514 4.769657505539667 4.180598090881535 0.4061394257765199 -0.3086704475940684 -0.7463043444344437
P 8.023010541123094 5.894747209031969 9.238990991899382 -1.7196466110921287 -1.9816782757817355 0.47716563638641046
P 4.340684247354415 5.8555021625184756 10.630528918148139 0.822540381380048 -0.7445199988405112 -1.0022684627737322
P 5.1477441349951825 7.33046182731727 3.8909949190434197 -0.2809038190037614 -2.4098109179998946 0.020857560175299564
P 0.9916156650896402 3.3672974604038544 9.13704492244532 0.1011022040596646 -0.8455175590015116 0.1253063121096939
