# total energy = -340892.54337581666 ev
CRYSTAL
PRIMVEC
9.05541013200698 0.00000000000000 0.00000000000000

0.00000000000000 9.05541013200698 0.00000000000000

0.00000000000000 0.00000000000000 13.25350806307209

PRIMCOORD
 96 1
Ni 6.6007238171855915 1.9568922199804106 11.332359386739924 -0.2416561863570483 0.3930957052186843 0.7436008294603517
Ni 4.534460354769094 0.04337450853987547 5.975119042693766 0.4212230595825197 0.6958587861893822 -0.11423359923530005
Ni 2.883387442583976 1.6400796443992747 4.921425191912771 -0.9748949558567856 -0.2555216314852309 1.159548242466229
Ni 3.4199748197815922 4.221387663533553 4.853314925313745 0.6985985537180485 -0.16415876620051728 0.7521638885390143
Ni 4.817795079440625 4.518468500642406 2.4572932731261266 0.7862070941666525 -0.12005251990992227 0.17882048197775008
Ni 7.218837050953178 6.289987421739794 2.6557905777768775 0.7320198094909716 -1.604450133722927 -0.31729804136207934
Ni 4.989005717024588 4.587271506109321 11.630151979077745 0.9883688219735042 -1.1637779642768602 -0.6595321838442061
Ni 5.636558088824938 7.748750590952964 12.335927920797891 1.0489653526096387 1.8244915700236775 0.7018034338085913
Ni 1.8968639068400874 6.590916808114696 0.16295482025253577 -0.1509162993683143 0.07807051905118167 -0.3345300889696497
Ni 2.933337084352271 1.6935156190321072 0.3674866501524513 -1.0706754905932208 0.2816584377815988 0.12608047127155705
Ni 0.7627571093827634 9.20473374928454 4.837808441165082 0.010954185018658554 1.1695554901905858 -0.47988972018579285
Ni 8.526003600724176 2.68180495973336 1.4962018564732917 0.5259939707430231 0.23032662027684206 -0.41309194583495307
Ni 7.2044661152232505 0.55998112348917 4.692391233532679 -1.9790516367921658 1.616292120663178 -0.9373594208051728
Ni 0.7819102071536336 7.396884523115651 2.3786071931439987 0.8532997740500917 -0.6462719764001902 0.27927219693760935
Ni 7.821710029627211 3.8776533539101514 3.8702098068591115 -0.0955049124775452 0.4768676455300175 -1.742028835442071
Ni 7.646859117208067 3.9081157532771824 12.662560183023977 -0.4587665650539325 -0.07995642321998489 -0.06859497546057863
Ni 7.883087598863161 8.839909389683191 6.666819255051216 1.1846350102315275 0.4826518563119624 2.540092314726677
Ni 6.8610487449511695 1.0710376776263202 0.45833324027428946 0.1361460830376752 -1.115016478602441 -0.46939961928774643
Ni 1.907522124454533 6.487341028102776 9.10166145007072 -0.20642744506174127 -0.6916025820161895 0.49908197684352756
Ni 0.3497190301173588 5.117221267749257 1.1974276576873775 -0.5374875732049195 -0.5263960912774482 0.9134062524236849
Ni 6.320313989956259 1.7450590129670478 6.761806884183323 1.274901814238585 -0.057606080549242725 2.414737922987867
Ni 3.087107002203505 4.398022491730137 0.21577231037978928 1.0170350795599452 -0.19698224048844137 0.8544385156402252
Ni 6.014612402491457 5.436696133881496 4.744901745259653 -0.23215056085945823 1.0507388995702938 0.1052211113240446
Ni 5.229191412866183 2.9884935868922784 9.20635013997628 0.00527513235601027 -1.3851718008404468 -0.009458831420054678
P 0.015177772764292632 5.633669413022892 12.336696725110098 1.1125567042080389 0.0486540135622775 1.305313850871539
P 4.111464041085163 6.206396931681215 12.582350077532492 -2.0216172780685184 0.09810738309739878 1.1848245005345142
P 2.595036020751526 8.369888331673163 1.4035070571627464 -1.3916180706864227 1.4238669034177995 0.2535925327833181
P 6.424179543089387 7.6223008451856575 5.695324077805997 -1.1628181714667523 -0.11950770315004579 0.5459146209263501
P 4.822648779220865 1.3497450877685544 12.589016670402295 -0.06374330379523216 -1.5367252195721275 -0.9481750233634378
P 4.261711404431707 6.307609249673279 8.22637276014869 -1.6979303024609596 -0.9596511423238377 -0.37019617491269147
P 4.57133398444286 0.9735109115196252 3.7567464246269595 1.331953050725622 -0.3416998672452115 -0.0008456358297469306
P 0.18916027136081479 5.691080712662301 3.68027348685806 0.06310129933585908 -0.16023114901133695 -0.07506592789690299
Ni 1.4340871768602683 0.9203647100080009 2.3479120697389972 -0.30500713980986827 1.199193624771993 1.2921338618461553
Ni 2.028674455349749 6.339402794315861 4.787935770382108 -0.6726810625213382 0.6279893760409184 0.4196606001914062
Ni 5.876490233185475 5.514291942495077 9.278263678791166 0.9758989716412677 0.6071045621721093 -0.026520671998347872
Ni 8.954550880761255 2.075744476726035 10.159993481873057 -0.6468700149955053 0.9983817261248161 0.15396562771759936
Ni 2.415322353142104 5.312374409473063 7.020171315675725 -0.44104086563939526 -1.0007695096307023 0.4447247422488857
Ni 0.38239909940263744 8.943213507393978 9.271186875846656 0.09334158627763925 0.3223646572517094 -1.0494638895126118
Ni 1.5597853235944406 0.9515334313579772 11.488922898587807 0.5493473007569829 -0.1178359718745777 -0.026454594647102824
Ni 3.9073098217838216 6.787636535775034 1.7383435208830438 1.027153913161502 0.07519525438591566 -0.07985383620384957
Ni 5.783925831779474 7.994143147566272 8.030498807785879 -0.3876789050784871 0.36144131153819686 -0.38315607750746916
Ni 5.2730648744991395 2.6166603399217014 5.040361663971746 -0.8358661519546766 0.8023960452216891 -1.4447020949955958
Ni 0.5884042445156968 7.254234648790789 7.006069325623918 0.08697759173282439 -0.02480086109376374 -0.16721915029339587
Ni 5.209160845862654 4.369742446182205 7.106888638820344 0.6627504336711877 1.115564637796427 -0.4992280155030887
Ni 7.959859365163306 7.050388313430733 9.180016102045466 0.39219144823686003 0.2834726081722021 -0.7504034542044818
Ni 4.523467086983251 9.534260120558693 10.485367042103892 0.3120185381306949 -0.5286038975620444 0.1887878776031071
Ni 8.265651506728485 7.620362987437576 4.557099785404502 0.5929742934183143 -2.9421953656502944 -0.223222405131893
Ni 7.213829409202296 6.136597831110147 6.967249688333037 0.38286220041613417 -0.9764507303796796 0.23915218898827204
Ni 2.4690390454861073 5.068367330595533 2.814276553175778 -1.5832614154604538 -0.03390873693230289 -1.5771802422633807
Ni 2.309736272101801 5.194961962923443 11.190864077194876 -0.38519341965247206 0.6846091814174919 1.2186558472616627
Ni 1.1378394374748892 3.3074160730122126 3.9955221931256752 0.1713650541409694 -0.3350628215446681 -0.8316408010194194
Ni 3.4290573960494672 2.6161441815495485 2.8908020123228955 0.13701228769271243 0.36515295606182924 -1.408032250378388
Ni 1.0166961619897115 3.533683603625768 8.268014968748341 0.2799214004858341 -0.8514658061651466 -0.569202130699381
Ni 3.62341366168995 2.797279548534899 7.216018101808423 -0.14156056918502716 -0.8594750496228682 0.09169659447504853
Ni 4.050403411200534 6.753126368121124 6.157063057795488 0.8803099840903484 0.27543739657255145 -1.2123977821670926
Ni 0.6837296404422121 7.365552804384995 11.168055310391761 0.05599939818375517 -0.7710414421698076 0.7050869896558696
P 9.223750110363842 5.504349102273614 8.218990789885906 -0.6852668696061488 0.27618738736469856 -0.7790792248726195
P 8.538491011166249 1.7242768469303844 7.9008398247011895 -0.077315386052712 -0.8606307604938662 0.14142250094526612
P 1.6949735400481871 3.2775694415277496 10.36546254671188 0.8717384403712536 -0.513007071565052 -0.21963880154569268
P 4.183644714496162 6.055778296523122 3.8315893885890606 -1.1039483937137375 1.1109389660989577 0.45974409847585335
P 6.808989192644076 3.8951121844629566 10.321606290357996 0.6848467513495948 -0.0022767118493186595 1.6569566882620752
P 6.1979120124758325 7.9292973562858595 10.210820592874011 0.8017388712536645 0.27388547870439933 0.14167189795191085
P 2.237809150171859 8.303765727577424 6.057410081411927 1.1521020706008287 -0.18735474470100638 -0.5840584789859231
P 6.7611132397744305 4.122919134782931 1.5820978539274857 1.2729367200924142 0.18768101769217355 0.3712647253865219
Ni 5.21188652428402 2.864688020855998 0.6923060192889763 -0.4809343594002233 1.2599567628929784 -0.03464664353959194
Ni 1.6054879780550246 1.0894292154130145 7.153846373112161 -1.173128809364141 0.5201503674780525 -0.8689662769427551
Ni 7.043479035571919 0.8621701174003243 9.343935323467022 -1.1464055344366837 -0.6687770994812418 -1.5768801945244584
Ni 2.717148225110744 1.4705533130823352 9.151109422122921 -0.4064459012733452 0.39403390076223754 0.9334986522981858
Ni 6.417252154410499 2.0851077707050805 2.7788898218302123 -0.6603137992052369 -0.10885870807663188 -0.10198923465030822
Ni 4.261811013942123 6.8375771221332915 10.539415162455278 -1.2108870019495213 0.7091117945445464 -1.303490167399239
Ni 8.118410539514478 7.33871256903307 0.20095222631198825 -0.08825954376904155 -0.3841230694064288 0.23826901505237028
Ni 7.539733616461344 3.8986347389676457 8.20076677718491 0.4639267690986333 -0.5544861646454451 -0.514704770982449
Ni 3.36135915060716 8.357319422540748 12.612356084233621 -0.3774600555639564 0.8556646747378425 -0.7518923800451824
Ni -0.12470839041704483 4.637791638709994 10.450086259055768 0.19977497274223013 -0.22568526485008877 -1.2109080849954437
Ni 8.58129593441475 2.357349618080353 5.675377726115818 0.5435785165940058 -0.5101909422724955 0.8208712212077411
Ni 3.5063453207217647 2.6792060570525225 11.274812255949946 0.5220699530982686 0.12186000543230625 0.3821667170110063
Ni 1.1307852730554728 3.340368710139628 12.624059296166426 -0.9493479606256165 -0.42532139802160945 -0.27446114870221117
Ni 3.0941430558028453 8.279904722127922 8.116302440057687 1.2095891090737039 0.34800189820383937 -0.6333583536623157
Ni 5.723906574049188 7.935400702651311 3.6993586690536473 -1.5662365987676832 0.3481209402802069 -0.70206054412472
Ni 2.9665704391908565 8.442811548707258 3.865080822613723 0.7405376171539956 -0.5348095121521241 -0.6592465342829873
Ni 3.4550283120377685 4.504441670493914 9.262293557648569 -0.24717994438875493 -0.3119563174341918 -0.4030183636490349
Ni 7.259867113834277 6.246113960106838 11.299463798695745 -0.787779837970411 -0.9804570233255954 0.6576516789920416
Ni 0.684575415739739 -0.053154351380658264 0.33607886597747805 -0.02086733036731245 -0.006031036685428323 -0.5532679759676278
Ni 4.628428344730948 0.452585771523322 1.5608792171270018 0.34108743047219325 -1.180135322588961 0.3699058973657823
Ni 5.921196792541906 5.883272735303758 0.4858308983949571 0.6027622260430135 -0.9232448357806615 0.23801807538382877
Ni 7.933028185221417 8.75139275656407 11.411880375527534 -0.5304149826288542 0.9934981727802695 0.17707470293123698
Ni 0.1654215139468221 4.793508469719347 5.832948199559901 -0.2556021070141791 0.370531189654607 0.6647309544363261
Ni 7.9783867341005665 -0.30278212326862775 2.4238806211687933 0.048843246754948146 1.113578974824966 -0.18533642871939693
P 8.49847515420938 1.6363940925139058 3.3743699637494164 0.9208549953922465 0.020515603454848538 1.011579712872329
P 1.65911411629865 3.2539619875593044 1.6592463252852014 0.8081159784246018 -0.37872118166456714 -0.5551896184703728
P 4.712553103981756 1.0448041547469242 8.184571176332373 0.049097271747283185 -0.1067545172494355 -0.2801142332229305
P 8.65958900960124 1.5857924612228924 12.467058408013719 -0.40288440917433194 0.22376567922987267 0.11506869354208568
P 6.337673210998648 7.895249014543875 1.3883184179064085 -0.8973833946328674 0.26472849479547955 -0.48396003360042456
P 1.8686291383423461 3.2532466101663213 6.12587713116644 -0.8703271618460237 -0.07991014336308173 -0.33675306476289746
P 6.963637485268974 3.883177154033186 5.8443996710936545 -0.03212593400026725 -0.11444982901116418 1.3255731153412074
P 2.2564089623894215 8.328532274030705 10.135765732317024 1.629973474805012 1.6428210201916418 1.1841526712784705
