# total energy = -381165.5551742788 ev
CRYSTAL
PRIMVEC
9.23431179951941 0.00000000000000 0.00000000000000
0.00000000000000 9.23431179951941 0.00000000000000
0.00000000000000 0.00000000000000 13.51534873713710
PRIMCOORD
 96 1
Ni 9.28750125742143 7.082495390960129 6.47425714046018 -0.3307150860989337 1.643257336398112 0.4736987608837326
Ni 7.256617570913535 2.0446335765137618 5.238995279326679 1.294512903601293 2.0575083355381723 -0.24551824041561587
Ni 6.814035483471508 3.2368478471567665 10.301249527923817 -0.38631904861648303 1.1879643317150768 2.5913927647728663
Ni 5.994628841651102 0.4611449006655295 8.308763032573339 -0.023389582568533913 -2.0724757554812823 -0.1995129773300951
Ni -0.12373885231001573 7.896897035881151 10.939458660225673 0.3942979530569016 -0.1974211277980729 1.4818455368151124
Ni 6.436075108763566 4.091621902491255 7.333657585917528 0.41473205254153733 -1.7612722570527153 -2.711162206224731
Ni 3.3261990464158444 2.9307304168716883 13.329458261713523 1.5626244559363927 -0.48865152553882296 -0.0859262676501746
Ni 7.269046954357389 2.7253223891413327 2.575457822389008 -0.42217359642124713 -0.769688784796655 -0.7636757458333557
Ni 2.5600189767873904 6.330536161230288 5.540103095556564 1.4400689670989586 -1.0419405845523733 -0.774703464402427
Ni 7.399684760880556 6.422602248106374 12.792763763939869 0.21237672066664068 -0.4908014820022902 -0.43621567633661
Ni 4.719665904559091 5.139919426497971 0.3175375034685944 0.45458697975494616 -2.583182975268564 0.5955623658604646
Ni 1.5995859278685323 0.6992479321264234 0.3122554772205382 0.9746648421238505 0.7495403348732382 -0.7200032446460697
Ni 0.07362516656600089 4.307058392643619 2.0505620045753914 0.2212791653625931 -1.1156697959157236 0.028903570408227643
Ni 1.6531726382137604 6.229965273349903 10.825564507536379 0.9158642270458743 -0.1366363924105324 0.4386762220619606
Ni 2.3436775240960235 5.454929498875495 1.4030012848934528 0.05721604419967566 -0.20603535182964516 -0.1571684509256132
Ni -0.2146414159216692 2.6950246127079893 7.021331927928659 0.6923523156980206 -0.07545545002583778 -0.8944129991506338
Ni 7.560841967316007 5.504019099460577 3.4645511968684284 0.6105040747719616 1.1191281867779694 2.645946174538714
Ni 0.47666777850291153 5.508774769946151 8.164149095409554 0.5419132130764409 -0.4248398303995006 -0.19004257594581464
Ni 0.9098696521988288 0.046040430887340694 7.5469978873315915 0.5166775784381037 0.0042194373979862814 -0.34358242897990504
Ni 1.199897217912905 3.190048355854058 0.19627898726037574 0.4441004784013255 2.2266858951095196 -0.028245367998938453
Ni 4.697171121446739 7.545245214985645 9.228996352706073 0.6838036547970611 -1.1921989386217144 -0.9629904911097157
Ni 1.644547791158368 4.058590769817658 6.377946963962405 -0.8691169435880065 1.1228130918287245 -0.5592645598706949
Ni 4.091861994593439 0.6519008461445024 12.241851196561088 -0.37998899263339714 0.5377084309664739 1.595782173635284
Ni 6.902767983851879 4.80149113984585 1.5692262815473181 0.6475559853189363 1.3311125571021978 -3.1269568957028278
P 1.3936238414408284 8.53863552208512 1.9231663648628752 -0.22628381766603609 0.6108591441185351 -0.4403667223905061
Ni 3.020377114102685 2.875730856848221 10.675989898169 1.4866162187308782 1.035831643441158 -1.1715049006074727
P 1.8799950345966376 9.104274046208262 11.263988384454807 0.658580361453898 -1.0621620538055707 0.855021641837205
Ni 5.936812816582781 8.2277347183796 3.5236941925169 0.05307476833779247 -1.6848055921535434 -0.9230293773357459
P 4.4269566947498475 2.678005776387766 4.372985837041124 -3.642674167110191 0.20518663067610468 1.7116419956200974
P 2.996977368451331 5.398175419643757 12.701305294768543 -1.450419457095347 0.3178114906633881 -1.5526434334642807
P 7.535853920065587 0.49280935521899955 3.7203296242059034 1.0739454195937441 -0.5404083463961402 0.1495955236743617
Ni 0.39747986261553114 6.594729816749326 2.2836480345317938 -1.771989386359903 -0.21984346135733107 -0.8243419533651609
Ni 2.0437101453515143 7.3326805957478705 3.500178094539103 -0.32999260611061226 -0.49581796138027506 1.004230214485793
Ni 0.81420310722114 1.5216575720864578 2.3373040022141907 0.47956370430494183 -0.19725889118859577 2.021724493070344
Ni 4.150804605679704 0.4049227177832468 9.996640984157851 0.00521136899761038 0.7352611992464045 -0.37785960499522026
Ni 2.9558939160429354 3.774709561919502 8.161905157685291 0.5377068883045772 0.5363372616505602 1.0075358818202584
Ni 7.14071772573984 6.927257378274685 10.044458096601357 -2.902346866194789 0.14721313948511422 0.38247422094909617
Ni 8.849785652204448 5.610472243844479 10.290410292941354 -0.15302049019551064 -1.4770985090484303 1.2839109597157308
Ni 7.076991741233133 0.7021105687293908 1.5047181508461878 -0.8715216963747571 -1.1673137453442606 0.3420796191821334
Ni 0.5734803015529496 5.619392588871792 4.761767901539445 -0.5894099731058237 -0.911716780536404 -2.364078448959787
Ni 3.6595022901174916 8.505087267960665 4.347806639540119 3.0124813556600505 -0.26972543378943875 1.6558914802223546
Ni 0.6374408375748671 3.217400386879832 9.382882462169986 0.45892700189119673 0.10902608689243158 -0.2560348236762236
Ni 1.569158871072474 3.3611232129720485 3.9859739900808315 -2.051574486552241 -1.006141829686209 1.1204754448344834
Ni 2.3143585846946624 8.03048058781189 9.344701353904533 -0.08923347764653664 1.625028472094911 2.580513913076833
Ni 8.75498620908811 2.024170341958355 0.6773718478927777 -2.7831222415028 0.33774679613473446 -1.2549143153730646
Ni 5.292728815226704 5.969890120814489 11.503994607541092 1.8234518159052533 0.8049126409959556 0.30445229574766275
Ni 2.229319808963281 7.141936654874007 7.493531223037455 -0.36646473289471726 -0.27327458459327775 -0.28589947244613984
Ni 5.988192526450237 3.9220522381677285 4.592840021873681 2.6800534006350687 1.6132394498797828 1.7130859271554753
Ni 6.672612000973289 6.832531809651327 5.464106557765911 -0.7833984210732637 -0.7119793459003286 -1.309620962887325
Ni 6.040800399763483 8.419614479583027 11.82802475551145 -0.8187330918188158 -0.06360240734199368 -1.7479871099080346
Ni 2.4681283418321325 1.920764520409869 6.09420611760091 0.4076196098664722 -0.46862083214019296 0.525403902567508
Ni 2.538069018060765 7.695524402329819 13.51575403467884 -0.4321584755481009 -0.6542583370397764 0.3088933622381519
Ni 4.465094401750672 7.6341439329752205 6.337617031382403 1.4326150819240748 -1.7533910545324256 0.7075704181993556
Ni 8.876518984351517 3.461500180308362 11.485815941681087 0.17689806814405662 -0.09109598477657214 1.6086556871638424
Ni 4.87727713533151 7.289445548731438 -0.00909117979232759 0.39519064007450005 2.7208709488720624 -0.8623387443239084
Ni 2.3486271151256704 1.670450035259413 8.734915432776658 0.1578986442234184 -0.9333731824639151 -0.2646721876362474
P 7.48100210902808 4.10696932840781 13.078667286083348 0.018265631078407254 -0.12193173921050612 -0.47799713114877035
Ni 0.4769872856850492 0.6874141617822204 4.950037046898485 0.24813665187506942 0.321948138539581 -0.819069392112312
P 2.599569533466455 5.114054119643416 3.596988770726816 0.6621259127133113 0.8774372905282436 -0.3349921162077327
Ni 7.111565003947684 0.840519048482872 10.445066543994582 0.004034060860057568 -1.444724463593099 -1.2076232435965846
P 3.872879528778044 5.75331781033256 7.753903720407112 0.7124611706327536 0.0756066308917214 0.26015604493344874
P 5.172987496418059 6.606014145551992 1.8781066178698413 1.1999281889451723 -0.6089871239068029 2.9319443773462472
P 4.2102920411516935 1.0731008850246875 1.281902522276303 0.2321554459554647 1.499438053085895 -1.125905357600803
Ni 5.040133455105496 4.1265922406055715 2.6179772102546988 -1.1459396505438588 0.837732515739454 -0.5116261320571254
Ni 1.5349088092647107 1.868322864705828 11.787572930018033 -0.5768946142476323 0.08712285906143706 -0.1120173083102716
Ni 7.502767381522255 2.11836032050761 8.581814239800655 0.8586772363119212 -0.8987177971735749 -1.5144386402597854
Ni 5.904298805360043 2.8856669761540057 0.7185827338015636 -1.6327188987606334 -1.0023491954129964 -0.5556570450250947
Ni 4.600663330680242 6.099244358022133 4.259010422409553 0.3796735182755074 -0.11219728553156162 -1.179867156529239
Ni 6.820213237946945 7.242553714312505 7.557053129257305 0.09571317183360936 0.6034664511988898 1.6911819279935325
Ni 3.669669267213838 5.281536829540263 10.175043267548274 -1.649873813273365 -0.7035646394740721 -0.47913535851827166
Ni 0.6662269571956115 5.716334392284544 12.940513673330646 0.04956778362579851 -0.894711247117343 0.4772556249970554
Ni 5.463849843902807 1.3372299003623676 3.3325060812539955 -0.5841785495035552 -0.9744352426115477 -2.0265121442669747
Ni 0.4159327875307249 0.6023319847862135 9.799870731519158 -0.7370146916024016 1.3555038414623688 -0.6812276665397687
Ni 3.7392959768473064 0.13602695078604451 7.463810591080516 -1.180145092780974 0.5997689477426444 0.5727361119945685
Ni 5.0358210315778 2.5819874041372612 9.131686100259582 -1.3273772584294816 -0.5931810101124816 0.08115044352808605
Ni 6.907089641691198 1.9894677988810903 12.314266668304546 -1.5113360900750616 1.0147059172061363 1.07015818463717
Ni 7.424284967042832 7.248916155020391 1.662725533587212 -0.8859227022914355 0.6447902496483412 -0.2177081601818831
Ni 8.760997745954342 0.8398126236437526 12.181058952856842 0.7547666162691841 -1.699097069075551 0.06311621173419453
Ni 9.441991290865452 7.954749998195965 0.11771531083867466 -1.2187103546486817 -0.19521434995474124 -0.25195756828305643
Ni 4.9618080239236555 3.710955874477928 11.767841052943124 0.36740138577637366 -0.6565072809749531 -0.23925708999725248
Ni 3.0178469127181264 3.1619760485217316 2.220990459879808 -0.2697670856606515 -1.0591970576399758 -0.515582545601712
Ni 8.21606254848879 5.038886823036462 6.25069999666701 -0.5872157936679823 -0.8521962565732678 -0.07779001169628538
Ni 5.602392221174814 4.944659907240718 9.040051255736268 -0.39186748923853804 2.2302592142830755 1.8628835395383143
Ni 2.66504080286981 1.1229846364093026 3.852780126100563 0.43095134261387713 1.653817114191829 -1.0162367520283662
Ni 3.5583219376700224 7.531366044617063 11.454204122703864 -0.012986899177971183 0.7535646255412828 -0.7657493405329329
Ni 8.092978408872808 0.40374534305138104 6.48350160982544 -1.0792115530886899 -1.3678271389144119 2.059055882530951
Ni 3.661875508204468 8.400914998547513 2.097825058321548 0.5762929761078913 0.12250972320116321 -1.0910995627755273
Ni 5.890419634991462 9.578474416645648 5.489367017209194 -1.3150534467568062 -2.2262112694659466 0.7873723181193472
P 2.076187219327762 8.625114850429608 5.674176066003292 -0.7669071082864599 0.1716350199729044 1.1317643874847414
Ni 8.40553215435875 7.75169671992934 4.325478997468134 0.4189805434052462 0.3776006949068787 -1.0136039423912093
P 7.9478981389720875 4.27398108841191 8.86985273479125 0.8943669764040467 0.5615045049448071 -1.2806001501749429
Ni 5.086517402385193 2.0057294216482706 6.890719054046873 -0.34034772409269126 1.466786328489145 -1.0961407247438604
P 8.383683773059973 8.081961875107194 8.865649276140699 1.1084555375554717 1.3589938568934983 -1.5851959134790052
P 8.381615287256539 3.499877979411372 3.9854734903908935 2.867869915463842 2.3501057888297785 3.051042246652384
P 7.382702861806823 8.662329126268185 13.339676027523792 0.7909111845105411 0.023815614362358985 0.27991265873508564
Ni 4.197160850024533 4.253259293131074 6.033021415652708 -0.7021854997383583 0.1818312437796159 0.5569695931889311
