# total energy = -340869.8218591322 ev
CRYSTAL
PRIMVEC
9.22919659379095 0.00000000000000 0.00000000000000
0.00000000000000 9.22919659379095 0.00000000000000
0.00000000000000 0.00000000000000 13.50786211649892
PRIMCOORD
 96 1
Ni 1.3923535151955846 4.010325879891005 0.41090782834637113 0.7609578326815604 -0.49354459196506617 1.1627294684076879
Ni 1.3136746142182647 7.427269793865787 5.886780289953868 2.0317908761674106 -0.049555185220308204 -0.18969521990872493
Ni 8.841801068480551 8.766500053457214 4.540761956266392 1.18676336942844 0.022546517841948267 -0.8721829841078398
Ni 6.665454990080231 5.755151642268387 12.946759438583996 -0.7304138984564323 -0.9079922804969652 0.7037932105451105
Ni 4.634090360999877 6.233842382091336 11.470619585015097 -0.32236568569297386 -0.0621744166462155 0.8537420037938328
Ni 8.800971102741705 8.477773867161089 1.8362584901301329 -0.44743931296657136 -0.46052391406467136 0.33520500354948723
Ni 6.993211448779064 0.32018482581181945 3.2958236295330288 -1.7303555128692008 -1.1569023202029494 0.09151687436407466
Ni 5.669883094921823 8.042727998038638 1.9135908513241575 1.384260601880087 -0.49857701218265105 0.07041737338129808
Ni 4.916106921371014 0.2113070706541024 0.1902368148263932 0.4267951543536585 -0.020374707001610072 -0.20872421151571793
Ni 0.8245742635551611 0.8049945229776381 0.2943569191390888 -0.060364617130986356 0.5700189701737216 1.0618892597601581
Ni 3.028127090599592 2.0048583764578485 5.894291010143351 0.3151776525849669 1.3564916592969347 -0.8447333725373194
Ni 7.744108112992049 2.4737938554792693 3.3513141740639543 0.757371915102515 0.4264516549713107 0.3154620165946051
Ni 8.309876322694297 6.674324248008583 5.593159860703106 -1.6802351991740418 -2.85700957571057 -1.96390398251745
Ni 0.6200432690415335 4.676609269715714 9.769183044592516 -0.5350337123477883 0.4912776503077604 -2.1756343278493433
Ni 6.014316711868869 7.302989432509707 4.290164349865587 0.3484104464961677 0.5441289897808371 0.9549038574468395
Ni 6.735006215624521 4.948289129899802 7.24124056976732 0.2731041204536845 0.7634350905774594 0.006815994480568906
Ni 2.5852917795504715 4.936974134873622 5.9923041550687515 -1.0116193078610127 0.3705679564298134 -0.8970000431515197
Ni 2.9207546174066144 4.020265724624445 10.00205874769049 1.3146690668341938 -1.7432933039767913 -0.31604514279158474
Ni 5.29075692797199 3.770126809294439 11.466013292994242 0.34945431437964974 1.838807472425717 -1.3764274789889135
Ni 2.1807484051764123 6.030938494937509 1.6551724237282572 -0.48670288645288434 -0.0866160946283476 0.8249569612413405
Ni 2.860201858543014 0.6799693654562942 12.588327899160433 -0.46468087365583843 -0.04424097209624638 -0.5322782610898381
Ni 8.993233726220828 2.608004832372194 6.02252054472268 -0.19430752186975567 -3.3689594096557007 -0.9246864533231947
Ni 5.240383972953315 8.781368289172693 11.287764281625847 -0.17530398418405937 -0.2456352256094544 -0.7323052019418743
Ni 7.286552233372979 1.0027245225199826 1.0651784958822728 0.13524645404154126 0.6157282992853783 -0.38899222457327204
P 1.6093596147474576 8.06544105086036 1.0794523713369968 -1.6637490285935603 0.029042409978937082 -0.946529517340215
P 5.778870677519027 5.45909747387537 1.5980344676050213 0.9300281772510821 -0.2746164433331529 -1.2054118377675627
P 2.5349003661386047 5.230859442066676 8.094775129319752 -0.8873198397492783 0.11545641589880762 0.9136911306539555
P 1.2761025548776586 4.974315464299338 4.268903049668349 0.6478184949517037 -0.96874950508068 0.16848824681380659
P 0.42267413108607604 2.3390568143803967 2.1314866454278443 -0.4803010966915987 0.7710383568460141 -2.3501368991780303
P 4.6609750106828 0.8112371515548884 2.4152189134461017 0.5591563164276048 -0.3570915192099334 -0.1819538854004092
P 3.2782290891432155 7.886551533248232 12.046676503082097 0.6715145530170629 -0.4952556611189019 -0.03369225004612262
P 6.3336469140759375 7.03214020001922 6.616543016882635 -0.9847805904016137 -0.2696519002390259 -1.757139465831264
Ni 6.982385601172448 6.681319979028033 10.896778597050698 -0.8420689383312787 1.3078042213935606 -1.039049121937191
Ni 1.3204949905023986 2.2281218713015245 4.059814677875824 0.24882313641913276 3.8427018792931755 1.8517010405589336
Ni 4.140466781085279 9.0943580333186 4.496132330289146 -1.0587378586153702 -0.8887506586585339 -0.8938419571385121
Ni 6.468494705533957 4.453991818633728 3.5357236741598976 -0.8007677655896467 0.5859860350259392 -0.044331989148155906
Ni 0.20129246942823853 6.654139995054049 11.14552574953409 -0.8956041912452575 -1.1990735542543607 -0.7959104374973454
Ni 1.6276611115964927 8.445859305333572 10.731712570099429 0.8732008838493928 1.0050244282523144 0.11900068160664021
Ni -0.057135187364257246 4.636471493721536 6.72532109671712 1.3674900672899675 2.9876522124315126 1.2998744250235228
Ni 6.2937952431762225 2.6007229962582814 6.249668608413435 0.8034208869417777 1.8336120442677066 0.062009608933577084
Ni 4.162026184332554 6.845987304686371 0.43500341481811144 0.1363599988206942 0.4588704376216484 -0.8480542093804363
Ni 8.660890356813992 8.363857893581844 6.824199017363526 0.35698533264937227 2.196809933485694 1.6170567667433442
Ni 5.266659495660932 2.7042007484879247 1.523984008720385 0.5730718980674324 -0.44818364733176363 0.8163897883976198
Ni 2.4755104860460473 0.3364946620355285 7.1524400088836275 -0.1973175123406731 -1.214430239216089 1.960434793021927
Ni 8.060623410237467 6.1457035546035454 1.2583612702619749 -0.06166790932344218 1.4950046999048898 1.143762440386882
Ni 4.3866925170587585 2.475464340063069 12.841235573469113 -1.784199812383166 -1.3631469598299233 1.6183914263943675
Ni 8.501557506787897 2.2540097677521267 10.155143431621374 0.6817475435989807 -0.8783454041648098 2.1781455243069714
Ni 7.59882210018443 3.9869114081280186 11.297610911473672 0.6232112379259848 1.6455854703106563 0.32922718869949746
Ni 8.850079657826788 8.263453463818529 12.842843299516064 -0.31739522906157597 -1.0456342313538767 0.2825812067061843
Ni 5.191792252877586 0.6275170724446343 6.357177673716028 -0.35621065926687684 -0.7522240523529883 -0.18003507111114156
Ni 1.433783378713143 1.662990476164373 9.481897535884961 1.2116051110624684 -0.832519604079947 0.5623187733159865
Ni 1.783126928249038 6.313398056745235 12.86842663247901 0.9564519186602496 0.20520411417760143 -0.26492055620162763
Ni 4.939835185818252 5.468197461718613 5.393715999352962 0.5771406688201673 1.8422193263207436 -0.3593677168386198
Ni 0.9500165807626252 6.896830948731421 3.5114093557288424 -0.46030614162691047 1.0951225678919911 -0.4056804838622304
Ni 1.304463876015876 0.4952082329700586 2.869921125477819 0.4268964558182132 -2.637568234887664 -1.0293046409559177
Ni 4.3004549040696585 6.190852784349123 2.943957740567562 1.6473549035062531 -1.868041943810802 -2.0351777903617725
P 6.57466738316951 2.636541508245727 13.02822463401352 -1.3933173127657164 -0.30085583664565607 -0.3748575849441028
P 9.013334916406002 5.214514534895904 13.118984553334455 -0.3377815060274118 -0.7303884445351356 -1.7277119045987663
P 7.772977039943024 4.232315745604492 5.245791359238665 -1.0412607848765292 0.2391401048034139 -0.5840703060604651
P 3.220195900950208 7.0194962006832755 4.303024312401868 -1.9456818030824687 2.3085410780141147 3.51910103564152
P 4.350874005071312 3.5548281111127484 5.345344857075868 -0.15523806667211976 -0.22302134486468045 -1.5123969272394082
P 0.8500256190067921 1.196916048087582 11.613100844977321 -0.24314614063901352 0.34793299263911687 -0.048796452677412734
P 3.585662856938581 2.130707701235177 8.452072400481716 -0.8236230729212654 0.4541216100827534 -0.5453068121390221
P 8.811197052569607 2.2026585178943194 8.166434303366472 0.22765575831289825 -0.32367206320922326 -1.3081819164479533
Ni 3.8787267656346294 1.534741560272193 10.488597996298319 -0.7848027576199581 0.7649052473650827 1.2427267721679371
Ni 3.0005317927788075 4.103014701300415 3.0360134390905156 -0.3682760750718432 -0.6904635833157399 1.3639314034044316
Ni 4.812269230474144 7.273428315814065 9.112444489886956 0.2908095081532475 0.2277855990225432 -0.05610198519989047
Ni 5.012865818479076 2.0184160662567554 4.1947049236381835 1.3213369657726726 -0.20953873699721332 -1.1511278796130175
Ni 1.583905490536848 3.2124526050065167 7.734844768369066 0.6365514066783167 -0.17238449654441926 -0.32692245182572083
Ni 7.3993422449675625 0.7349430749778666 12.066519275762593 1.0388521754350366 -0.7203068919294175 1.5862598359671454
Ni 4.306979946062733 4.017441590466197 7.346939789617519 0.6357985876726922 -0.6496118394067005 2.7709197858993373
Ni 9.062092762020452 4.556463588434453 2.7691659862438716 0.42548183485887364 -0.6775623018730396 0.25059771182105234
Ni 6.258668920933445 1.7704275537335201 10.50895483522919 -2.0034892010092396 0.8015383252070841 -0.4614479685408376
Ni 3.2607305323979956 8.383359185988304 2.2826396585112754 0.45933297908036375 -0.4097615959101395 0.3805556637701446
Ni 8.665283454393489 2.713457632673291 13.129453231032821 1.3640147071468571 -0.32720681583535904 -0.34089716883825805
Ni 4.146115049401773 7.5404197441275995 6.479234721612233 -0.3467847379672866 0.27394307141521207 0.2412689782209587
Ni 6.715458777235082 3.1551023773615823 8.761753477648107 0.2791055894527581 0.2563785801688874 -0.5404973065655206
Ni 0.715529459939064 6.539919457987152 8.236378692685735 -0.05025761060397151 0.6468167931600667 -0.1493489548811944
Ni 3.8811355859460757 4.537534506216918 0.9127712349815025 -0.09402267150506388 -0.725542429296744 -1.0379180936565415
Ni -0.026663148964630685 8.763343668221525 9.139973337492252 -0.43497769016445087 0.6100371624378719 -0.05184423836480104
Ni 7.288148884384015 3.8903924701314425 1.1706700588090715 -0.08547015394936248 -0.003914504563057774 0.4431090610223337
Ni 7.052961267538849 0.7058554160675771 7.668278265003786 2.0287019528294414 0.9927479248778064 0.4080615824998972
Ni 1.0947673001677023 3.5654047704112832 11.517086744034524 0.8247024220283732 -1.3175268479979632 1.758630448554494
Ni 2.7925979934803897 6.325386783122893 9.956388068337262 -1.0757978994214503 1.261385524919705 -0.04029227186114351
Ni 7.007046014475838 7.661903658915218 8.433268835337882 1.0262128894044713 -0.6750729597922825 1.7060534457887264
Ni 5.005039459766024 0.529434708544767 8.751568136285226 -0.27594081857153124 -0.9369326176803994 -0.21772204413895405
Ni 2.9254615076703603 1.9440010541065935 1.3942408858993807 -0.29756765281268754 -0.12624605031514388 0.0880011479013323
Ni 5.280078747510904 5.027383344723924 9.530660919017366 0.6273090621444422 0.06279533805966604 -0.9419722369868357
P 1.4283196943285599 0.5448613106542791 5.366659686613359 -0.6542843051817054 -0.8988221839619231 -1.104849051151136
P 7.888923436773296 7.08162715216472 3.2665384658155943 -0.00633057020371813 0.2050696454822662 0.17977410414027103
P 7.268453778849047 9.152095887220547 10.038651589272305 -0.36692958834627776 -0.24880873824142957 -0.5861421009878293
P 2.978095615854953 8.204561960342133 8.62426982764239 -0.42676070157129736 -0.9977970572659396 0.9735790652588394
P 6.563177033408013 7.878448298637313 12.794727805984664 0.1401094385607974 1.2214935738207737 1.3339289435050703
P 7.440458315800871 0.9358220763986231 5.289854312544943 -1.2622746123928776 0.7411647092150333 1.22254978299943
P 3.257158833315506 4.489016619713954 12.248618707950664 -0.48904310455028677 -0.2918394920796587 -0.14994390815271597
P 7.847373593699994 5.426093866849576 9.482681094675925 -0.3099467432033307 -0.6864274655731534 -1.7220590771883633
