# total energy = -340867.74872529396 ev
CRYSTAL
PRIMVEC
9.29717630550733 0.00000000000000 0.00000000000000

0.00000000000000 9.29717630550733 0.00000000000000

0.00000000000000 0.00000000000000 13.60735729608917

PRIMCOORD
 96 1
Ni 8.595248774782126 6.842126728168016 8.136478681167839 -1.3555238960670268 1.2940017682928295 1.7399524125290164
Ni 1.2295515639949943 8.771281510605803 0.08124988300994371 -0.5451756858777966 1.5307083239540862 0.22793112346147198
Ni 3.2826934894001703 6.757159834078411 13.470630377347556 0.3867072851938372 -0.23106915486982138 -0.5427200252484525
Ni 2.075975790366777 6.9998533238820055 2.1436350610799506 -1.200473519925681 -0.37913692904574703 0.6438872782180975
Ni 6.709623371721463 6.6644855808466374 11.34850898219641 0.24504695720615216 0.25474592966147097 -0.1797090552302905
Ni 5.868321889483981 7.8962033869165715 6.507636638574168 0.3218828325192844 0.12642705597769838 -1.9659696067972274
Ni 6.233459190991272 0.8131431244161467 9.098545834789164 1.1136779622966755 0.1673248226333247 0.2044662075703124
Ni 3.2851665382925916 2.633136970911896 11.951056188223228 0.07661218933810032 -1.2931116523783923 0.4659363433294943
Ni 9.137004534219194 7.684283550623929 11.722397715742936 -0.12693459174173624 0.274856584368417 -0.7344525873021802
Ni 2.736651731694658 3.6192047851188764 9.887364756884855 0.5000790506494742 0.2766463292789881 0.343542319770589
Ni 2.010932745060849 4.2810242791300945 13.252613452845706 -1.6158668602003008 0.8699013871625149 -0.4186514422006016
Ni 2.0801874112249226 4.454751315234522 2.4913708377303094 0.353409699482972 -0.15650459208936918 -0.08445945329666099
Ni 2.7127579886363056 5.669464585874991 8.592610236151792 -0.6931835533500643 0.8933668172743067 -0.499632707140675
Ni 7.4681799850020045 8.251848271434534 4.258232251461787 1.2098940419086324 0.22283416855453883 0.33591308536010533
Ni 2.05078973980449 5.944967810796454 11.295277069645866 0.21574872246266713 0.3611114390026039 -1.070378271067776
Ni 3.7301200982263265 3.5444182990638615 7.658003222412628 0.724172802642727 0.7210211443876228 -0.6094226687823247
Ni 5.553156910520908 7.829533335760367 8.683712336873384 1.3761917088290234 -0.9603085734021782 1.0033069313405751
Ni 5.41334597351254 3.276315626467085 12.750760244316087 1.4463128911261416 0.9731003258502079 0.5553112316499017
Ni 9.090955620068215 6.169764236247003 3.570121272627722 -1.5209473879125803 0.3274718965712876 1.7545609064708108
Ni 4.070480424927973 1.4010379806141826 3.7576713504361017 0.18633453096660813 -0.9696000260064334 0.7095316556907845
Ni 7.488838310712377 0.10597665306363813 11.824357988650464 -1.1908835622444005 -0.02549634449889157 2.2369278845525025
Ni 1.3801937113780633 0.4294579562156973 2.438914309682124 0.9834521013981772 -0.62483334691044 0.5876626513974137
Ni 7.303071431315901 2.6477242405066646 10.18275278244959 1.828224554703548 -0.5429930764041809 2.9504468070258087
Ni 3.855473926107948 9.002111803466807 10.058694980942418 1.3581554201526027 -0.14360099665382364 -0.042250938249411105
P 3.7759179886175502 4.731147069079567 12.045028327264708 0.5921757087764189 0.8235891343595364 -0.8396114779297218
P 4.463137368245664 2.024841320786645 6.235149417640303 1.626942144177856 1.1434924745549468 -1.2834203932325574
P 7.625237184023308 3.7616840117216985 4.3235876818909675 -0.33659956990416867 -0.425608590244725 0.8133170630095671
P 5.1405296325381045 2.5185957590524004 1.3552112689764684 -0.6033335251654512 -1.5926415711237734 -1.0062318182968542
P 4.194216544135605 1.9913807833286639 9.172502083001723 1.0294082564133176 -0.06332138576646515 1.6348531714948167
P 2.1208811518344204 4.515703602974039 6.4928457608187085 -0.48976404187671135 0.09030099967910254 0.6821661191936381
P 7.705611273026988 8.36917863618022 9.947603951203138 -0.15525812127677777 -1.7941571807061938 -1.5874834239616014
P 3.0940816740597814 8.637290605953282 1.188880136608586 1.5147430588740816 0.7015082711656757 -0.5670524313462298
Ni 2.6109632054666934 2.4941534825930973 0.8909372470001022 0.3552202703291495 -1.827962302181097 1.0268397243551928
Ni 7.462443627232742 5.228043952930428 6.836513093125746 -0.28109408063769653 -0.43713690259929877 0.39268432871287856
Ni 1.724189234008043 5.794837008109187 4.729127722389966 3.445515034724253 0.79357639004753 -2.0319857657870357
Ni 3.1652608557153252 3.2884670358745822 4.804418115399753 -2.0085923265637597 0.9140402864632581 1.5485936888749394
Ni 0.12228018140104169 4.325734399895705 5.404270999738509 -1.6438101235777882 1.619584161150888 -1.0788791094499355
Ni 6.883378299354751 1.5544320921782917 4.00516218320394 -0.13781909986472393 0.9179223951264837 0.2640885472186355
Ni 6.584725105477919 7.147185676506797 2.305045198038967 -0.5817501425677207 -0.013410359868634968 0.604734776388352
Ni 4.464122868932117 6.058867517492127 2.0445736477388037 -1.0965047929514986 1.1148023057091059 2.106373693780308
Ni 6.7907784235332755 4.796924591312192 2.6257168945170046 -0.9004612622272427 0.09636571781594372 -0.02293012643361212
Ni 8.669198514971285 7.907982909272576 2.0263939492266236 1.3949612761270427 1.7107567648016666 -0.34457256080731624
Ni 0.24085729748685306 2.0062376710357643 1.0313534301847735 0.6336979963899216 -0.48968768011282116 -0.6049294088976614
Ni 7.690661413557016 7.002902797704239 0.06657893882858944 -0.23587583222984537 0.06762001314181904 -0.49152164799776643
Ni 4.570380296719631 0.39787544836775035 7.576794246978348 -1.4091097997132827 -0.6045979937001716 -0.3545289006890797
Ni 5.527989454311196 1.4512148410367234 11.37662178385394 -1.3675666861641738 0.10958684449190804 -3.353884003379817
Ni 5.806672313522916 0.9264431632412884 13.438163708034688 1.1703563888253263 2.064923911275953 2.1331069960100937
Ni 4.5004841253917345 3.499020187252991 3.05897460668132 0.9450079384893663 2.177689153495843 -0.3734856442972407
Ni 9.044451144279156 0.6602352551718633 10.417493467657032 0.7949344467373213 1.1257688320229386 -1.7873090474361089
Ni 3.5029435956462307 7.948843999055246 5.9010888575909295 -1.0250782615793959 0.591624207148323 -0.09965184476638322
Ni 0.5925332174477684 2.4228162489406695 6.210139083709847 1.543872629250186 -1.7547318848310363 0.8942142528762664
Ni 4.021530791775356 4.298400701611053 0.7497168580665795 0.616159730395842 0.5837520034890978 -0.565139273483917
Ni 0.7856374283701792 9.018130838209819 7.186971082993026 1.8560649739545838 -0.7896860538541883 -0.16712427658674445
Ni 2.684066902613708 1.0517058787952949 5.980624341293495 -1.3872510519669785 -1.0555244938843948 -0.7709419404774658
Ni 2.0607749071370467 0.9184020354704056 10.613887949267516 -0.8179738450552881 0.7951496480719209 1.5489377024779196
Ni 8.99605004452749 3.882686761100866 2.5816017930337813 0.25928444096177283 -0.591002257293608 0.3480785170780457
P 5.958774117583091 5.673183456389909 0.5863533843696023 0.622276127706225 0.4010614970329802 -0.07226419678204975
P 9.07666586011464 1.4471240834703127 7.894961284164589 -0.2420199974543703 1.2165619408471113 1.8498675868946206
P 0.5203852700230882 5.542065379210164 9.615189921074244 0.23374618748135229 -0.2929273258271987 0.7001982941050007
P 5.490001192001301 8.544067819320558 11.648319674521012 -1.2199894784714216 -0.6738185185598912 0.3918068112039317
P 5.597569521645325 9.156017259726717 4.41902970450347 -1.4745294627696737 -0.8141734974725914 0.3581446430647961
P 8.336629221998393 0.16451074525082968 0.35376685490792836 -0.1517231115403258 0.2169676824714328 0.1565364737685691
P 1.8673378573035508 8.404786821360565 4.300850507562755 -0.19453120784478756 -0.38789899150909324 0.384491508489441
P 1.1074331534613515 2.50294861136088 12.185755965855003 -0.712751962400295 -0.04300658546851303 0.2503627129921107
Ni 5.67624222738843 0.21553085956262802 2.2071542991923905 0.8559647224767645 1.3616531488932164 0.8003895563146216
Ni 0.4665416032728379 2.927113685116219 10.050843515567795 -0.2890961250065666 0.033587091926826025 0.1617254741686763
Ni 4.359743470754636 6.589894335493656 10.230120036198109 -0.3483425693727098 -1.041186479995168 1.0719980660593862
Ni 3.566852385445108 0.09670457915231706 12.601093370725556 0.3712217879637284 -0.12343712011143902 0.6972332979394057
Ni 1.0074606168440496 6.466948476270444 6.671945635099564 0.9004841450453782 0.4480124118612219 1.4627226999427325
Ni 0.12566342385198898 4.2038763102981065 8.00035035568687 0.49972346708226845 -0.2525941734257908 -0.7935265106462012
Ni 7.980975040304143 4.455876273565284 0.3701215177149121 -0.48307505989231 0.7896701130145884 0.971326778889553
Ni 6.379833934458473 6.118676252548307 5.003847195350411 0.13887325216085117 -0.30779652962954734 -1.6830238176627725
Ni 3.7758715027361136 8.369587711936859 3.2431507392150403 0.41965931463982564 -0.5620863455902062 0.6007289976630686
Ni 1.0477173901680445 7.808558906056225 9.613747929032085 -0.48441897551471413 -0.1549490746767912 0.8286750335228762
Ni 4.307000589676802 5.726614328513004 6.417773851451674 -0.22859163986360634 -0.678740638451857 0.8603314840858926
Ni 5.926048057051807 3.6628085419062977 5.657354084043158 -2.0348278632215213 0.5031121810488433 -0.7016679366719916
Ni 7.755416246398037 9.279093279417951 6.948365561602956 -0.9499976783944736 -0.31684115633031884 -0.02935222790987203
Ni 9.29436854005798 4.833964541640782 12.048280479530003 -0.19733062496679563 -0.5596024028260879 -2.082542652798981
Ni 5.443868603263734 8.21317201807938 0.42590736459157874 -1.3517014369971432 -3.763963901861324 -0.8776576340691659
Ni 7.228963639129859 2.3901552686433956 1.4931897325386105 -0.06732742160206469 -0.40499682753164445 0.7480233840080796
Ni 2.2045371440675163 1.657389022383816 8.362224348317321 -0.9001676422462238 -0.6224944143646183 -0.7421147318331284
Ni 6.456721582354417 3.3131417417410676 8.398025914764442 -2.3511437431759896 1.0215041710748924 -2.4097196438376693
Ni 9.179641384672736 1.1196217515739977 4.358177826267855 0.589096812740779 -0.3630503078965296 -0.2906274740494285
Ni 8.007183780258034 2.392591128830668 12.784561058426183 0.14475207953913136 -0.8058186977499928 -1.314255376335543
Ni 7.397595822628848 2.3261628042579323 6.690356833301298 1.755213195342829 -0.9399618914250263 -0.8301732153349574
Ni 7.489963269043141 5.103489682209514 9.493104980375236 1.1534333878177425 0.42355659281170277 0.5396593840452576
Ni 0.8925428693449183 6.533590635897786 13.383788242800804 0.01824763335627825 -1.0205531200155327 1.1321410540978696
Ni 5.406903030345443 4.23629556401191 10.325317543074256 -1.402261923553514 0.2922948344495224 0.9621433126180718
P 8.529982597245303 7.431651379369215 6.0243312967377065 -1.0381037273047864 -0.21193191981973825 -0.6572169054474681
P 5.349502263947673 5.595263821926076 8.405101065919077 0.32443259552433157 -0.3574584156310489 0.5650737103533042
P 7.223162201126586 4.282679176509234 11.846211001513753 -0.7284074095493649 0.18617409412934388 -1.2697035578670972
P 2.0582925610683387 8.14906798757847 11.740291990943096 -0.6511992384984784 -0.19820094338689093 -0.7869964228371672
P 2.6462088007718356 8.270860996942055 8.414217876986399 1.3625396652632276 0.14858842256608604 -2.6454949459339083
P 4.316214091377513 5.794790522227751 4.284331284735487 -0.20370233282109432 -0.3195942935954238 -1.304142713381573
P 1.3112644463840453 2.501005501516835 3.270650856955235 0.5835915666518336 -0.39240793512304034 -0.262521974062464
P 0.1471854572394522 5.816954990496666 1.5969871274805065 0.35456952411902803 -0.40270108951893224 -1.0196133818100828
