# total energy = -381165.9738827812 ev
CRYSTAL
PRIMVEC
9.23244854723351 0.00000000000000 0.00000000000000

0.00000000000000 9.23244854723351 0.00000000000000

0.00000000000000 0.00000000000000 13.51262167908472

PRIMCOORD
 96 1
Ni 1.6703622599780958 6.349062432992692 8.82306593277154 -0.6212957660708267 -0.27159539711864195 0.3409979560821805
Ni 2.342733778842059 7.392569144667185 2.648568787438315 0.7774519736818417 -1.0387585872799658 0.3533590487506947
Ni 8.214404770509173 8.501561612768581 9.834580364286648 -0.9108055815760443 -1.7574559686304185 -0.6082607872637396
Ni 6.884895272623964 0.5192356671614229 11.865068122370767 0.9393376275774661 0.22140334964528322 1.630193304125302
Ni 0.5784682862941007 9.17146806791254 2.96462873262597 -0.8846029550387474 0.8584358097250764 0.2622854325716257
Ni 5.704083588500451 5.824751688951547 6.918394288360519 0.5909292379638275 1.0564534334565676 2.0063040447502156
Ni 8.131811287216479 7.614951129025681 5.6587882734566 0.6436193692686916 1.3740602643083175 -0.694374745444688
Ni 2.5600379165863174 8.353445443255426 12.448488693981007 1.0046377343368569 -1.613899194950969 0.26783875828968706
Ni 0.9862286018658776 6.3504657651478995 6.334851848431534 0.1342475804633817 1.229908023136714 -0.5860960782412422
Ni 0.7060911901170266 4.4140335750320725 7.639927671653865 1.2053449890853691 2.0650141569969143 -2.211648798270739
Ni 1.2846305662637265 0.8162619967492326 12.804073673969059 -0.9516087316353354 1.2653344822651242 -1.1803358686355414
Ni 3.1396694913774983 2.651457620539398 12.827085551579952 -0.4819322045371184 1.0279946638952424 -0.969003530073015
Ni 2.927443200247479 1.6018574929278178 6.6310491041539645 -0.2773238149619869 0.6166911774192798 1.0238014517495013
Ni 5.795872590389112 8.119227460061557 5.321864841398295 -0.1776424025092489 -0.15149762579308101 0.8012264503936202
Ni 6.437897051396705 3.33862875417177 12.587047432921327 -1.234213335380287 -0.666428139633091 -0.047511158207085916
Ni 3.0083471454848896 3.0776920653386144 4.850963811290555 2.1577456204943806 -0.5867931043082668 -0.9273740274576868
Ni 3.506308481822329 6.510824161225566 6.36566052870738 -0.7362071080994418 0.3483168583410969 0.725952263140653
Ni 3.8483706946542435 5.692367611494143 8.83117386894722 0.40543417217937916 -0.9742033291063996 -0.39173559164636407
Ni 0.5152213986016573 3.801442159490286 9.552383193302095 0.23649881052582494 -1.5286655824924447 3.5447722151553793
Ni 3.999358155616541 7.392578377115575 0.5432400329741888 0.49776840023842656 2.093019383960589 1.3870847015924435
Ni 5.754908216884787 1.645166908323081 10.353937899766812 0.5218238985257335 3.4529478368532147 0.5191646065260156
Ni 3.948062672364338 4.171543318081189 6.897084874232655 -0.12334018952225853 -0.9665103313375162 -0.11834093653545427
Ni 1.1909673773519918 8.593516798728254 10.555938331060593 -0.5105670946649917 -0.36737207520033505 0.7645730608366446
Ni 3.1243251621541073 2.804328500973158 8.779880232184695 0.8589857686912755 1.6029370395125104 -0.7558397947287047
P 8.124600745024262 1.503836588376227 2.654879165912556 0.9519499170248381 -1.993924183028624 -1.0814324719994084
Ni 7.925115232671787 5.469357820645158 6.197942024773584 -0.5380293046410024 -0.5433005803422708 1.4749524092397048
P 7.82021615407 3.791166444432744 8.239024017384683 2.7577061154225406 0.6948362584621388 2.750848469070759
Ni 4.180812696264272 3.7929667718687017 10.585423078237383 -1.399926333441802 -0.281464833713554 1.6799320661113262
P 1.570790304097065 8.282789515730387 4.710121887863507 -0.5497309093486468 -0.35548740794760714 0.703870343639949
P 9.456612236423032 7.614120208670625 8.023983675985535 -2.2190147517175074 0.7498421823843732 -0.08708994894097259
P 5.297477328977364 2.9927627726033705 4.403614757024493 -0.2919107116372263 0.8749214660849255 -1.21840696447565
Ni 5.336576747907004 9.167433487966319 9.252253837810565 0.4160163185705997 -3.3563640894891935 -0.9711066924589468
Ni 5.831214402824215 3.7495650319895435 8.99129868408063 -0.5604233560654864 0.3821744303204902 0.5097597682723479
Ni 7.422556137036363 1.5502665713271502 8.190756777204244 0.9390910587842988 -0.30941606751084133 0.3307027448037595
Ni 2.5985741561641964 6.065016925840554 12.932402860093784 0.5172547910978124 -1.1906531914011493 -0.7909662061181927
Ni 8.884846707659726 3.5473467149137696 0.9640781116897282 -0.960198015966243 0.6414113058737793 1.3992010252400031
Ni 5.608287704010736 1.134963345421131 3.0276651204951324 0.13299802432699676 0.20376275374538458 0.5571439139832662
Ni 8.216352817119365 5.627149596070535 2.0815515068817425 -0.8705382494155652 -0.49056494051145194 -1.034543520757354
Ni 6.6269406646206255 3.8481029536509475 1.8109078218118404 -1.1603380853573757 1.5016348036268978 0.742198035575554
Ni 7.221741152115798 6.8964819953528185 0.17727224152727636 0.9576906761633572 0.2831386218715511 1.2029975718991153
Ni 5.956609516850748 5.120454363556605 11.00928663029017 1.0533454839552052 0.3658206715528151 0.5120117975313182
Ni 0.6012539689194493 5.899285244800185 11.137670287860393 -0.009754251173286427 0.7853853695963054 0.08029092374126819
Ni 7.260498970455024 8.38564822323809 3.1592644398394265 0.6353823260708799 0.8599956980130286 -0.12537598900536473
Ni 0.5969931939876832 5.450071235959439 0.025146419678550212 -0.40396375828143977 1.8222642233550552 2.606643777394666
Ni 3.7734493759732457 2.9764213389539105 2.221610518685359 0.38178722218440053 0.5221452864208943 0.8148841503863707
Ni 5.0624561227736065 5.624038260963266 13.287906594536008 1.2972763252790431 -1.5713422954253649 -0.37290020410741587
Ni 8.696430900926293 3.1007270240704803 6.315798844690071 -1.6122305489992943 -1.9776293025233427 -1.579602221441312
Ni 0.17089261969011432 6.897645283849899 3.3951950422095525 0.7214669736757898 0.24684570097778777 1.8593264183146754
Ni 2.331304007735827 5.3122954086425525 4.659503143078256 -0.12435474682970195 1.0005494232000962 -1.767842454071065
Ni 7.9291313477212295 3.7050553983036414 10.773518519011699 -1.2940794156083002 -1.1420410868204007 -1.1254147911176295
Ni 3.5063638765126663 9.15511740181469 5.239059935037481 -0.7505302095903332 -1.8049871814421623 -1.4655264879401149
Ni 3.797786109928034 0.46690614968959315 11.044338543845843 -0.35446102356562176 1.1321248561479536 0.03253679628544074
Ni 5.866602377501265 6.655856692976619 2.1519526188312295 1.086671866021477 0.10411707962658844 0.5491626955500026
Ni 1.7120744618019714 1.7583567255786623 10.329439597965209 -0.6831518801456751 1.3845542218611058 3.3568477139938317
Ni 7.515646914147947 2.7865468053749325 4.043651750010128 -1.2151653176099007 0.8774324054322373 1.1948494888706842
Ni 3.1149634594871283 8.172711033582077 9.363084764502622 1.2351828983824082 -0.5657627660005289 -0.4758494886781482
P 1.7448034913428387 5.2715341490027985 1.865147532855463 -0.04017143001256307 0.9542358848455372 0.29955511555636155
Ni 8.53150244289581 2.2145227680567205 12.734929098245388 -0.6988209541414997 -1.1725698515368772 -0.9911800661700543
P 4.771772485229401 7.716000276649037 7.603700467418206 0.6023734752450272 0.5785663455231003 0.2725341068828274
Ni 6.893749190629519 7.468690681638821 11.561047289883051 -0.7728047047178175 -1.0779565976356662 -1.0314633391701333
P 4.011729636458505 8.961559121328293 2.510793883366267 0.9594305416725992 -0.5190216531902481 0.5307600246730988
P 4.999453894963486 8.782089557084308 12.504620133699644 0.19833721185443906 -0.7402856490441896 0.3577132119543323
P 2.2104235609717713 4.7248162527202755 10.250742207892895 2.0993571532531585 0.27396929666745723 0.8714548476925638
Ni 0.7675719104325538 7.683003506104873 0.8879750396148708 -0.7326379026909446 -1.6379544361279597 -0.8574719031499103
Ni 7.365555000679434 0.8741679130483356 5.572010644553774 1.1023293700530759 -0.23057447462159 -0.22908709144278613
Ni 6.5123013529678895 3.567030294880237 6.837521733447632 -3.506937660806109 -1.0671584785788977 -4.32045372720036
Ni 2.066055765504763 8.589371429401357 7.178985683623905 0.7086433395485602 -1.1214864025975009 -0.6434540473354209
Ni 8.830661468061603 4.652738528143251 4.366657266121224 1.0889017837932602 0.2985058483562407 -1.227346175946809
Ni 5.2193615831535904 1.626942055202158 7.852805773640185 -1.7183008956975117 1.224689197939936 -0.48153291221617067
Ni 7.965950351898656 5.06551206319054 12.495336906843976 -1.204558488628332 0.5817043769314498 0.3408958832866774
Ni 3.9973639467644038 5.445556568696961 2.1802343779828623 -1.3682973936826113 -1.0987930747650432 -0.6835722555125453
Ni 0.9055342332069091 3.716208195958188 12.338685338794704 1.4307314917481164 -1.5643820620574478 -2.063383306261711
Ni 0.7140920298913892 1.5447640320869929 4.943579117310078 0.3451073502648637 0.2929376102398439 -0.35652459096286987
Ni 2.3209913628847265 0.017699526807559058 1.2812976523951078 -0.8217939901323266 0.11659027239293471 -0.20821667575168012
Ni 4.085192228293958 1.0510957842506827 0.5221780484631646 2.146121405991891 0.16169179271726347 -0.27123055758005543
Ni 4.087177204697706 6.786828205830426 4.151780339058571 -0.005941562295415574 2.718954962796272 -1.2374333849794816
Ni 5.26255097671979 5.148299427899413 4.8635300967935375 1.1710567573264608 -1.7789478199556072 -0.8699106431338953
Ni 4.055436047134519 6.518256282179133 11.072485509250988 -0.2939747932551066 0.7362688145753127 0.7033453243744144
Ni 2.443690601981519 1.4945856750899227 3.2593524895854324 0.8519712850466553 -2.631168759119223 0.3632451975161551
Ni 6.0637428479628 8.860593065740442 0.9896713818703315 -0.29167648413923314 -0.4236008157860769 0.22671164923207404
Ni 1.369818367553877 2.117369713653745 1.2663041562105188 0.2908326480816991 -0.5698186812374574 -1.5040061320725517
Ni 0.6437343104493334 1.9729742208415686 7.99274291712506 0.49221713140289425 0.13998371161621054 1.0848263281723058
Ni 9.208490185954536 0.25358950640477085 6.755175679771778 -0.8437378413932695 -0.8563984675800735 0.3325508537560918
Ni 8.693079522160895 0.3081551228765436 0.8241871304468011 -1.0163444812508238 0.3425614439145584 -0.40863313873265106
Ni 7.2123517521036495 8.140342069528401 7.773540587991914 -0.6360924647640271 -0.05144031805816303 -0.7191902618264711
Ni 5.222131317670448 1.2998179438644957 5.556646927188764 -0.6239486303126416 0.4898784559673886 0.8503969985809999
Ni 8.151282520869989 5.882251377521511 9.135936990285453 0.06987898437932481 0.06598607708282184 -0.18920465342555157
Ni 6.82914974924801 1.8354753669763675 0.9599133542212134 -0.3459905242007654 -0.7571286887434574 -0.9920745529598656
P 8.903099258125819 8.206584886723245 12.387628394197257 0.10626806453132022 0.1385644626711807 -0.1684712775329421
Ni 1.360641313854689 3.487252708346349 2.984802555601922 -0.7601237668160393 1.6790856589506309 1.1130269589762378
P 2.365685645538419 0.873190196763885 8.70739812636821 1.0917253692849842 -1.9173305056332848 -1.846314065215407
Ni 5.841443955639809 6.722607294832888 9.372854541388419 0.7928199714974796 0.8437836070295404 -0.29231925992955465
P 4.828727459344383 3.5158363685603193 0.5182090189005076 0.07511066509190935 0.38548883940570383 -0.8818896698726425
P 7.175283471819705 6.420826254324473 4.129929903455081 -0.4778351516496093 -0.9375602239620692 -0.48893897487225474
P 1.293807619962915 3.835879191983216 5.691178472141572 -0.23887091030242733 -0.19416868229904624 -0.1505054370831408
Ni 8.720961516297262 1.256767037024139 10.40431290791458 -0.37465935289036767 2.184943006844779 0.3676572105409216
