# total energy = -381166.19223862624 ev
CRYSTAL
PRIMVEC
9.31616969417254 0.00000000000000 0.00000000000000

0.00000000000000 9.31616969417254 0.00000000000000

0.00000000000000 0.00000000000000 13.63515604029073

PRIMCOORD
 96 1
Ni 6.340454545984276 0.17471264824581365 7.388304686512292 -0.3511453289288275 0.07565831006526325 -0.9577063598926409
Ni 2.2941253755700526 4.128712057441195 0.24872868343077256 -0.053087366743282766 1.91924417771623 -0.26133335307100153
Ni 1.9562372234066177 5.607476960831259 10.744462207464048 -0.18035414501345712 -0.7308347880439349 -1.6309499797856684
Ni 6.47298637351404 4.005198282002588 3.3899994383343395 -0.19328833657662195 -0.019963073385488198 1.8092230739003807
Ni 1.2763338559843103 8.884616595185099 8.62487713100377 -0.938563211305287 -0.4700663063374679 0.8845507616445732
Ni 0.6886652248517846 9.255381509569295 -0.12380909801225301 -1.6536199105793585 -0.63479457188821 -0.11503141254624703
Ni 5.888834596373676 1.4676879778359453 9.72046146089612 1.649751685873204 -0.9659274622508527 -1.1457370476147493
Ni 4.644688106065968 6.2252880584317 9.907903723168129 0.20782278274737112 0.5191802902552994 1.4265742750466335
Ni 7.7611610809527525 9.188090817157692 2.9529658153344065 -0.1538051908803351 0.15756028704739317 0.45489962589935856
Ni 5.5097130779339345 0.3513285899236764 1.5785420105197232 -0.17022888365399716 -1.0423357631082628 0.9510806270460073
Ni 8.052114371096298 6.343733837653788 3.879147713604868 -0.7993618863810555 -0.589256735357411 -0.7054276608247398
Ni 0.4416917077577622 8.000102196690374 3.8611218572090196 0.42376125262334113 0.7381251510577611 0.30425766323835346
Ni 3.2019860948710193 4.367634540839785 5.922170645751558 -0.04630608215539122 0.9824190321479724 0.6613383838150094
Ni 5.351412725523857 3.191859418607498 5.670738409927342 0.4050369367409605 0.5017731505224455 -0.8532159560870337
Ni 1.6772738434297254 7.26064055755446 12.391888906999505 -1.2707471686402632 0.36411243061245674 1.2646821933931058
Ni 0.25142105642079804 1.1766135774886965 4.562309877123753 0.5580803097546065 -0.7809520164153002 0.9367269294274965
Ni 9.037690576496892 4.3215753987543675 8.039301843161413 1.3611011330444882 0.3823708626020125 0.5962663339060248
Ni 5.069589281505657 6.871681164106182 7.291003817239895 -0.08015336972213936 0.5968242632920238 0.09914585166424215
Ni 1.236069371337632 7.8132850493928645 6.226221538617169 -0.6053631540009703 -0.29111701209133733 0.7257722859193629
Ni 2.9922139058869264 2.4055374468078186 4.855765490399205 -0.5861493000766809 -0.36971332173900195 -0.5858564514266105
Ni 8.729614166783564 6.042001739380625 6.2850708498306345 0.01551917868152166 -0.3945401509746947 -0.9300029804401015
Ni 2.306301609127019 2.715328031712026 11.870371600746818 1.4380475657935556 -0.5421721231647824 0.7216922023127184
Ni 6.514303585315988 7.282468342729648 1.6632707090307384 -0.5190177965355061 -0.12842068936895948 1.5062357927340189
Ni 7.7288246565639005 8.860618142512761 0.3940516117055368 -1.362554320551247 1.0342822966761671 -1.9266075600598367
P 7.101622860091677 9.291239446035066 11.286023252429676 -0.044430719509549285 0.4326850374755323 -0.05291973081716693
Ni 4.464075527665887 3.931479432625179 13.129973616281006 0.6715850012436821 -0.22227572494790754 0.377703281923014
P 9.083395704140715 3.424465539074471 0.49270891525941374 1.7730605079368946 2.421750349749958 0.9318184363822855
Ni 4.605392503048918 8.812025002319086 5.510730403645044 -0.41576537890205817 0.7629337254610087 2.351254557722241
P 5.472131650107766 5.986281729507469 3.059988107496394 -0.3795241371818367 -1.3942362250355602 -0.31899831188263766
P 2.9220538332644983 0.5687987297785584 8.170594620145595 2.2873533881929062 1.1435613801196693 -0.01963577195305651
P 6.1210867023990545 3.0704510974794306 8.383180292323416 -1.2338698359979396 -0.7330639344847698 0.8149031765497643
Ni 7.094495990412197 4.627919000937781 1.333035790124417 0.523262430744473 0.49524229138246323 -0.4252018417246096
Ni 8.701796084609809 1.2626484029658072 9.37230130022472 -0.2754337970281257 -1.3563996138037608 0.206880730549076
Ni 8.869105172941527 7.495873837824848 1.552321651417901 1.5941608359817772 1.6189511555525795 2.046664193734817
Ni 7.660667560387339 4.414280601604689 12.727749860676333 -1.5082420245307702 0.2642119601703772 -0.9363050113987295
Ni 8.741156900813467 2.6027607554543186 3.100988569534809 -0.6988173545970738 1.3027237215468597 -0.8226280559978477
Ni 4.422124816336875 4.835800007510195 8.159672343005436 1.1203828851206767 -1.9071535651002829 -0.6052572245507254
Ni 3.9959473256735394 6.409971802910123 1.0478408243585005 0.3464751771466678 -0.439858672405836 0.3500770355653133
Ni 1.7445272711632676 0.8947398261551126 6.299264965704692 0.8262666811916995 -0.0737189269507053 0.6097844229971175
Ni 0.15030707896564183 5.5132625385194 2.0977964191970555 0.015467756618295941 -2.52826601151571 0.41601734701186416
Ni 6.3971527536565755 6.857408792408192 13.110133901680458 -0.6129682200417379 -0.4849231688446423 -1.1634869153990026
Ni 3.4150748402026867 2.551773359695117 9.119492134546087 -0.37551835845655324 -1.2400384267024966 0.5905255747675056
Ni 2.9531139424297055 7.828656729093702 10.792539231866558 0.9483015216389734 1.663750314145141 -2.1956701634542957
Ni 6.961535619084712 4.315594417925315 7.109929156831838 -0.6146654052385028 2.7027202461049646 -1.35089539615608
Ni 4.864978250433239 1.1853055636468066 4.104999611172989 1.4355309700192889 1.5227170782184938 -0.8917645057841932
Ni 8.005123612059315 3.2103054342485025 10.360318342038415 -3.4195936868728007 0.8507353557570252 -0.49597659844532643
Ni 2.6819295639983887 8.620661564297935 1.0795474756880943 0.378283065685884 0.9153659472532171 -1.625651707501207
Ni 2.616604583354588 0.25727720057834125 12.358441995204387 -0.16963341616184335 -0.039445350479815934 -0.29761393266959063
Ni 3.741709059591206 6.183486405814938 12.171148791644626 1.4948265224558126 -0.3586130980607824 1.2584133296652584
Ni 3.9956678405880695 1.5816060986734235 0.232052739997743 -1.045323127871361 0.2402060841740831 -0.8974558997420158
Ni 7.923812084526642 1.8379777675748425 0.9898131992963155 -0.22946067273212092 -1.3325014670299247 -0.6708046714342318
Ni 4.707367294567321 8.441586153867938 9.145371521843636 -0.9861777278594565 1.5038004438196486 -0.34126303681810904
Ni 7.667524261150866 6.718681712150514 11.01398830772158 -0.4115899073681299 0.6953489364324992 1.570959458164649
Ni 2.750757424380077 6.843304111761485 8.678640745278637 -0.6975868246240825 -0.17980495737820645 -1.5565952190231773
Ni 4.54611371642078 1.8010205231062233 7.275991741682362 0.028711509002079586 -0.7761918760224955 -0.5918810603541356
Ni 1.7119393101974925 3.8306691622962337 2.4716449856909346 0.6495300783261716 -0.7367629806029118 -0.4610142234375286
P 8.944528881340302 5.166449495959963 10.039169483260716 1.244300287302644 0.581934747774701 0.6924047662025108
Ni 7.117395135081686 8.371696250161463 9.210779416396127 0.8912032339640845 -0.0668795354313687 1.5398547663400446
P 6.712272187523742 1.785434571506526 2.6233224731923297 -0.8803395517767033 0.7887020926743642 2.919893102608668
Ni 6.846862888516466 5.478317586666163 9.408121040395477 -0.7098718126390225 -1.4609211279576195 -1.9988540162300736
P 5.752334080630241 5.218480302704919 11.835819791247145 -0.16889936620929621 -0.664142686033024 -1.180850860598747
P 1.0398615251683385 3.5458831763720546 4.388092849096172 -0.26963621650974207 -0.9208943332706141 1.4143008569959192
P 4.755559839471825 8.238530923104634 13.559466731674963 -0.7312497640941664 0.4725769885744635 0.3716123385339277
Ni 3.63014792964119 4.837216065276576 3.554794092513782 0.8374648639003642 0.07155457230953483 -0.5129422797653876
Ni 0.7767822142156449 3.146648047948005 10.36524100601049 2.375444267594567 0.06141825520648132 -1.776908163817759
Ni 3.978386346136522 8.64957895447454 3.0094832893181036 -1.071074268693536 -0.7546830554164422 1.0502192796213976
Ni 6.080170085886279 1.0919854936084505 13.173837868828535 0.8990013898522646 -0.9791442180514428 -1.861101250826911
Ni 3.0035889488655463 1.6267802046548536 2.4336294243653365 -0.593429635788178 -0.7205580887082752 0.5427025417469556
Ni 2.23994253366698 7.054753211258396 2.649651831477485 -0.6209088150450531 -1.2822551692798627 0.05201984471071686
Ni 1.3913606009941517 5.753917829447903 4.510987099261988 -1.2568377576480227 -1.1410170164312607 0.24003356315196078
Ni 4.172805487758809 3.9256568266778924 10.678208404719536 0.4854443314554349 0.7359641388507002 0.8313574654510456
Ni 8.258299834816864 4.0926584814155955 5.07173293211121 0.4605496250962842 -0.7309520303480895 -0.03745737351550968
Ni 5.998355485199763 5.735891041435103 5.404580104949723 0.00017534923559969803 -0.557685131198717 -0.5682739624581569
Ni 6.198755607651103 2.7320412398231184 11.711044606456118 -0.7722766001284893 1.167146366528461 -0.0013403160779783367
Ni 0.501477294007552 4.608625213870852 12.234538803880026 0.8048007980084397 -0.0727601625818618 0.28437198005801995
Ni 0.7959586175466773 0.6928863812593297 2.2594403448463027 -0.3015595475809 -0.8803246393783677 -0.11871914581047943
Ni 8.803230538296303 9.389394608052049 7.220510225748806 -0.4391395348516243 -0.29728843100937186 -0.5554793817966498
Ni 7.334471200966057 1.164614351152528 5.382259494407156 -0.7838941297627596 0.31528332492489575 -1.0079035495723223
Ni 3.3704503882226806 6.852256950666033 5.048757394851692 0.8782027079393584 -0.48403845224684383 0.3972783758414642
Ni 2.204084597201209 4.391027442493605 8.34895548037374 -0.9287022593508072 0.8765626012327743 0.4139332107893258
Ni 8.792777796099733 6.636624891056591 13.135509284207211 0.07833251446331671 0.110828430208493 -0.5639691644352157
Ni 5.911929380602995 7.745360857454196 4.103745654756181 0.5728137593100393 0.4425215639499798 -0.9120301980117648
Ni 1.2437645273575666 2.3438271399360935 8.05564985742749 -0.3585133392581245 -1.0275269802302045 0.12151753449122298
Ni 8.854879382091116 2.0752140242910984 12.47011398757164 0.0008191534671856861 -0.6989597937122092 -1.5759090888604406
Ni 4.896122205124088 2.751521350280361 2.0663804323563504 0.21273230423384654 1.3742978342404204 -0.3346625007824559
Ni 0.19285402514365635 7.919880660991035 10.534385379736793 0.7368617109643051 1.1072034103159256 0.6496444924168489
Ni 9.11851766321475 6.866454793007897 8.38226637609393 0.17414724487179686 -0.03287489635114983 1.0384392562673341
Ni 8.10720088144239 2.339169055178264 7.265847364696762 -0.10452871324271032 -0.743445791939726 -0.049074131818831614
P 1.442515687804635 6.3050065209771935 0.5836477723695672 1.1373195129750153 -0.18551280639626114 1.1492877410804851
Ni 1.6505830177673624 1.9698760955775423 0.44975578409051653 -0.921182296824678 -0.28954786783200454 0.2899872693622684
P 7.155041776094465 7.300085219283759 7.339081773259355 0.1675315393274921 -0.3922657531182212 -0.3163472474130358
Ni 7.753391395576693 8.07192054748659 5.4286325914052505 0.4939248581226204 1.1132622149154956 0.25274689695357117
P 0.7822312417653539 0.8575506090655535 10.960019737717367 1.0260156857920006 -0.5411177137583391 1.034124430942064
P 2.462477874887526 8.836051403499969 4.814764096743837 0.3158530813854367 0.23605375256860636 -1.7196206429502
P 1.7776462537914353 5.82407790207033 6.810119915946707 -0.36286081759354283 0.1317726365603279 0.09417925168758619
Ni 4.290375547046425 1.2641948871054065 11.195157993058695 -0.5880071792210261 0.2928085408611473 0.6769753190213179
