# total energy = -381166.9232463309 ev
CRYSTAL
PRIMVEC
9.26562610927792 0.00000000000000 0.00000000000000

0.00000000000000 9.26562610927792 0.00000000000000

0.00000000000000 0.00000000000000 13.56118039476591

PRIMCOORD
 96 1
Ni 6.127062114589979 8.52741524131875 6.385092199931041 -0.5088745374539172 -0.3936073547477802 -0.3961105807856081
Ni 3.6991344842514478 7.29107493884519 2.6262991281822234 0.7569924202759092 -0.19718664318976362 -0.21631616493036296
Ni 6.761247900735854 2.746053640734214 6.704525590185371 -1.5270660992158087 -0.9752168579725786 0.09186680150432565
Ni 5.775431599808242 1.2120736274218222 7.8596665773416765 -1.4229158523584398 -1.2710826976028111 1.3286137019397442
Ni 4.225310865632878 6.860241851195092 10.652863724247418 -0.6827626151270564 -0.4704247181181512 -0.39638003239691094
Ni 5.325826353450692 3.190942683349368 9.19232399086155 0.7134667290791326 -3.188067389860903 0.33492938129059735
Ni 0.6013141240301667 0.748632021440463 6.327348817371889 1.0922467890060932 0.20445515182671886 0.6093563343207635
Ni 1.9286030337222513 5.198535180537082 8.40186971238366 -0.4508498813100171 0.3958570700139053 2.0222870504420336
Ni 5.616952329061817 4.518632794656474 3.035982497438624 -0.005920479249493029 -0.20313154791928886 -0.19597462515953346
Ni 4.290160983497368 3.1047167658115855 0.1936552941012969 0.16387697329404033 0.575216455214261 -0.23661193906492153
Ni 8.389079441959293 2.4803432778252317 8.689218092187762 -0.5533260828990728 -0.838748101488162 -0.36659997292100094
Ni 2.1777649882148915 0.9443618892508411 13.660312725763239 -1.7567111200445937 -2.6053587400346547 0.3143723830748521
Ni 0.7935489976330171 3.834959298907192 2.8131451135796177 1.535476434766691 0.7135001534202292 0.8222043381968678
Ni 6.9465140968639405 4.86872521548686 6.645940888766084 -0.08326080500286952 3.1601071572025514 0.36700080790384537
Ni 0.7395628265032202 5.661214225481114 6.4529795900681375 -0.8821033285453455 0.9079187469465524 -1.2665207892637416
Ni 8.90437797816671 -0.05209598338235353 9.565039364653492 0.8535954509136395 0.6852794680116391 0.7706251805679954
Ni 7.432060707301551 4.04332470118418 10.207730995662862 -0.3002601120431861 -0.31463077894256136 1.140283994919978
Ni 2.443836710546179 2.2613316710295552 1.7096173706799713 -0.7661082665342482 1.1497019457997684 1.9176758047878457
Ni 1.4081898718452805 3.228477735138059 12.073749357129692 -0.10004445221911158 0.7201749943372435 1.0204842144508102
Ni 2.63043715684893 8.83817507887513 11.662588120492325 0.9977870299636107 -1.2948427761368861 0.21905464690744855
Ni 5.036414518688964 1.3746390393281613 5.665562583862855 0.15462023058246274 -0.3282445130712541 -1.299685448941168
Ni 3.5131641005311782 4.294515827817458 9.988283904435177 -0.6446341836864511 0.7282749977365587 0.7077974466084971
Ni 5.592852435281914 4.907242423654124 11.700667991102337 -0.1722896228377678 0.3135856255074987 0.3181027966515618
Ni 7.441743286694092 8.218397341490403 4.122585647497682 -0.2875794312517241 0.9743118296598061 -1.5701727005972956
P 3.303158682414496 4.466661897227995 12.108927233609807 0.14116924728387947 0.24710332551454858 0.46250572038139054
Ni 6.444984281208976 6.6304635867399595 2.120954654215385 -0.8785040412298614 -0.7744885201781436 2.1766062048443096
P 4.419453531672977 2.6808606946998443 2.3390461843281147 1.6431771179794796 0.4869435417087807 0.4954356383401919
Ni 8.819384388915251 3.3318821236746645 6.305474527008339 -0.34965203221275265 -0.2921423680320581 -1.409919954319404
P 7.21516166328243 3.5066966934345336 12.894174230156015 0.6645278372865846 0.46497269386464435 -1.8153908932739897
P 7.336819335458562 6.53487938672709 8.244113160481845 1.5867928256524801 -3.04380022037799 -2.7985504031324124
P 3.268987052941109 6.668952998028584 8.494357340116158 0.7760453231423021 1.0426111282568367 0.9815484566175611
Ni 7.654222627009634 3.379155348613174 2.670156116736015 0.8949722140882136 -0.13879483351443195 -1.0685597298017984
Ni 1.860046665372579 8.690703372069699 1.9075153950241814 -0.26740835562048787 -0.12455426443501774 -0.14649040238647676
Ni 2.279881454707896 6.493749271967772 12.511734581653572 0.9099236931917233 0.2468171617326975 -1.3458493490917405
Ni 7.203338724234696 0.5437106524268311 12.484015534274889 -0.07950570883581147 -1.4895488189966413 0.6079383709273143
Ni 3.4293194489301255 8.695614153962566 6.690353814892653 -0.4577959736105471 -0.2486112775186428 -3.7868091818906136
Ni 3.217479436823278 4.812862755048939 2.78782586339009 -0.1798535512279548 -0.5520467019660169 0.14622763564339333
Ni 9.04773574693359 7.594505666067122 2.3796750287093125 0.683871531920519 -0.3296542489345871 0.5669012504803462
Ni 4.654272296787958 0.4655819656365523 2.0927204380192608 -0.13860688587334194 -0.832959776941159 2.277912297384664
Ni 9.235688974663432 0.36736632777920275 0.5620510329527593 -0.8448554999374804 0.5503024655814006 0.5918265529671163
Ni 2.2546882170348646 3.9778445207372095 4.981482327122825 -0.6311088955065065 2.3076928710812066 -0.24879305451214573
Ni 0.25832658537987635 9.087689127163863 11.84613832264577 0.048144935136342895 0.017086266058325413 0.28554388887893406
Ni 1.1938852031657865 7.873623390106254 5.503710625174914 -0.06792237487358625 -0.21818227160482426 -0.016098191113443242
Ni 3.160523632492229 1.8553953210136742 12.109360864916574 1.7908168034790515 1.751676900054796 -3.859963751697417
Ni 6.83451120720171 8.02649695699384 9.376850790017839 -1.4332791978706347 2.333319313400059 1.0828144399485997
Ni 7.604169714207237 1.0618314983787163 5.265900915918389 1.1608379078119297 0.14718460024002392 0.5048965266427756
Ni 2.4084605496651075 0.03275120897494087 4.098297661505657 0.42836249884077837 0.3098770663076599 0.20352621225454626
Ni 2.1228476216506924 4.398402028917137 0.48197100528203146 -0.09969838173360249 -0.38384076227931957 0.13914244666183778
Ni 4.073261939478246 5.803951197291725 0.3323089044398568 1.0985956140422564 0.29735399413998465 0.5420019161355052
Ni 9.285917934363875 3.259628770466022 0.3845670362809371 -1.296064050138497 -0.0652553695643844 -0.6942577602508495
Ni 5.2212544960112535 8.883817553600158 11.611204663765747 -0.27397058221903786 0.41064914072141534 -1.0762920654490495
Ni 6.133066240375975 4.538692875407527 0.8413142273234344 0.5990955758247037 0.566734900105811 -0.6749323204493602
Ni 3.3575571739107697 2.3192325692343267 4.203979540965408 0.44210298835532247 -0.9895265897270312 -0.6114245297037018
Ni 5.582373012035059 7.888253813896514 0.2861438483964174 -0.025767338772091107 -0.3837921684295713 -0.5048546176612467
Ni 8.419192727151405 7.096987866562369 11.006620700245028 0.4697981402777457 0.8019522728160512 -0.5200858327887042
Ni 0.7136663278006253 2.074796084110295 4.487014771767377 -0.0505291190978033 -0.4605023167981166 -1.4015594981698507
P 6.32860801597423 7.132113855535691 11.328671629904521 -0.448608393574008 -1.2406164106931536 0.6498661215093517
Ni 1.3347968466124442 7.516127733931715 9.767765706817274 0.9131833377796015 -0.10858565692090331 -0.08549843608413663
P 5.295740865137219 8.240671906906352 4.046303600011646 -1.727591576970818 1.3078798118265025 -0.3703350144834009
Ni 8.746454644993063 5.345071059095005 1.708247911125696 -0.5276374198837172 0.6227772357123597 -2.7044428852230262
P 7.633912374350831 7.061287408763844 0.5039129347169361 0.9898670037855855 -0.2757518424891767 -1.012977878771436
P 1.6834901578846737 6.111718237581321 1.6239381250887532 -0.29816569140800264 0.6243947167111246 1.3840232890583002
P 3.3417778124701027 8.07862537006794 0.4622148370707635 0.2983495252840346 0.14927850665457518 -1.0841922941327327
Ni 3.9786876927225885 0.8183021180609331 9.951492882431387 0.6777299377991555 0.2848628036515094 -0.009845782445828205
Ni 8.866972645145001 4.739821823612195 8.579846640370011 -0.3105666361755168 1.7043773436378842 -1.0927183293258729
Ni 7.234832587732538 8.841964719996229 1.79110670009769 -0.960101856708011 2.039795491639442 -0.8285045693832828
Ni 2.1764678005450775 9.34836825503921 8.35996591783556 -1.6208913099980857 0.331869511418351 1.074287119203879
Ni 3.459553187263006 6.7419939294653295 5.029285545880715 -0.7231916696763803 0.5030502174626562 -1.8601329733763705
Ni 8.38913503571657 5.4777270295859175 3.892113387639199 -1.1050321136962196 -0.019732188321604727 1.988472930106066
Ni 4.8016142848264085 4.453134082957077 5.078106130396788 -0.489199427622493 -0.6955515393616086 1.3410776387347096
Ni 8.07424272886921 7.164654734795598 5.874920334707252 0.512023367495544 -1.6542688570172672 1.4629183608933063
Ni 4.599688492767426 8.269886426355807 8.39427560513952 1.7791301111697424 -0.0107999188289814 2.3063934355434923
Ni 6.6371533688657145 1.1211500373940702 10.003581453312771 0.8027683409594433 -0.2996173362528647 -0.29440519592430586
Ni 1.5040427750183258 3.6623499481860065 7.01038483803772 1.3493740744155471 -3.3357991208536486 0.5562126604182485
Ni 8.015980471242132 0.4149555105715738 7.592240220458055 -1.4845886467778882 0.2559299226672431 -0.6139712073849555
Ni 6.0959388761406545 6.458076611047885 4.739022200070018 -0.6067991151165485 -1.6736125516512017 0.17598378385990335
Ni 0.49478721945979426 7.174179798542519 0.05804451541107225 -0.9512294939190457 0.5320646024171353 0.19830995816092944
Ni 3.968476972635909 4.015583416302586 7.436639779775995 0.11113233460215699 -0.2933505294075464 -0.6250637177536912
Ni 5.7294092344084815 2.3569621991734895 11.640497014475391 -0.6157390979186557 0.43629100965923573 0.5387119325303238
Ni 0.12490527416377355 7.826989493376439 7.568426634528133 0.5489505795391965 -0.5937458814770161 1.7813793122152353
Ni 4.565683644565872 0.7152729873859521 13.487068679646466 0.4264516549713107 0.45166723500498984 -0.9324388435751039
Ni 0.9086243689474641 3.2730453972223845 9.998577088595152 -0.4727122286007471 -0.467625300996143 -1.4187686629592857
Ni 4.570473973317971 6.270178977075321 6.771395614564286 1.4440055831492034 -0.06701940344334263 1.796154413641881
Ni 5.557680118177528 5.278099112827748 9.00188479561877 0.5633826958041265 2.9345985271396424 -0.41611453471136073
Ni 0.8807403934221898 5.499380798045599 10.787919491927486 0.6746189029739995 -0.8054199196496775 -0.34434424684659404
Ni 6.518284650179683 1.4505337836384962 3.336551999285995 -1.3144736629939362 0.1034082264850219 -0.39179678390160266
Ni 8.47243301537106 5.276996503308406 12.349651908872927 -0.7713193784215426 -0.9341180310497397 1.52406150806153
Ni 2.6557508476627296 2.4291692242510674 8.757661419897635 0.48437038166496577 -0.2135648274374709 -0.5195582424200084
P 7.0725544102388005 3.6876451077473806 4.65242102467061 -0.4148181844974404 0.0511253579209055 1.1351579865473225
Ni 1.410469215893668 6.2117499381764105 3.8807083283336694 0.1703589814739582 -0.4049965704213283 -0.7540950441234561
P 0.03599047189899081 2.0269761872252214 2.0581939350619174 0.10296625385159686 -1.7398961053697843 0.6857610356337479
Ni 8.428189650204185 2.145539140246225 11.543968647151422 0.5702940782119792 0.8696303928893152 -0.47296419671055323
P 3.2834970235906007 1.5946513337548374 6.819321139588187 -0.8463850492081294 0.7831443960809287 0.3023743301727115
P 0.11069828949144582 9.126956851054375 3.92588010924708 1.3185126089500003 0.6718799067762816 1.1559949778973317
P 1.5647233610869844 1.0077480381736834 10.455412303086671 -0.012680680791462031 0.7787609223012524 -0.8593848039019071
Ni 6.656045980713935 2.0175437797404303 0.6645779666869979 -0.4228048022473428 -0.7051335266230889 1.5091347115483686
