# total energy = -340859.02847923245 ev
CRYSTAL
PRIMVEC
9.36734486469180 0.00000000000000 0.00000000000000
0.00000000000000 9.36734486469180 0.00000000000000
0.00000000000000 0.00000000000000 13.71005607520529
PRIMCOORD
 96 1
Ni 0.6221612340931677 3.307525091913058 11.084374247710011 0.6871196065441715 -2.0119435024241805 -0.23713310167571422
Ni 3.287404035592084 4.094934716347325 0.628516977442228 -2.398758259730159 0.8516941201258688 0.9576317979009635
Ni 4.1653865155047045 6.301328443953789 2.441939355918118 0.1765723093735217 -0.7803568060334626 -0.33483399336331365
Ni 8.308647362932062 4.549691197359595 4.751123766637686 0.5499980469671044 2.139207452480877 -0.48481955338724236
Ni 2.5552242752492815 0.7536721959214076 3.65965294487477 0.961485367319099 -0.3664392789734205 -0.3126643992448099
Ni 3.7625906952989743 8.030334185859214 0.6230642461180012 0.4505490622401466 -1.1233126571729621 0.38685383807403056
Ni 8.91191372611972 4.808604603649976 9.681383012068913 -0.9857378121085605 -0.29908923166353646 -0.5966422291882046
Ni 3.0156292650890872 1.783167728706112 12.082425477953635 -1.8131758879005417 1.8917588278117679 0.09464410713914667
Ni 6.8822630574816674 8.091109517986999 2.3794076466673424 0.6528390880947467 0.5793659586062603 1.0888115380722991
Ni 3.0785216171091165 3.5272080587843324 7.233960012589205 -0.2298892756291073 -0.4575486334864313 2.42882782542203
Ni 3.064517436848476 4.430435532544731 10.92326716044131 -2.4511712261142367 0.51059177725534 3.245237925534624
Ni 7.681878332002633 3.322222455678239 6.69488056845303 1.1918888635804634 -1.564992441947937 -1.419137359152614
Ni 5.61591983547813 0.6686167064454067 10.56610716993042 -1.397263184787342 1.002678039507325 -0.8922419596412441
Ni 4.668740780592028 4.814506030783222 9.698973011863853 1.6071071117298 -0.280035300355879 -2.9400662351224334
Ni 5.998201170887336 5.239511825168203 11.530321677807828 1.1349006191208777 0.42365043807708974 1.2351065366185179
Ni 1.993820575329053 6.5039909455852065 13.366028969220219 1.8652954914139166 1.4423935014670772 2.971651466127882
Ni 5.647253603352274 0.38429437777576897 0.8038146551302274 0.1442255176117 0.048733974870593486 0.2578844752904526
Ni 2.854164345254525 2.3993891295529433 9.827038664327635 -0.2806346245027747 0.4931334725695765 -1.6970486711869548
Ni 0.7071951786764599 4.5019739436821995 1.1198398250534531 -0.05281740091134775 0.4672419495147953 -0.30839662510739146
Ni 7.60727679916267 4.019686836726102 13.398439981729796 0.08623248603668375 -0.7492148332130194 0.016985735924719133
Ni 5.178240023773653 7.594780761391636 10.787030373234144 -0.1977206613163627 -0.25451581592853584 0.9941311783785782
Ni 6.409558744108603 2.8345491255449717 1.927660893493029 3.144511102536507 0.24628700026084038 1.2182542409478696
Ni 6.798949894111672 9.206104552384396 12.31821091028848 -0.7576243974329533 -1.0622538421884287 1.227929045033472
Ni 5.685940736781336 4.013204634224186 4.000073490485479 0.5470016833429417 -0.35128648249238215 0.39147462467549354
P 0.9874399022173639 3.0675992932402822 3.7037853157523344 1.3251817934400598 -0.23857497632856334 -0.19618854094255242
P 8.243478746160637 0.7323043460267263 2.603402402283749 -2.1297907871526673 -0.6533065146494684 0.3634066627946838
P 4.524127713793515 2.0557761928834877 1.9576176617027483 -3.4406646486104875 -0.13312657948506107 -0.6663967721745233
P 8.005164130768684 4.20737095425266 1.9796637073505199 0.37107703485574806 1.1719964955319107 0.16444955796805874
P 6.913624927389779 7.171086395258488 5.17821941561541 0.48952158684860214 1.4142679468754549 -0.018451521836968222
P 1.1614195945122714 3.828443128230283 8.652566611771766 1.2217887364636895 -1.4466134530856958 -0.4681572622402131
P 3.899925335299816 4.305418950766459 5.433431784032226 -0.6746389575786574 -1.6707090048511613 -1.3451019294027544
P 2.3817129501871714 9.360084963838856 5.685916381685231 -0.14400928783583586 0.30519457323032595 0.7762903492735728
Ni 0.3479996641718358 1.1035949759511094 12.585639232871118 0.06476223197804976 2.6991273865473837 -0.7384645366750507
Ni 5.985386643398001 5.436010614016009 1.3296889535049137 0.7184688102794142 0.039741798674312205 -0.8626292789811338
Ni 1.7129688478544436 5.706192935927493 2.8045155451090737 0.3270805746701399 -0.13695572342316414 0.6730749555256472
Ni 3.0496889302581116 0.7977211974315337 0.4906483987959968 -0.5162919129639109 0.0938465509385158 0.668883543152119
Ni 5.118860425999603 2.9093848420013337 11.414649959058332 -0.5331768616447076 0.1380255594485752 0.042969304472674386
Ni 5.74200429454718 1.049002091296249 3.3220285516438612 0.634584769870249 -1.2528510050861326 1.1924971865884235
Ni 2.7614370005053037 5.859995367833492 6.582019989834781 0.7696970123267711 0.40771242669059454 0.005114438408429902
Ni 0.825572186562596 0.380022868612657 2.164269715423134 1.4924572508926877 -0.9991515144113052 -2.4056837832053986
Ni 7.86593728714734 7.816786829737585 7.4960142895427255 -1.2320952605960198 1.9149545492019409 -0.2474681650531351
Ni 7.326059745246479 5.685491104237851 6.715336038978222 -0.0699849138295698 -0.2542846737543363 0.21270453631970465
Ni 7.7736502075969485 9.30705642574154 4.79193916077258 -1.9085131644519713 -1.1727511143097482 -0.7452694754120261
Ni 6.6420937078478355 6.101438676340531 9.428075961555118 0.7353416747753528 -0.26833626675139594 -1.4443056308881255
Ni 0.4550028421767209 8.356926657288813 3.9104373694727204 0.08762139596441038 -1.477501915134436 -1.126391553208602
Ni 2.4677707455413582 2.4262265719922325 5.351844085547857 -0.06682194272055589 -0.008015671215624905 -1.226000974772824
Ni 3.3745578102710163 3.656852108822642 3.2660371224318685 0.2956064153212587 0.696834005618458 0.803871601325951
Ni 0.3037314667967605 1.0677461479527994 5.015604185857097 2.8266209361163837 -0.1774418564626686 1.0578950509991008
Ni 4.449535548298208 0.9947745330829705 5.6214653035144515 -1.4031826355955703 0.31526147054802484 -0.8915315638377806
Ni 2.528527342979832 8.131660753002595 12.004346786777383 0.6829305081634883 1.0306110184721669 -2.4656444800297472
Ni 5.661838558981584 1.952651095566165 8.19456902950854 0.7146373523484659 -0.7189956293171617 1.1334078366254352
Ni 8.954329062721847 2.3571517724992774 8.725079226753454 -0.5924505597043603 1.8162311297870979 1.448751839584937
Ni 6.225321809415433 0.10834458175961668 6.6468270271024865 -0.40578769886405597 -1.3853672046807044 0.426912139547497
Ni 8.272536249283386 2.4501601375881776 4.0974283034947385 -2.3379472990903736 -0.27681705052889743 -1.4435821224585397
Ni 9.152869932704649 2.340655878560155 1.1802929205250738 -1.4734858519965075 -0.4956140728995852 -0.5889844555326308
Ni 3.0289870985684675 6.7929266914978985 4.41829826407402 -1.4433548369390818 -0.059000646903924196 0.6968494322374257
P 4.548876238374527 6.369813100733419 8.112349971994359 -0.9579673268635115 -2.1350476646762324 -0.6859793222921412
P 4.447025099930413 5.124583873584387 12.984519503010661 0.36188508394383484 0.383433756648888 -0.7154935297011742
P 7.526858145291363 1.958496318631476 12.610865492029582 -0.9179853871539351 0.2082038202358737 1.294114896831926
P 6.3313695182654115 1.9485575659515162 5.324382777954482 0.9772721978397105 0.5948506845054207 0.31695479909004765
P 6.590695087720654 7.561226932834033 0.3750113392217252 -1.2096104492299427 0.20699025954374672 -0.6766511029126798
P 6.928003801436657 0.1878808317643333 9.029552587246966 0.9319148527508339 0.06349622078143259 -2.3039881685361094
P 0.15979284881347558 6.857692512449117 2.0063428416651234 -0.6593537492848128 0.5473739790806961 -0.49595962916446196
P 1.2573318364445152 8.913281358439486 13.458393797731254 0.5075604466281839 -1.8061814588605796 2.4615453702597088
Ni 5.228570766610058 3.1669680853505704 0.15485813164872259 0.5111142254177133 -0.5871106355486856 -2.6603944887535604
Ni 9.013502578913466 8.382902304019755 11.771933598518677 3.5423463793227055 -1.0869027510853604 3.024738575760849
Ni 8.171087906659476 1.0198321800376293 10.839115619724605 -0.4459586146559868 -0.19728177400673122 -2.1051339078359357
Ni 2.1414405597621253 2.3922512129251117 1.8024335464599985 -1.029437052768724 0.7297742079899046 0.5001009050263451
Ni 8.436530352175053 8.872561511220084 0.2934751611329639 0.46575533766693983 0.0735993706537055 2.1196598693662527
Ni 2.7113217065959856 8.188061535176052 8.244062331732701 -2.1182187660443517 -1.6036656901484188 0.28215260380919793
Ni 0.8216229140556486 0.7302903669256976 9.845039890552968 1.8227144235185964 -1.2382026590453385 -0.3310202760441783
Ni 7.893664627328944 7.986626155694564 10.163237347701909 -2.2487485313365143 -0.8577557529389163 -3.2984181091020286
Ni 2.233390414904903 5.66778682283811 8.812247989183836 0.9626891578192129 -0.3037838089257284 -0.2780990025651146
Ni 8.243066582995775 1.0341454826719167 7.120193611742726 0.009116103368655268 -1.4415396381072143 -0.7175974634180544
Ni 0.6537141978322604 3.5413714839041246 6.412837314738184 -0.231192310711247 0.7740570890676798 0.27504093246508116
Ni 1.244901370086073 1.3958561292166625 7.243694557155665 0.8210735670265343 -0.959014280070787 0.7887877104096351
Ni 4.993862578910644 8.053790016877706 4.077891769480295 1.0089697860533076 0.6663355799192847 -1.1675052925297764
Ni 0.7672351742487535 5.124340322623333 12.555326505564473 -1.540728684304566 -2.0320526144692295 -2.3753406521371674
Ni 5.009609085277291 8.217418793327791 8.559064587619499 1.896525653072792 3.03026799021951 0.6364495909931297
Ni 5.527595142717204 3.799132706801824 6.971042066458407 -2.0950315292946113 1.2095160897439232 -1.4948452915088901
Ni 8.356664371638447 6.276832837678486 0.013740021141343378 0.005996326792750964 0.6183022306601417 0.2825071589351393
Ni 4.15698400734832 7.994878786336454 6.182878370779336 -0.7742347522961247 0.709966686345674 1.93608310365044
Ni 3.528941017545683 0.8842707783801581 7.972795271310058 0.4248621989970037 0.888126909031606 -0.357520636327552
Ni 7.40623484815673 3.239049802478084 10.820098973338567 -0.10650871978721657 1.0720906257731924 -0.5838335074593106
Ni 0.029767547847669065 6.269507574157536 7.999885632055057 1.1086447707481422 0.05009717376670727 -0.691149553639171
Ni 0.9640777446454315 7.524722390709807 5.976240368075934 0.4943542323505551 1.427105207849439 1.4726355881810702
Ni 5.113240019206035 5.963513893626364 5.423780608833204 0.9240297935758021 0.3999209556706338 0.49289795952000265
Ni 4.321999150807486 0.10674744949577769 12.45594178896827 2.1206664562538964 -1.0175477575303056 -0.7122207724871734
P 3.3686189137591462 0.34148092902576216 10.236339168662456 0.02899124502602749 -0.6325461421736654 -0.07861147915631622
P 2.9987867793976943 8.137271792451507 2.7206918614553297 0.1814574053799649 0.38454061655982164 -0.2907305752861961
P 7.005499843775309 3.9721850319757928 8.535264038317667 0.06439019335061168 0.6298192301608057 2.3284504153435317
P 0.44851220906461503 8.69723292129472 7.95055719509684 0.1587018568510041 0.26102482069164723 0.6163307087560675
P 0.9664945195666659 5.514284145961104 5.439724766172092 -1.0304840059759994 -0.5487160949308871 -0.8849325704640244
P 2.1468267829392946 6.555951606391745 10.614421123462401 -0.05824654234671904 -0.5155113260441444 1.9601573709908244
P 8.464566814730302 5.978126951289641 11.326671858049675 -1.275911743560338 1.1305767949345433 1.6270969245881657
P 1.4038183721742175 2.9517627092248393 13.243392629719022 0.3484724100823547 0.8892525379956169 0.4104550224327383
