# total energy = -340866.3725988083 ev
CRYSTAL
PRIMVEC
9.34105083687401 0.00000000000000 0.00000000000000
0.00000000000000 9.34105083687401 0.00000000000000
0.00000000000000 0.00000000000000 13.67157210765142
PRIMCOORD
 96 1
Ni 0.40379868467448765 2.259609553475105 4.855882724709799 -0.49354587751664675 1.909634679650924 -0.4626239911268097
Ni 0.9461176813377352 0.22377701764736674 5.382511558178301 0.4499453672178767 -1.7074811793741884 0.07769616643089845
Ni 0.40038359646587957 5.325230365856566 12.691265508934311 -0.27460024538323674 0.35576971507471633 -0.3481379095610714
Ni 7.744030108749337 2.1459663282400787 2.9041018989747203 -1.6940474224667856 2.221571970921722 0.8976181363514928
Ni 3.5469931883502768 4.530419026977894 5.069733007566991 1.0247522456985447 -0.7640899505526388 -1.12550375128701
Ni 0.8414325239146758 1.4551862732215484 9.583389518706955 -1.4363578367959586 0.3801221757771518 0.09705528768380059
Ni 9.105049247859895 5.681871689173458 3.114972386595189 -0.3000449107085865 0.6899352216160957 -0.15463462876016595
Ni 0.012607616398135391 7.564504451524943 4.40299775166711 -0.5434630740620641 0.15400805091976058 -0.599010215199749
Ni 7.7490649351837995 0.1458904011479278 5.729195321237052 0.7190195405765617 -0.02010679805220408 0.962639021307568
Ni 5.58153012041835 3.928126747123871 8.814309038634168 0.21689337759007163 -0.2812380624147286 1.4116425934374655
Ni 2.281121993695084 6.1597505121061165 3.066520355583017 -0.39339960961234827 -0.044317076749820446 -0.14946285475123938
Ni 4.430918152803678 0.49160362901829213 3.6338219928751547 -2.4720616964100004 -0.3925771137110529 -0.38499673026063375
Ni 4.19996066933039 7.989596995828378 8.347834704743878 -0.6349688926825451 -0.2650910203412209 -0.46233962711717147
Ni 6.768123816095269 6.314980095942683 5.085072881353031 -1.090318975855761 2.1765336997351614 -0.5988672618639815
Ni 2.9422535531607643 2.3244831519674 5.388978367715553 -0.074046228383137 -0.502068313165361 0.8980896766712726
Ni 6.105525711638474 1.4618651246142036 8.564789018814746 0.329897989514277 0.3678006780973214 -0.0373118490765809
Ni 0.034367594466933195 3.534373428585973 2.6585051205328027 2.124195295342761 -0.3621771612629569 -1.0631210752847304
Ni 3.772523521251352 1.1792049244159544 11.26377545162776 1.3797030644163917 2.120824321987999 -1.6450478526396313
Ni 2.1549243960520457 4.58120632071477 10.76882398996733 -0.3268463471721467 -1.3626389098452532 0.2935045384869074
Ni 8.996104571226976 3.2500318392259366 13.568037096609396 -1.1314579119879158 -0.5673511935335713 0.9215224537729162
Ni 5.259067702340234 8.473136495605718 5.331653272454593 0.8716885609699246 0.02476280876697671 0.3827554996349408
Ni 5.245691317453126 1.1657257879689593 13.676356856937186 1.458404532183353 -0.982827837550617 -0.7550553511541964
Ni 8.633512998487536 2.250091022609209 7.275819273496956 1.0105435582983306 -0.9995384654370786 -0.23999859614896732
Ni 1.1144901237889395 1.262106751142969 13.331163925601887 0.283166389785693 -0.5589285166875148 0.3661495156471436
P 6.808822774861421 2.6420228362218374 13.150384699346871 -1.3345892027968884 2.030898446260128 -0.5829395348901316
P 3.4751138016838685 1.3794490325339277 1.3167416237450689 0.06213199344405428 -0.6267863568717528 0.03830660888968242
P 0.12459187099353165 3.629409280430553 10.382260478306254 1.5708316743375332 -0.5822116555851715 0.08692796944181158
P 2.3060812816967275 6.902868475310727 9.135193753215471 -0.5915373038614715 1.0090410056108752 0.43298071433908014
P 8.670111235909106 5.437818052340027 0.907923992422646 0.052971924211341025 0.7447547405591367 0.19924995347669555
P 3.5398566254635795 3.079679093984183 10.057013492955202 -0.42223041780111153 -1.5146594980213397 -2.259971139525211
P 5.220442456873619 9.17370597196621 9.836641288360452 -0.10229236771302383 1.4773743884176362 -1.623406620220772
P 5.16414394310644 0.6724725293619358 6.840735541152146 -0.8530087251722341 -0.7840717929912046 -0.48629973747719485
Ni 7.091809911841129 0.3185653316431279 1.4907896887223953 -0.33078681987713354 -1.112253314035007 -0.391849491516409
Ni 1.4075282315357762 4.3954221593881675 5.985209239641333 -1.403040196480435 0.12121851519356541 -0.2726325801339047
Ni 4.043031014230238 5.634437832709258 9.554596663416437 0.8436205990891149 -0.08610213110640655 0.779383900597232
Ni 9.08816996888573 0.14528136462932484 3.1186359467577054 0.656200805478128 0.8074181810266288 0.3881507025085831
Ni 4.529503603989809 8.475481099381323 1.3982600408339685 0.35233986345756096 -0.11254104202422553 -0.4126957388377989
Ni 1.4778383216511832 8.748697497120867 7.96498986544562 -0.08428024740631937 -0.4526475966403882 -0.3528569123032956
Ni 4.491887192020267 7.150882717725258 3.4111117232404333 0.3745973893041807 -0.10392836065455005 0.649842724470584
Ni 9.216581395591788 8.201666874384255 9.542265542124905 0.6633996372194123 -1.1681236428400656 -0.04719054164287356
Ni 3.623234845786434 3.2052508412170004 7.751917692128298 -0.5210571955630381 -0.5002595420913964 -0.2862900230163392
Ni 0.2865974531521012 5.981439191498569 7.970293714145969 1.6972715858310379 -1.2417602944896098 1.1646662804190844
Ni 8.249521078138903 7.187097972059978 11.799441751840869 -0.7109082243233369 0.8499334286810202 0.4512746275522615
Ni 4.315771018373942 5.633251519245108 1.5259251175732114 0.4285525033643974 -0.2899175924665975 -0.37891632839450873
Ni 1.0265628116783605 7.975594760531048 13.30805883620366 0.01277761138064251 -0.3190034540889603 -2.1986757830498393
Ni 3.1389760850898827 7.122308443025772 11.424949680256335 2.30907201081692 -0.9773287621092587 0.980374748024434
Ni 1.5268227925645876 6.930788876447296 5.896439364739679 1.0283569323306676 0.132144675187766 0.6513100530447299
Ni 2.8788932049140783 5.613850156528262 7.54436981631254 -1.2753553568362357 -0.8023248256641213 -0.3025545645043176
Ni 6.141003022952187 2.0464561130149646 10.963219666117554 0.5440821957033016 -0.21901839435287443 0.47932999102758084
Ni 7.685695245886215 4.46419097610527 11.399876431433727 -0.5627036674592308 0.3263300696573606 0.4315344688108568
Ni 1.018202571123918 6.538894427038262 10.880479439571088 -0.6231145644471204 1.4182603558642992 -0.9219065765852122
Ni 7.502246347284317 4.270448239412874 4.507367181569789 0.5826438580265837 0.3981288967672176 -2.069187571648314
Ni 3.164738703468825 5.123575759052871 12.997741652504187 0.8195872122889949 0.504157334483906 -0.7427240832823532
Ni 2.034172631083018 8.607217940207361 1.662107364521997 0.0031755695145042084 1.166420801216346 0.7711789961889364
Ni 1.2380909092821064 3.6354155761584934 8.315665059553437 -0.13016441153294356 -0.5721920665656404 0.7593619489493503
Ni 6.443625048921212 7.822186681619751 7.377193962481474 -0.5530982831589829 2.5505093962949426 -0.9103116726587612
P 8.614083612617993 0.10141672371356283 7.800657427508154 -0.4895655527126601 0.12517595717941668 0.5313259244788979
P 7.517986018048827 2.3457714069658073 5.105470934200781 1.4564206689841046 -3.1565307527052022 1.010354067995344
P 0.09097249470359381 0.1828006296695194 11.47779107108586 2.019528770970606 -0.7885573395663839 -1.0950804018001463
P 5.29309715076463 5.972733332060869 11.366954831645929 0.11322855500955337 1.479567796524529 0.2865111378882098
P 2.846993516094613 7.024610391675028 0.4355582577304707 0.708302925490006 -0.0586967425102602 -0.14482561308954411
P 1.8397199745223125 4.1035797061563795 3.711380738488045 -0.2649740351473823 -0.9302901726632171 0.3081068617811145
P 1.8115473650114757 3.377098154602565 13.053165843907237 0.7561329004890913 -0.4294462188232604 -1.2652290670355113
P 7.4129272185898145 7.902912043487341 3.429418314791938 -0.19134586813827045 0.9970126136914312 0.7370152058230339
Ni 2.3533096350411538 1.621737210747483 3.338775559185072 -0.8032367959554295 -0.19318780644301567 -1.5234971509176278
Ni 6.263445518133901 6.156509167444226 13.407711035402436 -0.4204846387545984 -0.3343776225521854 -2.551933273225663
Ni 7.15601095466871 5.725027344326 7.4257823728367685 -0.6224653608988957 -2.0904428814826645 1.0043795955794637
Ni 7.141130660586891 4.347913574516777 1.9475568025186334 -1.31160971118258 -0.6967257621753679 -0.20562603220636846
Ni 3.854435196583092 6.572363412408729 5.743645926977526 1.5808708037410903 1.9163971951857381 -0.1751638590617693
Ni 5.413045585356358 2.7951693657079675 4.7417659081942025 -1.3609694925626303 -0.10726873788169267 -1.3333339902335488
Ni 2.096785695257799 9.00571651260186 10.891402864492168 -1.440771392482622 0.3746912345695676 -0.48579991502264075
Ni 3.057587508608477 9.298820007704988 6.347204853333427 2.016620081964243 -0.1737338114834621 -0.5021446749292514
Ni 1.5535008339316136 4.703172422300644 0.9529375825989627 -0.0924175318014731 0.9498943200473899 2.9753147739120824
Ni 6.267705037343762 6.891883399453715 9.401707946935113 0.08619006283452253 -0.029039838875775794 2.1215848543031073
Ni 3.493739857176113 9.244651253542738 12.888013261700857 -1.9684988009769842 -2.4915578574613995 2.6275738426791135
Ni 6.583367170367537 0.713504963645176 3.911368901811391 -1.071572291375877 -2.325926620480413 0.15084945068612085
Ni 6.773700423481864 6.694292149791007 1.7821847056161297 -0.48676202182559386 1.0307796828395475 1.5375474583631068
Ni 3.0862925580205465 0.8875754471446596 9.024386471033328 1.1311874319353485 0.8471543232739862 -0.8878204335347807
Ni 4.849649441445017 3.9177581806261825 11.36331836053102 0.5471657197246318 0.6221326601498254 1.5552237925969474
Ni 7.682481924377021 0.30129559674139217 10.188835337344418 -1.9330294044257805 0.9389121100042733 -0.33287095609967193
Ni 9.01985886366267 7.722956697921601 1.5535419345555683 -0.40293043192091904 -0.8932968832683196 -0.27020802985281206
Ni 7.7741082926435325 3.411949615506057 9.227367507064654 -0.018422982591877947 -0.5509254438773803 -1.270394927507167
Ni 5.519664340315474 8.423853111063552 11.684340388560535 0.43455551502536777 -1.072525913538398 1.580722193978368
Ni 4.565933702495202 3.322247503724703 0.26976207711716055 -0.06980185128448624 1.0936650095098583 -0.5453543775475059
Ni 6.6468956575304015 3.3713253851470952 6.646421132144742 -1.2720507179430351 1.0899381954775744 2.5037592846235976
Ni 8.633214084858773 7.488832598193614 6.7208627690726965 0.06460976556058551 1.7237711747834636 -0.6807119032456147
Ni 7.943209337064844 0.9282379758123066 12.639313386150352 -1.0047462348902632 -0.5122455108086791 1.759272453013867
Ni 5.255723606118457 2.3138810591972407 2.2913551149547398 0.33231816891999544 0.2811778986007545 0.4529121631556845
P 8.454426370655385 6.123619327229486 9.803980303892734 -1.5904563905469966 -0.6606125613925784 0.04591347470266286
P 2.350600730280496 8.249007320339468 3.7728616672938893 0.18310059741034274 0.6242396791904992 1.7814320198300417
P 1.6976892956057765 1.6406528388175905 7.123695589084246 -0.09804901905563759 0.5519582560172687 0.4753944034186007
P 8.940058265834063 1.5184438699083476 1.444374006806166 2.301110332767682 -0.6077938749296501 -2.6034350406493805
P 8.700712518653635 5.447672861038279 5.887812904234621 1.4007287747384394 -0.1580536817440439 -0.18779594600348304
P 6.967144246545498 8.359661409286872 13.379096594184086 -0.1383474615643682 -0.8183003751567713 1.004505836744683
P 5.344183358130269 4.8276419255274 3.4928814145985108 0.12483657156212695 0.2930684793907533 -0.0560356507383293
P 4.94592765305914 5.018722462713633 7.100823091853399 0.28910229565415374 0.4780076726717316 -0.6384627647684165
