# total energy = -340864.7653584203 ev
CRYSTAL
PRIMVEC
9.28648582219101 0.00000000000000 0.00000000000000
0.00000000000000 9.28648582219101 0.00000000000000
0.00000000000000 0.00000000000000 13.59171069314920
PRIMCOORD
 96 1
Ni 5.3435925414801355 8.720493109788404 4.930393139559793 1.6499794856132939 -0.10336708883444133 -0.02028368994970055
Ni 1.3712146410550496 7.282090743613425 12.318561553732986 -0.9262998205569015 1.4113327755065306 0.9913865257539054
Ni 3.175978160472087 4.251111773192834 5.8989652558080214 0.16261944673785542 1.0326013094293183 1.4970399851673637
Ni 2.5575632083074153 0.4099259156584531 8.182223316449235 0.49825562428749026 0.8097517142558119 0.2578376812129173
Ni 4.368242219210478 6.734020921757455 6.332188178516697 0.5788159996400611 -0.9797319722341128 0.5080312156170154
Ni 4.4431841600146 2.7176529378640772 7.727634975746998 -0.9980320560948812 -0.12533742245794544 -1.6550147340443562
Ni 5.244403586123403 3.3777920709498046 4.91508901088009 1.1642032247397371 -0.3152910382343796 0.755414277155512
Ni 4.234563255409321 6.358326850236817 10.526439727502646 2.7127632321632635 -0.7298765378957236 1.712463463080128
Ni 7.511114057629691 1.3893604344046473 4.713346606343413 -2.533784370230778 1.3290664732064466 1.7038440968422335
Ni 4.449907575769518 1.7232374601457379 3.4409318168880083 -1.4340631272245108 -0.2935850140158557 -0.8205909709631609
Ni 6.251142230563808 0.3937321416343852 2.9516575228899247 0.5356111821178131 -0.5568929743147247 -1.1613493002307096
Ni 1.5540934068859757 6.76224255225358 4.334110669119838 -0.441880073711239 0.04358945455517654 -0.07784657596583368
Ni 2.124868686643566 5.985474443386073 2.072777072920314 -1.064222278768709 -0.6366511654809744 -1.156971225767672
Ni 8.627340370233739 7.250572410640787 3.480062282311345 -0.40046911486462 1.4786522266887954 -1.041601970266032
Ni 6.369767800803196 4.282286506189046 11.325768425092525 1.4044728151619037 0.7284865995267324 0.27393638654699276
Ni 3.1432525843390353 8.339997925083658 5.346829810447213 -2.269640801404491 0.6850146443860267 -0.2767489162951234
Ni 0.2123893605629386 9.00511461458463 1.531432524116432 0.5185837943218811 0.9107739570071605 0.3563898651572185
Ni 6.4255888672435395 3.6016149528904426 2.0763514413237227 -0.9821953461729407 0.1000025432375826 -1.3885108925160088
Ni 0.8564591585349791 4.603515338203344 12.670260274467532 1.3909051037797981 0.0904400963601281 -0.3603822741460632
Ni 4.077454487810296 3.969573381698587 11.109810268017688 -0.12598328357206046 0.28115604422388357 0.2929710345809406
Ni 2.2910410644315413 2.9092610003933768 11.96951319605984 -0.5590886964144629 0.825583796192062 0.2047102052603184
Ni 2.806840347961077 7.231562974107202 8.156344666332899 1.1364617929604104 0.7538736721412694 0.41087385513771174
Ni 9.16759097100457 2.880110721312319 11.557235942184334 -1.6875340468283 -1.9506106078426537 0.06474629113844979
Ni -0.10097381793697396 1.8981855670613332 8.740598351652212 -0.5291443434465467 -0.19362540820106652 0.23081358721558956
P 6.609154833027317 7.430265911825393 6.370448500215952 0.09567974749251264 0.507472514900068 0.9612459976147834
P 3.055857466010957 2.7772350310734013 9.542128875036967 0.025789450259278163 -0.001391481030887926 -0.16165322616984418
P 9.275212055512496 5.197265383952186 7.63548331936689 -0.6130718354991377 0.15891165886896502 0.560670439079286
P 6.017856419542699 6.237212501789808 2.4767354927719856 1.104333287856982 -0.579135330652693 -0.0831283931900633
P 4.422075977679065 8.596202783180923 9.432402544186996 0.47737286730121004 -0.018900436448928738 -0.39762136100317974
P 4.960525000195125 5.954374002276654 12.559474355582154 1.1633868994860286 -0.41082474706733113 1.0722623754643663
P 4.490099486525434 2.662398347060542 1.2151004560904874 -0.21548929815369341 -0.8683553828316336 0.4546378875975396
P 7.509219614516426 6.0786178964548885 10.628268830786343 0.05524375096465324 0.3661261186083759 -0.7191038727602519
Ni 1.586057491179382 9.41770389438467 3.766915329657165 1.0822727085125166 -1.1440807429582491 -1.5286370432473544
Ni 5.570628547524643 2.6572722068717103 12.815868657990745 -0.2628467043917344 -0.5721740688435114 0.7699150418748483
Ni 5.355042778532363 0.46530958861529365 0.5847737285268757 -1.3263097363969159 0.15693705164109747 0.005590349603583921
Ni 5.404883348085737 4.487657140747059 9.133466850102609 1.3583675361634089 -2.2537966352833827 0.31738005955292437
Ni 4.783654590708718 7.298026353330883 0.9377651280916495 -0.018337879077239386 -0.2044808628583317 1.5525411035584615
Ni 7.134983521274132 7.919598710684328 1.3331140469124036 -1.4202624738959926 0.01626119905386877 2.926117486251825
Ni 0.0004606096981269459 5.021583644654494 3.457812790864927 -0.42847974114493304 -0.8107726993211585 -0.6170470180968018
Ni 0.6794401652749824 4.595343230655931 5.75377847874237 1.345592752996244 0.06875798340100417 -0.5623632534006767
Ni 7.511801257582541 0.3047332472001269 7.35902835022657 0.017447763162802207 -0.8577565242698647 -3.9004794524232755
Ni 2.9209526860776878 0.9177388213575617 12.430434920111322 0.39744755442947677 -1.9788888859620566 0.11850908668220236
Ni 2.469304446795349 3.5096137375810947 0.7418314204537301 -0.3319448447409767 0.9997503243375684 0.09504597056325566
Ni 9.091562511356075 8.746922448515607 5.371525362266346 -0.5174496807174379 -0.028416346359163965 -0.43063458270440674
Ni 7.253571945570123 1.6243735317937322 1.0108859890207171 0.9732957296904658 -0.5398349903911734 0.3179130492382589
Ni 7.910460808608583 3.637210053150938 13.448046182184127 -0.5510262311213026 0.23702871488736602 -0.02480086109376374
Ni 7.360329386894061 0.18354925010924822 9.466776471558305 -0.3028913790184461 0.9351734688974476 3.0102419248065706
Ni 2.960708131998685 1.8836986491363727 5.895744702515472 0.2164184948361821 -1.2435626378056712 -1.1723345955976197
Ni 9.244826673813478 6.718419625530577 1.0061628823177462 0.864535237754595 -0.7684834516346443 1.118395422377003
Ni 2.5288029616320293 1.2127779059795691 1.0844498153247981 0.4714958396951428 -1.2089884993752276 1.4209669561621852
Ni 8.197199632178457 4.351795852771308 9.379571726190136 -0.8747340326644677 0.1869143147294781 -0.1598007463421377
Ni 1.7958206335441291 1.1783714759077883 10.329836464234988 -0.8843453305019866 -0.38139204362851087 0.592381911249954
Ni 4.612876115939473 9.15504492862212 7.136789742771827 -0.1663128364290426 -1.452490737802079 2.1939292695037893
Ni 3.1228408884422003 5.086830494231911 8.885295730913603 -0.4965386415963836 -1.4773666751081522 -0.5164240676664009
Ni 6.883189743955302 5.669715351537032 0.46825711922387214 -2.5013262497020725 -0.09094891767574659 1.3405909289062783
Ni 0.8350491654093406 6.088127257964606 9.595828908109322 -0.8648458270164782 0.32211191781095494 -1.4370551199732993
P 2.0646365394247885 6.420351289224516 6.363448347182724 -0.10822775936085233 -0.297192785971772 -0.1469496014110824
P 0.5078472656967511 0.5772618901233498 12.652360572992942 0.2092194059845816 0.15373705664656104 -0.5775934400868699
P 5.348904411385955 0.6193575304783789 11.959006465969903 -0.1720631086492585 0.2355089358087299 -0.3472994728201761
P 8.600539572072563 0.4354916112016684 3.349323419930087 0.9822326271687793 -1.4161265973507482 -1.6360903863360272
P 7.335469464275396 3.5503628374879708 3.8618538604406574 1.533814730793552 0.23842276702141518 2.625630345799497
P 4.989730998191279 4.7337397292685495 7.012752008579449 0.16207951507398538 0.056045163820026056 -0.2686725670448921
P 2.841813253669667 4.827161776912845 3.9512056413371903 -0.7906260491699545 1.679532516680062 -1.414900695363447
P 5.452875906955094 1.3638597442623772 6.102352296988616 1.2929959527361343 2.046534610135488 -1.0333965516371042
Ni 7.5279504564745325 1.0416465447480499 12.014745811334773 -0.034997856231423596 0.24416558304246336 -0.21512934371111336
Ni 2.8149474501075447 5.87960850470367 13.255791780239715 1.6867948546694307 -0.6396184756394145 0.24099155618985596
Ni 8.280843010223403 8.336524779376008 13.252529437760844 1.0362329926446348 0.8121646945726787 -3.43952950656478
Ni 4.571653405254281 4.880401200287074 1.116988733092278 -0.1023065087804109 -0.2911067276786922 -0.2213465282654188
Ni 4.914556895240924 1.7698463326235432 9.777183761612374 0.7541647210191269 -1.4458457216817358 1.9273192414148808
Ni 4.19848525788466 8.17441988239004 12.568920568988094 -0.4349818039295089 -0.7276808157959855 -2.080510967080933
Ni 0.8718255066698714 8.224585478948141 7.3597889134176295 -0.7360304733122615 0.043435445475815515 0.09563603873877079
Ni 1.9163685063543283 3.1682610907312907 7.697284882694206 -0.7873165251807474 -0.08605636547013565 -0.09991898238484083
Ni 8.404028245014814 5.935141690082685 12.616695824088575 0.056258565382412785 1.1282702582885535 -2.76214255392734
Ni 0.5993971577938213 1.7988480279310117 4.88178952992155 0.9688127542184476 0.23713053057255293 0.2192847606403836
Ni 2.678798281070465 7.7871919954445294 10.464951118748454 -2.48313800882882 3.239662231219059 -0.34553338205868883
Ni 5.374535112330116 6.593321374654203 8.637233263609033 1.1494018980608462 2.919702840974733 -1.9582876647719372
Ni 8.485637882658757 2.8207515037633786 6.241177831247473 -0.9449973969664048 0.9182748933698959 2.0059191506069713
Ni 5.8949033468975225 5.754983864605614 4.725770067112651 0.8084818464044528 0.002515567333002119 -0.5673691912557003
Ni 6.74428248862097 2.3666516322168154 8.185947197274817 0.03919903879696475 0.6849578230061624 -2.02256755779693
Ni 0.41822246211624775 2.6928487341605067 2.7447917641101696 -0.507930685483409 0.001550632316571523 -0.3605987610322435
Ni 7.1144696740329545 4.715788952121788 6.913817502934989 -0.16427652272530419 -0.3922359283215503 0.8134469037192119
Ni 7.9961657865120825 7.376246423639819 8.577987341187455 -0.05190311662719448 -1.1453835209300725 -0.7578799650871851
Ni 0.27198259755528215 2.1358174534599303 0.5360159632235346 0.9298620839868631 -0.0882176347875126 -1.2483821706815017
Ni 8.928566111728573 7.784136741600099 10.874782312251245 -1.1604494141242594 0.4196418311383289 0.5432252470196451
Ni 8.188312465220644 6.218388794973209 5.572791370078953 1.0299327614582197 0.9198044426405448 0.01714308743818983
Ni 6.392649701935954 7.979849430874803 11.216355048815677 -0.41618138339355426 -0.15986528103148598 -0.08681869755745693
Ni 3.993281780071936 6.469718247999573 3.2173893868200203 0.7267199945446129 0.3317250154206868 0.9213005675700972
Ni 1.134632127557427 3.6371171882924447 9.914188215996178 0.9931438747646445 1.4677024125455111 -0.10236487282217209
P 2.3061966093376536 5.5907709353318475 10.968265650702145 -0.7518666690135696 -1.0927869777802792 1.4197091724956838
P 0.939402335546887 1.282872301170339 6.945242042400548 -0.30705656613972926 -0.5915514449288587 -1.1054105800815608
P 2.7324741692796133 8.102161735996377 0.5591996751463959 -1.4211600460095977 0.24324435677977463 0.2933654418058818
P 0.26561671150556393 4.569517513508934 1.1201897847645435 0.222588628202636 -0.9427361117360539 1.5261459013943846
P 3.9471465183724463 8.60169109631788 3.191306434014997 -0.30092757042385593 1.7004031894814844 0.13871050133074175
P 7.276908884509498 2.4318891953083837 10.12423459617933 0.5856854730663849 0.0008919156866500768 2.4042586207230983
P 0.3227592448822683 9.023130397132336 9.35460408033562 0.274922661719662 0.11011134953681036 -0.8719384721972016
P 2.3229494298098516 2.790449700437003 3.782069945914693 0.5610913286667886 -2.177492206993689 0.060136046059948045
