# total energy = -340874.0228502623 ev
CRYSTAL
PRIMVEC
9.23476949060738 0.00000000000000 0.00000000000000

0.00000000000000 9.23476949060738 0.00000000000000

0.00000000000000 0.00000000000000 13.51601861430778

PRIMCOORD
 96 1
Ni 6.218010314603892 1.545826512836538 10.735070307603053 0.9124346325390351 -0.4890189361805707 -0.7800670427071856
Ni 7.952087600859547 2.3257581939689858 12.168863368985644 0.9330343110672575 -0.8842699971793611 -1.5942837347128864
Ni 2.0256004854361644 6.684246115320644 4.215956644083797 1.696303308380498 -0.3711793647615672 0.3518325848038392
Ni 2.864274534472414 8.100324118638486 6.143759998512564 2.2746541954586825 -2.831064316599718 0.11074538357638347
Ni 5.8185049572880025 7.6408574038631745 13.11695835322368 0.6591205502280842 1.0224631925540522 0.709830674988442
Ni 6.6410458642510015 9.246312822462146 2.569990139253037 -0.26952488774285843 0.24763065877292836 0.7934478348894657
Ni 3.297597617187411 3.8784276709018473 10.858958432485409 -0.28700273281264765 0.33648978379918176 0.8070443426269778
Ni 0.709243215583565 7.491466539914139 13.468590666173386 1.7383565287968061 1.9834574791693453 -0.3282756234195056
Ni 4.5299406493035494 0.1273317703769836 1.4026109391590453 -0.46453612054785803 3.3928552424366925 -1.6392160764492028
Ni 7.499103694175489 2.8286283247398756 7.538559246269341 0.45197216783991845 -0.7845417906490876 -0.3741387045002073
Ni 3.100213656870501 2.2626200758494615 9.036525643416798 -1.0913592441948172 -0.17443880797028666 -2.4883180103678626
Ni 8.039744031631892 1.2244750086207699 4.3140289712181445 0.4615155885539794 -0.5050446221848657 0.08821429235340292
Ni 4.445839604735098 5.1881950093386076 13.409200940937392 1.136656939690352 0.5832012731919505 -0.409404726791353
Ni 1.2479313227971034 4.678158697543767 9.939599280067252 -1.5742651254991145 -0.05179667295631724 -0.12740998871625797
Ni 7.393051602836508 4.165093381398597 5.556678005940893 -0.7910086293203538 -0.6030777004009034 -0.5051109566464269
Ni -0.15972826477146992 5.441403150441319 4.2501659237038005 0.5872137367854532 -0.677053480557421 1.4801277827930572
Ni 8.623649263543463 7.755922630098258 4.033233803604031 -1.3838754506265265 1.6394528750503574 -1.2501570031937372
Ni 2.0757914569119014 4.070316943449105 4.036166766353009 0.27381400203651557 -0.5709365968919845 -0.02260411055276107
Ni 5.405073567776085 1.5132462465317726 7.995467929931723 0.33500060084816496 -1.3989565133293649 -0.18051072519597947
Ni 0.9213557095539527 4.000326626463895 2.0234293911594494 0.5522814436846423 0.7544843091420749 -1.2777289992747347
Ni 3.558091991315763 7.9357143547829185 12.944588612674265 -0.9027803972787227 -0.0945093813334953 -0.622721956994392
Ni 2.592033533717174 5.892447755559617 1.1159720094934422 -0.5214202353294116 0.023822813451210584 0.9304698927741912
Ni 1.6956514109455276 2.196766935537873 11.150729123484785 -0.5444208099896429 -0.4510262589868813 -1.4765734897828957
Ni 5.443083878464978 5.848776531252578 6.432705773564486 -1.278558951375198 1.243956016589348 -0.47008327561833235
P 8.812361775430617 0.25850335785417167 2.262202664274355 0.2914509983919884 -0.4690646045458309 0.22405749943867864
P 8.903767522563433 2.775140540602347 10.092113343014095 0.5780225572044884 0.15996581116509223 0.3532616039408819
P 3.607627294166886 6.498461025320849 7.562672152547225 0.748892416876594 1.136818404968881 -0.7174534816410225
P 8.762272386417848 3.435149506815949 3.57552723586888 0.6523531495972635 -0.3223158062916449 0.7714165661210391
P 5.670933342903038 2.418807730048015 1.4265206805109918 0.8865065998193636 -0.9192549978949781 0.8032249688808877
P 5.917630971606413 2.349380733993813 5.630015926819378 0.5152914967238544 -0.6312942720444353 0.5249670721404056
P 8.838643929031344 5.9159871826601975 11.213713020955984 -0.647535416493646 -2.2958920217915364 1.3259186716060845
P 2.5757526353341516 8.162584933668738 1.3686593096042068 -0.49788821364574254 0.3545165593939056 0.7359908783235777
Ni 0.18018512585942814 2.896808626930375 5.690703137150557 0.8614139185167938 -0.20658119703078617 -0.1670278602181962
Ni 2.326746314290587 5.860550862187548 12.092200931137285 -0.0007587325428954674 -0.7216850032238668 0.07891435510871571
Ni 5.33367956584804 7.9420494065644 10.825911810327925 0.39056908214208863 1.8188210020014612 -0.5444215813205914
Ni 1.7281023904792423 1.5516536523031783 1.7285909097784269 -0.3057360475560928 0.13235396298509464 0.22355947675633758
Ni 5.400908686794381 3.8582866389260273 11.631385016558365 1.5754601742484802 -0.4535253712596512 -1.7944248325452836
Ni -0.14197534415234261 0.5555812708051789 10.267997836782218 -0.185358540206584 0.4474683664322938 0.3892825021201812
Ni 7.882217335876028 7.8156438835543005 1.0678588611238766 0.37095773566906437 -0.7114188454111684 0.1355812116731407
Ni 7.070176361676213 3.939838887150909 13.406484995268395 -0.22251715153475227 -0.0027055718566211463 0.9254035339948772
Ni 4.768844132666442 3.9378349421996246 4.63412916418553 0.5902908330488802 1.9578644611915894 -1.318617767069297
Ni 4.680042590493363 7.319339673798912 2.012508352913413 0.24906199190281622 -2.923698078177055 0.713569573205584
Ni 8.539806792517112 2.343655176990141 1.656469208024754 -1.0510245491315124 -0.24739900237809653 -0.6133207182851502
Ni 5.285667999941443 3.783134085868153 7.2897967231369005 -0.010764694715671784 -0.45488214239786173 0.36043035377517924
Ni 9.034522621942449 8.537932134336877 8.156295132257124 -1.5058141318155678 -0.0560806450436518 -0.9717849494728942
Ni 2.8965777576963565 6.667780521550405 9.57108488524914 0.4979440065843424 1.5155149040430997 2.928753124102459
Ni 8.018762635644244 5.226122207103255 1.9445090522023842 0.6286457786779946 0.3400438196990273 0.28153759593301836
Ni 5.248867444038809 6.070780386685278 9.104457530311494 1.4221298661220347 0.17117530672766648 0.008894217165836295
Ni 1.9685296107866601 0.6233801770210794 13.115863109577495 -0.4558586473785181 -0.47040080685875124 -0.1956825478404114
Ni 0.7845583005821889 2.974057472633143 13.061880341802228 0.17822450026496403 0.3066629302457364 1.8151949752130998
Ni 6.6601803063665 5.836032549534727 11.481763283375312 0.608171827094359 -0.01759328760173099 0.6568173560162043
Ni 3.4088858227539447 4.672322323307766 8.662889645511209 -0.9129254561325245 -2.3580574395766876 -1.2933875317475982
Ni 4.937184743343758 1.4133445115870578 3.8223569217741136 -0.6452512484451597 0.18734008941298705 -0.6078823208783983
Ni 5.842690818243836 4.515312774636104 2.0605300770663075 -2.707036614092131 1.304585971566579 -0.8781759684664813
Ni 0.4961278256605984 2.1127582386630284 8.065643865781084 0.36689847799802616 -0.5264534268779449 0.6589120337617039
Ni 0.705750625811325 6.541282650846698 2.479203121667393 0.07295402376022274 0.849531565256911 -3.2482687419411476
P 3.5014274465181328 0.6332281350673952 7.229015318158242 -0.9497513667116224 0.7411845067093752 0.3221134604728517
P 6.404423368920218 8.158761739153384 4.427022838685611 0.9210213457667814 -0.7425888432560694 -0.07902079877959294
P 6.5370993003262745 5.959889276201257 0.4535620032460418 1.3468312533890352 -0.9776236676418583 1.1312691930158776
P 0.6872552297355924 7.440056578882782 5.643492225747536 -0.2108559131467401 -0.3197848123396751 1.9821387603579217
P 2.7160564862321963 3.8573169881431473 -0.0015929977147313061 -2.8570825950403504 0.9680031138329587 -1.5746045111164042
P 2.0272165700742977 9.12345345088658 11.05007475483717 1.338958792619494 1.6708542721797741 -0.454956704389539
P 2.759940110234534 1.939606313148756 3.7932978730266065 -0.05399548037984894 -0.02914371144349174 -0.25609961547588794
P 7.176071461936062 5.141374728679549 7.497727713540736 -0.9331358696421285 0.4113291975075755 2.2468438581146337
Ni 3.927270366050913 1.1263832884707645 10.772644737178117 -0.4459514155671352 -0.9938074764905723 1.0822446834880588
Ni 7.061588026170706 0.7636988035501014 0.23195616637279146 -0.8672413238318484 0.15551805980638375 -0.018425039474406976
Ni 4.318649126329333 8.60385915280335 8.83834102859631 0.41191669457992924 -0.19939007859898566 -1.0922532167639962
Ni 1.2728005566856333 0.3229565071306683 3.7165403170538314 -2.289310769029593 -0.28267479486125513 0.5631245570467335
Ni 6.675787066586186 3.0275267872319502 3.4304600909345546 0.4474951059051713 -0.9265682437269396 0.5388564285279881
Ni 7.544104725270478 6.786244142910251 6.055960428815127 2.178869032736557 -0.015812541552224384 -0.9624461885704716
Ni 4.361646212473038 2.586381854868388 13.232344025955582 0.2483245995161594 -2.0849546046745835 -0.20166267668324625
Ni 1.2832266112939326 0.2709102704903544 6.16683214628349 -2.0551498626083253 2.489919293416712 0.42460997377688164
Ni 1.3613342905472507 6.585775769626846 7.949595136609078 -0.008034183158386164 1.4680621098777749 -0.8304969172229633
Ni 7.854143637019313 6.531780073174476 9.352747233252664 0.05235820188674209 0.31639506993183575 -0.9424514906160995
Ni 3.4944644304201185 2.5975836301029913 5.898647056231496 -1.5103917238839215 -1.6088570045413713 0.8493382182991824
Ni 0.15283727987446993 5.398313716604007 -0.0754351370003139 -0.5144705434844559 -1.7634628369461307 -0.7049936586111148
Ni 7.705251450615761 8.1444016727974 11.49435950878339 0.1840483060355927 -0.6655138553489377 0.022380424577729197
Ni 7.170031922774125 4.053749767215899 9.576450286247743 -0.36426566836086943 0.4386865064746058 0.7012506466289149
Ni 6.548384188485124 8.086037930437389 7.53230176655049 -0.5211225015833347 1.0659513456446739 1.5139809838970764
Ni 3.3138877503397937 8.894939083054544 3.7615487359643094 1.3937482296555481 -0.3655476203970866 -0.9390260098743183
Ni 1.9215431042791074 9.04011889217507 8.778450778860966 0.911103058211805 0.5486613304335518 0.388940288289414
Ni 4.584398084223959 7.1433526740908855 4.549410313546843 -0.4888096483832421 -1.5053965846621753 -0.10715149557753804
Ni 0.8947798902875541 7.423637158959349 10.870879596253216 0.18043873430746346 0.4663418062980291 -1.3705478802796847
Ni 9.202826293542323 5.132601697786826 7.095922898654016 0.4615245874150439 -1.4734722251497527 -0.9148249871480825
Ni 6.7022908546515705 5.738217872465545 4.031882756846552 -1.1313028744672904 1.1448291910884993 -0.8996349096712054
Ni 3.353828127825086 3.363321470727949 1.8972842886453236 1.3355849910512547 -0.08987548210590975 1.6301760777341217
Ni 2.985277717406468 5.015384770290683 5.946156250684868 0.3365437769655688 1.2885057781752647 1.1027574587294298
Ni 5.341298250570667 9.323792537398933 5.86996663302778 -0.48363684593305095 0.5417579184454993 0.11617426790143864
P 8.371798633536784 0.8929624876773563 6.524439355009607 0.4127484464526053 0.552640626796274 0.7908178534657865
P 4.440557316660742 6.16994334008113 11.383717737072109 -1.2957094950125556 -1.3395838277980028 -0.2566817132316031
P 5.140829877287263 0.38733577825227894 12.434696363281452 0.038019416666566774 0.268280473812796 0.43884540064997324
P 3.870910568642188 5.312808987092719 3.0183705134107552 -0.09561598413411274 0.9995119830745174 0.619644603620649
P 1.8532242805481958 3.671790471685455 7.216864208633353 -0.29876810087869193 -0.3087498946817521 0.35095121064015045
P 7.058697543360788 8.913722603934332 9.477905138922125 0.008125457320611812 -0.1970822564014154 -0.19890748253561227
P 8.98625248249375 0.10750749099023753 12.714289163924793 0.026904537700327857 1.3707070315653684 0.26402864051497754
P 5.096041245887572 3.077542298089833 9.414907389296884 -0.10033781508981429 0.747490394322745 1.433351702979783
