# total energy = -340875.21341606276 ev
CRYSTAL
PRIMVEC
9.17151597672417 0.00000000000000 0.00000000000000
0.00000000000000 9.17151597672417 0.00000000000000
0.00000000000000 0.00000000000000 13.42344070297725
PRIMCOORD
 96 1
Ni 0.39001595584346394 1.3222757688088072 10.796728519049603 3.1109769753348036 0.6303432209850757 1.8999166810322117
Ni 2.570528233993777 4.213201734037268 0.38599332903521033 -0.38857467741987917 -0.05974472415880033 0.034748459224778865
Ni 3.4373923882019595 1.6319244835836801 9.560415533068884 -0.4852622973516159 0.6842011473457958 0.8519471166769391
Ni 0.8360973874709099 7.6881514792383125 11.008107194010533 -0.4768342211889207 -0.13712978710718318 -0.34190452705684987
Ni 6.445145121062739 7.084766629516019 0.2496477415822688 -0.1947476947309678 -0.4870641264470451 0.5006678332734087
Ni 3.018510920836342 2.8362087022598312 2.2913280343596276 -0.6678772133747917 -0.606922013847658 0.19956799893774663
Ni 5.905722422185773 3.4997495237909164 10.502164196229895 -0.08054546295423547 -0.328358412941299 -0.600357730366579
Ni 8.795969695248683 6.057611894532987 7.202293183800114 1.1715429529342598 -0.20398386861725515 1.280930279820852
Ni 4.358891261737016 4.73771154830361 2.0348997911828723 0.30176189339969317 2.1057314322106184 -1.7268323302072903
Ni 4.793611936804079 1.036665596816499 11.59961126222938 0.45173948300382205 -0.21889189607733914 -0.12667465321213023
Ni 2.941185871542255 6.888239390010185 9.680340438721785 -0.08039556763993251 0.34315896828924125 -0.0417904536732248
Ni 1.29263342990257 4.860013710839091 3.3376980119919346 0.4097004036549009 -0.3327987081008398 0.41396354980662897
Ni 5.105746132347389 3.5339317629937463 12.892301555529604 1.0667779553110275 -0.46807113028431 0.9292925846366383
Ni 5.473111195741368 4.222217334020199 4.086243192955161 2.7516169718056673 -1.1396666730509535 0.7374723479651105
Ni 7.245983533381687 1.3570449850196817 2.9928765343131563 0.13509938694071572 -0.944658011349115 -0.8960122253169536
Ni 4.087597825831538 4.875586944583766 6.45305005048826 -0.35548432262381363 -0.5490670505124028 -0.6669688426279093
Ni 6.93268455533804 7.478041224905704 8.08967677019732 -1.7856365448296925 0.003900877716302959 0.1799823634963352
Ni 1.9408945061930016 0.9571485552579969 12.828499906209915 0.115279266890995 0.7389296492369274 0.11501958547170513
Ni 7.78535120316415 7.82299110380499 5.923603209293322 1.3377596301050703 1.8778033940729402 0.60372279018407
Ni 0.8423230123624798 7.739814627461962 2.6928093020430324 -0.3270648909408561 -0.0379530822050056 2.1873984103638073
Ni 0.03805078454647213 6.469046091109043 4.860600687847135 1.1366556541387716 -1.382175180105968 -0.9617656175636791
Ni 7.289080485894191 1.9916405028415818 7.7656076812076344 0.8944060571720984 -2.082813904182497 0.6172701898512015
Ni 6.3856678414195 8.656333367944393 4.475576788026773 -1.540563105260979 1.3857305015573942 -0.779418096269277
Ni 2.4143648353067397 8.392230400387458 1.0184472979293238 0.20131917730089846 0.16138660277201883 -0.8539170959191165
P 3.7481233418354134 1.900521493858454 0.44618323545227856 0.5013990550124784 -0.6851244304910137 -0.9342900378512297
P 2.397911136049998 9.102325835869056 10.0398611046942 -0.4451662006616785 -1.8051661302221877 0.48937117731366686
P 1.8723190829250753 6.286514584638765 7.30961367535684 0.605510221101796 -0.525453781968837 -0.41736769039217153
P 3.1044938809990814 8.01903225297604 3.2913736030867624 0.45184669800564764 -1.1426800059559803 0.0901063671697932
P 2.9841544228342483 2.6344536987761025 6.726928936683858 -0.28339341819483455 -0.6207005556889891 1.10159789120369
P 1.2810773200566976 6.642250166060867 13.606670000199452 0.043996974406240355 0.27002908107278656 -0.9705567334927478
P 8.133382711355669 3.7864969637363104 11.09088929517628 -0.8932490607495197 0.5470201952857031 0.6778934599602132
P 6.292384354719208 4.67916059175119 0.997808636035541 1.1613685835044192 0.5939009189976416 -0.7484144487989111
Ni 5.230221944115785 6.048697181223314 9.860738650628454 0.5555092065933207 0.7061406277313644 0.22632572664756506
Ni 8.785835170344168 3.8516605831449793 5.1469629241309995 -0.9539232387011249 0.3238106456696165 -0.5347634894055371
Ni 8.673860134543965 8.13618002365963 0.8785174821210118 -0.3188725849380509 0.7539104389164758 -1.0421246755387215
Ni 6.373607298207339 5.444569438725214 12.034772170052477 0.03490889606204311 -0.9276169967064284 -0.6623141174647174
Ni 4.726274668162496 0.3103741816707525 2.838749212122773 0.3824186851208124 1.7040366724690135 -0.028535902656163757
Ni 2.785783708662525 6.440119130431359 4.986458647039161 -1.3224800782381805 0.7629139279666667 0.11872814467154393
Ni 2.5848449700806078 6.217994190465343 1.863200761965737 0.08470602208982832 -0.12201195762913825 0.6240671581683768
Ni 0.4586078878397414 2.357336350368935 3.4942695431298776 0.531818033623968 0.47711035766844284 2.245253116588746
Ni 0.30732648698679743 1.2561399687305652 1.583026547358864 -0.9545716709184012 -0.5043311410576088 -2.355090900749196
Ni 0.851229471307977 3.569251270149662 12.236016320108893 0.32302285966099853 -0.8335367324905515 -1.4953523130522957
Ni 4.899194426126048 7.285806254771193 1.9571244204654266 -0.8900552364025703 -1.2306325600075645 0.5271471105108598
Ni 4.98758032341547 6.664656179039808 4.222330143663933 0.5853221761896952 -0.09175881517155164 0.8153333221086473
Ni 3.535408377029608 4.456173529304609 9.077548068916986 -1.0751638653818774 -0.08063622289582888 0.5417399207233703
Ni 5.340280133124092 1.2421900932737624 6.3195944076483626 -0.7095293416979392 -0.7251169117235512 -0.2349389222378728
Ni 2.8062453603023196 7.968433000579469 12.089740732552675 1.0915980996785006 0.4892449361484477 -0.1842974459319213
Ni 6.590587017837217 5.900146140609351 6.1494655419277455 -1.152608320813286 -0.9174505976963877 -0.18799752049132784
Ni 2.087161839385042 0.6719841189311724 2.8548305478400366 0.6737413854650526 0.46700206558984736 1.233898632353346
Ni -0.1711863414866714 5.637556473151281 1.6838095824884964 -0.1800733805482447 0.601015675665552 -0.6486286495578247
Ni 3.9537212104186827 7.223247345835722 7.412410775345324 -0.39385957996790233 -1.6295644122920514 0.006148536099899088
Ni 7.828604071444414 8.532334474995034 11.655291534351832 0.3792099483755276 -0.7253519105524927 0.32571711866371006
Ni 0.8988140464772937 5.221087114428095 9.797272678785237 0.2227668056517131 0.4545201310727527 0.01231661258382395
Ni 0.9910556489883063 1.8083477605639968 5.86315741758681 0.30806700968211465 -0.3929177848799233 0.1260676157557506
Ni 3.2023722970904696 2.9647383239900327 11.816989942794415 -1.9165800006205058 -2.3024334224544796 -0.9433171810505043
Ni 8.912356230124967 3.054628349862568 9.1091998869242 -1.6836498812825453 0.04321818725868686 1.7608811922618837
P 3.539994134904954 4.545412377558844 3.9277117089012945 -4.06797833874062 1.3239283806489328 1.3682156326020822
P 0.9758401043579078 3.4382545106825244 1.7064687293021568 -1.166529044659436 0.4729850226461596 -1.2067444405360572
P 1.7531444072605797 3.090204659459503 10.061902091346262 0.16824630600632962 0.39301471546910377 -0.17841399056795082
P 8.794373851508063 0.2989684846831916 7.080650453247108 -0.7954880052479462 0.5846305494393093 0.4554130752006673
P 5.50889845020057 4.865186445722482 8.027418686978471 0.6850398411970073 0.16566980352840502 0.7945374684092188
P 5.501304435158997 8.208598312027096 6.422740025235372 0.32677512761457916 0.1608438428946714 -0.43314886448582823
P 5.8964591912775735 7.653914210940979 11.652338306280111 -1.5143836186521338 0.08979834901107116 -0.6542693927833699
P -0.006306334230176011 0.26376912438360967 4.085169208460755 0.20388333848364887 0.07122752798741926 -0.10823187312591039
Ni 3.303011339422816 2.3488343552680435 4.575272081388373 0.3865519905628956 0.25573991814362407 0.33617019567623396
Ni 3.12990815114425 0.20517047594928656 7.490601615726276 0.11498461846871165 1.3459236539731014 -0.14174748838485265
Ni 7.716152116825176 5.297715128525129 9.481727596534244 -1.603662090603993 -0.502320024164851 -0.18216085920489272
Ni 6.287055704068057 3.4415654278685244 6.469064434140545 -1.0923393487198996 1.863676467753255 -2.198625132317562
Ni 8.196244280310914 0.3904928746625 9.477378463765266 -2.174747811479332 -1.644931381666425 -2.852189271503791
Ni 1.1006736052405806 1.2586162779832522 8.343540657570182 0.781653413357699 0.6286745750334012 0.27758143949874775
Ni 7.860447574130818 3.6967628536315367 2.6556527402822523 -1.0806022627886294 0.12663248712028513 -0.12899353115329398
Ni 3.887961442486219 6.064866563491785 13.114661286298839 2.323399740293502 0.8799083777765556 1.3834998124546625
Ni 1.0318322080158842 8.001138625746437 8.567537503900915 0.8763499710013358 0.14253141773872874 -1.6099013866454854
Ni 8.370246277133049 3.665203667933405 0.29960682217943974 -1.6328993902025557 -0.26009922355358434 -0.030596641839934404
Ni 2.164936292950913 5.561295319684274 11.750678049613759 -1.5200955814352464 0.7568283838942192 -0.03356780865311638
Ni 3.595811979763667 9.250115640675713 5.085658678550224 -0.27474191316742363 -1.5056269555054265 0.04001202161656335
Ni 5.400390247354129 2.7739983109228854 1.699662547463568 1.2473146486489357 -2.053097608064987 1.3516960376805043
Ni 1.8131903208803624 4.213421850415285 5.531544756892179 1.310726537246678 0.1311923385768257 -0.035117926749055645
Ni 6.867199932878096 1.2560665966045597 0.3312017767889996 -0.3042918589103985 -0.37901248765274076 1.1748797306169767
Ni 4.836873976600094 8.662056393772824 9.201755155273887 0.11216540385236166 0.19051334493464608 0.7093249389966171
Ni 8.41462724185065 6.457150635180395 12.679029879717731 1.9177930470920004 -1.457959217115818 -0.7034877634895498
Ni 1.2109519106269044 4.01396889738498 7.774776445503602 1.7232507835036193 0.5434057384615674 -1.4521053294382023
Ni 7.555733134829818 7.052785554093354 3.2337333780483872 -0.08976929554534863 1.1633984694502544 -1.1333978093231063
Ni 7.308707529600672 1.5908636075678306 11.464382765394872 -1.4763708868537864 2.1323618903139536 -0.9826414325714239
Ni 4.8365804880960725 2.642955693876994 8.166351559024683 0.5034273982964169 0.6233529057101717 -0.542621294887059
Ni 4.7415635849189 8.959479478052025 0.3233280305170303 -0.16638868397230053 0.7246263452403778 -1.0217242575054986
Ni 7.488120720715714 1.6257061959047105 5.351107107467785 1.4786637966530212 -0.7166865215680108 -0.05389675001845557
Ni 1.1584449829541912 8.452331343101743 5.936516703470297 0.38504866654449166 -0.33803295991658555 -0.19136026631597366
P 6.111769695040826 1.3226426294388351 9.483311517304388 -0.7940283899832842 -0.08114941508682152 0.923387789116429
P 8.185944668122888 3.973935231133208 7.141498874495076 0.9222642170349471 0.2092111784544655 1.719377159480826
P 8.826611729371745 0.9546814175210607 12.903121192660695 1.3752239455991153 -0.12261899508551784 0.3602748020339214
P 8.45969607024955 7.304066742630822 9.477109738353771 0.061611345053893894 -0.47372755723913906 1.8722554676715175
P 7.397744604508392 5.198094124441109 4.1169962024188065 0.43988901142313913 0.3797241690077847 0.5618086664487872
P 5.561322834231527 2.0559786858326885 4.244907663987412 0.003072982498368901 -1.0313101014217207 -0.15979483280486673
P 4.079178374372402 4.740536375154822 11.37121117118674 1.9803662418385313 2.024969739480519 -1.293430726280708
P 6.724115115651546 8.598351045368515 1.7671016199299834 -1.039070976314062 1.2985258814154281 0.9088731404400218
