# total energy = -340896.06263239146 ev
CRYSTAL
PRIMVEC
9.00910303859960 0.00000000000000 0.00000000000000

0.00000000000000 9.00910303859960 0.00000000000000

0.00000000000000 0.00000000000000 13.18573295108834

PRIMCOORD
 96 1
Ni 6.308092697663805 2.0684990116643993 11.252387413673539 0.5323463953236122 0.44222974374117385 0.4511242180173263
Ni 4.787383172566286 0.3216123571665747 6.072701958831359 -0.880557067104148 -0.15581553644214455 -1.0759920177101274
Ni 2.7737495969454415 1.4739973270867102 4.710774266918278 -0.2140556510309604 0.08019682136556512 0.7062249599150546
Ni 3.47070279854896 4.173620026205161 4.931028812138774 -1.3431697453770481 1.0591466640180145 -0.2480006405178374
Ni 4.8590235580208585 4.589462193183552 2.5495535692505515 1.731885833470798 -0.5077813043897383 -0.16364840222300203
Ni 7.275895565804833 6.080387624428855 2.692381182288926 -0.17586525600416808 -0.18710560480467775 -0.5905230036643442
Ni 4.746220581879422 4.499398192505815 11.260035241039281 1.84957473824455 0.251550819762941 -0.3014531039100228
Ni 5.45884061324973 7.878478415592879 12.301181215063819 1.023683181004082 -0.5109201071290362 0.4365139243033192
Ni 1.9909756820823323 6.503887528786067 0.30160494167141444 0.12357724523372911 -0.19757256577427265 0.2532994270229315
Ni 2.8108220549617347 1.3919604370025378 0.6029612321055872 -0.05223453182468424 0.7581311618660428 -0.5975020060853388
Ni 0.35664695612982195 -0.06950522809130116 5.0002142170807256 0.8558441377385001 0.9066511930880387 -0.9770251148259109
Ni 8.670991170581289 2.4283045592354147 1.5987040307559541 -0.5383386083513052 0.6597373578764767 -1.3566047878360314
Ni 6.950757045802882 0.6658654905763444 4.759350448298122 -1.0903084343327998 -0.07748867840578268 0.03419618626573465
Ni 0.8465655699595296 7.364860455941138 2.5118297531019183 -0.6471011571697048 -0.2966546540801149 0.21008278242614142
Ni 7.467140800013795 3.7636157578402725 3.624981882154653 0.8007168577470531 0.26258882274465745 0.6135338627372208
Ni 7.573889659074564 3.8626348066998313 12.608579910745023 0.47916955419031676 -0.23987852563133524 -0.4463005713764379
Ni 7.784810773795697 8.810749382296176 6.942723628837358 -0.6123794374178034 0.39800111294010165 0.4008519521253354
Ni 6.97779336330152 0.573182543715051 0.47335898197557663 0.07648286284908765 0.491119013242709 -0.782235511113414
Ni 1.866244653835532 6.5293112168837535 9.186684827517828 -0.08297772654481193 0.04375169116465368 -0.46300965660100263
Ni 0.181376663003361 5.129395742110041 1.3629430177984845 -0.31022725055822703 -1.111949666751659 0.1308822635355746
Ni 6.421192974197596 2.013300238817296 6.853956938962622 -0.753289003282393 0.29117640457436306 0.8315343573485422
Ni 3.4394322027349737 4.201205898974515 0.21953291608632766 -0.3682709328655206 0.21255438389508555 1.200274002320365
Ni 5.87636748245146 5.518174564281397 4.77475150953235 -0.5012499310291239 1.677746628424233 -0.727819655366695
Ni 5.342587150736424 3.0418424780265743 9.058901515242857 0.2723435881385761 -1.1836487350588583 0.016755622191784048
P 0.24336109207837983 5.4667506055069115 12.355637637840315 0.47027790812764164 0.17572538799219414 -0.9319343931348594
P 3.9944920352603344 6.112243811924753 12.533143990281392 0.26201675229127136 0.7354406622470624 0.29551848359314264
P 2.433872184764958 8.358078003077056 1.4296896586128502 0.879459206054279 0.2723369032703568 -0.3163063668727714
P 6.2757049731027905 7.701080172385385 5.77066998568729 0.3734370504474923 -0.5950224341965946 -0.815100380162235
P 4.914303412793149 0.9680641321221874 12.5085527432823 -0.8777720481598431 0.3034523937282387 0.7340545805328133
P 3.8350759612388727 6.24530826026027 8.3068405327305 0.5091108218344393 -1.1984364348909942 -1.0183597119086396
P 4.823861029797871 0.9785237004713775 3.8378129266690917 -1.0898116972020393 -0.561431999835659 0.16007096928438883
P 0.38406616049740133 5.493444577099203 3.5428215673621395 -0.3265432141094312 0.5157833487586084 0.5558830449929717
Ni 1.3372932012205525 0.882709189477286 2.5499094288110964 -0.21397774660517344 0.8101430361569595 0.6646216825519715
Ni 1.7232431651131441 6.647862000610706 5.049146258021113 0.5914550285603104 0.04129423076309662 -0.5238080188352979
Ni 5.856331237827344 5.445299931743414 9.130460818772242 -0.03695292307526539 1.472385162733161 0.26958967954252283
Ni 8.693144554363078 2.3586371672937387 10.309555075759429 -0.41967525547942564 0.21077723739000476 0.002175667495080124
Ni 2.3981150557572617 5.200072153565161 7.003957599649252 -1.275873691233551 -0.01961211780397267 -0.3031634017329101
Ni 0.38962297510358596 0.08499007398155763 9.344333315570204 0.546822220342284 0.5780369553821916 0.018524026946116483
Ni 1.5907643084595362 1.082542801384166 11.53336241084641 -0.41489197515816933 0.9396829267320268 -1.1439922970095007
Ni 4.23970179523299 6.793431083630699 1.8047440135807986 -0.0019023592290354336 1.0582326368441775 -1.4472793688044687
Ni 5.653671470372539 7.6138810663976075 7.879714464496848 -0.4386924200118767 0.8429022328658516 1.2527335056716618
Ni 5.288541543047544 2.9585623317561933 4.7017948941589 0.6303036259963919 -1.2805299590586396 -0.05716050837139188
Ni 0.7549700218060287 7.7833152627311275 7.217329190331609 0.9503455486521954 -1.2694916989666072 0.07249893850067515
Ni 4.939096463694933 4.6427780635457445 7.032399337184474 0.3547775263647761 -0.39139800580128725 -0.33696698054591645
Ni 8.202698007109372 7.105974877920189 9.065164643508453 -1.0247154789233386 0.12456120641355323 0.35740313691308123
Ni 4.526884965144384 0.4675832461713857 10.306324411495844 -0.7032969876349823 -0.628114331654557 0.520801113688174
Ni 8.204770100753052 6.9620274334039465 4.73317720284759 -0.605698425853202 0.0019571237263708227 0.42457217856041074
Ni 7.190597380507563 6.088685008106379 6.938372232185627 0.7868519268395029 -1.2364036581633868 -0.17079812589390583
Ni 2.5909729193671756 5.1894594304683945 2.3854572663252105 -2.3172913134029187 -0.7047887416891604 0.5760044983331951
Ni 2.387196023165343 5.091206155346719 11.40894219664616 -1.5394793852784971 -0.19344671653135717 -1.0770032325834613
Ni 1.0715967414838508 3.376323437630688 3.7120999062172424 0.1754713629998591 0.015610709954063438 -0.462776457544274
Ni 3.704227752191814 2.58490078408091 2.7403771774485386 -0.7411528821404912 -0.17598198408769047 -0.7478169244242282
Ni 1.0095420414070029 3.325728316313676 8.01631858932194 -0.2000184562116039 0.5496067250659568 0.11883895921779533
Ni 3.434251968625771 2.7195868709201783 7.014071218450975 0.7407767297479951 -0.43177152452232737 -0.5854664150770433
Ni 4.06091615019451 6.827260264639491 6.15565417375987 -0.040180685983943705 0.5754028601934542 -1.1900731505279634
Ni 1.0012176304210842 7.362247816129541 11.278957059647208 -1.210475368333399 -0.4942693859462327 0.5762181570058978
P 0.23648624573275806 5.702320625485052 7.813773237472678 0.3808989060421763 -0.8438671678822822 -0.1646794145906777
P 8.385438648276443 1.618908745602404 8.101617675529491 -0.07799621416982053 0.1712529540431373 -0.19426355600569767
P 1.7975862814073005 3.1162396489375226 10.254741892512104 -0.4912815069625023 1.1503820025859284 1.2405320785094636
P 3.858986120066392 6.051855795865648 3.9049550670963167 -0.015352571196670333 1.1629487835073455 0.529726698312578
P 6.940135313603316 4.044780847082193 10.298531537575045 0.23198858136029724 -0.33115628740141034 1.1158042646110589
P 6.130550308811534 7.78166659691898 10.156323750809213 1.2416193980363712 -0.5766475312338327 -0.017288097656486354
P 2.3594750138540097 8.660991066474828 5.9639332589231415 0.6443215375420388 -1.0651483901274044 -1.447887691812429
P 6.786899484101704 4.078015427306277 1.54805755755299 0.3295215800114648 -0.536918845185643 0.08347394945494012
Ni 5.322136487383572 2.865480281640921 0.32274299956780067 0.4834185592746578 -0.36223732507693096 0.5543059303138389
Ni 1.3733926761345958 1.1937421572274494 7.032333570734044 -0.043663759436537705 0.2459931231695054 0.20432325423454487
Ni 6.65933058847334 0.6970649144782219 9.315390671919376 0.9304454672941589 0.09517992503795866 -1.5073791623098427
Ni 2.788614616563153 1.708170936131064 9.10383892000234 -0.0014439315353781583 -1.7259890083703886 -0.06214947694555103
Ni 6.239614507291547 1.8834790674892792 2.59711442474499 1.4965262787557387 1.1002853430398534 -0.7799572566021986
Ni 4.068853169760088 6.895711427703354 10.343759035444641 0.21282152151354317 0.32737110932736524 0.6010935800913391
Ni 8.093859036199326 7.09193869575995 0.07645665181071115 0.10094922342156808 0.5850462968204893 1.0778347273458213
Ni 7.604664754234626 3.7548589099200207 8.185149175767954 0.13316051804679002 0.38270382046139895 -0.6563471012480051
Ni 3.1073296462696938 8.396952281653071 12.367399922454185 0.3382026527252305 -0.2596320541091787 -0.09116720433413977
Ni 0.19347228442077913 4.8048338046872 9.905016630062457 -0.23014330062144234 0.11481801098386034 0.9089518161967571
Ni 8.520701317694822 2.2190951740460183 5.808750562306749 0.6687601302003773 1.3301620202634705 -0.4420261123708
Ni 3.531343069486426 2.5722249764432616 11.622234507223888 -0.10525762098893486 -0.5518903788938109 -0.4939425987344332
Ni 1.0794616882270403 3.3448906779663266 12.855601401290478 -0.3291058326302848 -0.09740701459626451 -1.933736200684818
Ni 3.2236822089137838 8.467601665799796 7.973464990039777 -0.1573016340693678 -0.18833227812292727 0.7644612178491286
Ni 5.458453221829389 7.834739221505611 3.67313643752352 0.6500458416203256 -0.07024716635202095 0.42296395353302635
Ni 3.0245720279616326 8.317987495623225 3.562626278044331 0.4240579579281536 -0.37828897922315496 0.48798998069542404
Ni 3.3215480926151195 4.091466017784607 9.002005427428497 -0.5119963709123505 1.523863533118111 0.7619459076264425
Ni 7.347031441502684 6.2177674330049095 11.202308513946887 -0.31127009000044453 -1.1848031603782756 -0.2395206280712843
Ni 0.6454463590832874 -0.1379329674878882 0.15176284119403938 -0.0787793721927482 -0.018190297755781574 0.9769716358801562
Ni 4.776941622422693 0.3282151286076784 1.5595558754548602 -0.65402565220368 -1.0439640427403052 -0.07187261777058589
Ni 6.062279327803643 5.718284755644194 0.30537615210291397 -0.8798345871158266 -0.12361324067798712 -0.1304606026171237
Ni 7.88763166403627 8.761577699221345 11.370439994015726 -0.06786195394929602 0.10466858125468426 -0.2726310374720079
Ni 0.08978111484986014 4.754572020173736 5.743309340487902 -0.566482931996005 -0.10407208532126593 0.14631325337866416
Ni 7.890766831810187 8.828227041725485 2.700292976366668 0.4307459114712904 -0.5067055548270564 -0.31350437864760206
P 8.514638191511356 1.7739824320749338 3.5977140307140894 -0.5673298533773327 -1.6995560109898407 0.8682090870617564
P 1.8507399879191186 3.1901052827833527 1.581338985111627 0.8698224542954632 -0.4956554676604818 1.0914682589688558
P 4.768274865530427 1.066722816869801 8.0805066449415 0.3086185113102104 0.9494364065743648 0.7758818009812444
P 8.588557879973976 1.5939084853362522 12.442043942781817 -0.4892922444466154 0.4220219013347313 0.441632219366491
P 6.411643325231067 7.654043646673825 1.4447474730304524 -0.5535880783112079 0.3320559163975442 0.08017008189268773
P 1.685251778611392 3.2121685755371563 5.7996919094427435 0.34451522520681954 -0.6055187057422281 1.048134114957595
P 6.772926365661054 4.010257965157908 5.833605776017843 1.6512030736077499 -0.9246003213672914 1.8395158113466514
P 2.3851960023440504 8.534836599985846 10.137177605541602 0.2920606069515293 0.5878523988107166 -0.22955323244592726
