# total energy = -340874.69030782074 ev
CRYSTAL
PRIMVEC
9.20400891954162 0.00000000000000 0.00000000000000

0.00000000000000 9.20400891954162 0.00000000000000

0.00000000000000 0.00000000000000 13.47099740922633

PRIMCOORD
 96 1
Ni 3.0743414336788297 -0.1045676645914597 4.85570186768851 -0.2447250550903592 -0.09712342191757467 0.3873500609841587
Ni 1.116970898225152 0.43961475481667495 6.9619187133592115 0.370123155582911 -0.9270282140824938 -0.022387623666580796
Ni 3.2028570088159687 2.009106269024247 2.953300434103452 1.0802551638618556 1.4153971753838914 0.16581147131259186
Ni 1.1895629157791603 5.864168546750395 0.03503966157323561 -2.29666283851929 -0.3978064804307923 0.0097683922406735
Ni 3.3252611220974138 3.1300625030679465 0.377802472391265 -0.8453828331958602 -1.1090021540875612 0.678912902363663
Ni 6.945639582961369 4.728476694587768 10.707435798524681 0.3127181353008808 0.18376008537121255 0.9323609391493168
Ni 6.177242906722448 2.4746818511152764 9.767618139638826 -0.5273877657667563 -0.2737391829345221 0.2780383245305082
Ni 3.4493403649838834 5.4813830239846215 0.6396887373174692 -0.04623409126687521 0.6613700083838933 0.7471803192814938
Ni 1.363076890031495 7.317490743250388 3.9470563458702213 0.5045419715168343 -0.5275500023762334 -0.8054183769877805
Ni 0.7840692624556029 4.459093764478638 4.7211263731450615 0.07486049675431623 1.3043121490799021 0.5571143462969115
Ni 4.901272756152235 7.875796714190996 0.7965701472333199 -0.008282037503134124 -0.3534282114257332 -0.2738181158015736
Ni 6.989128524630279 1.583927081639004 2.1492575521101345 -1.4926030324419326 0.6797181718737778 1.1908442243660329
Ni 5.304748890742708 5.321647450934056 12.613501348020511 0.9694817552610142 0.7327137502342026 0.6489592934243662
Ni 6.40997547371505 2.47131318388759 7.265973144688824 -0.08333151033980488 -0.8272735251896591 0.1864628290143563
Ni 3.7698239520550842 3.0879081426777657 8.49107918132361 1.0589088369755957 -0.5328575306320759 0.2561394675748879
Ni 3.398635480401021 5.498373624264157 8.655587032946732 2.141060703639532 -0.023898918104784648 0.4596132293249439
Ni 2.792800007920042 6.30846446045232 11.916039967748212 1.875197323908661 1.3811482815033505 -1.6135767786145436
Ni 6.8649020176027085 6.156138114500901 8.898374979573891 -0.8990769802852064 1.083740808417611 0.39435297466455305
Ni 3.8621309564989983 4.312151763686227 2.6674322037989384 0.4610414771310382 -0.08681664067492789 1.5190815383484355
Ni 6.858302743279617 5.8950848123728 6.651520879151669 -0.29591803302440645 0.17086497457609928 0.12616300368303435
Ni 5.207306049377894 0.5485699704120647 6.097296886122205 0.5929503821589143 -1.2594132316846827 -0.23012813111279076
Ni 6.419612070948351 0.502079601467339 13.342187328210647 -1.7998246634046164 -1.2326858429921674 0.6437142429753431
Ni 1.6392431746400933 1.6843152058258393 8.848181837881356 0.6438571963111106 0.724090784451882 -0.9169651734195368
Ni 5.75256993982224 -0.15865410201435481 8.786727591398998 0.4140519957553772 -0.35985005579167706 -1.5763546610382917
P 8.29903385571547 6.054065656700223 4.562748391395271 -0.7199402526186182 -0.5303555901458286 0.037296165347297065
P 7.864190459070469 8.384493077598183 8.876323094844889 -0.203327723090495 -1.2161924733228344 1.3625610054194661
P 0.26328803546931 2.740640889943807 10.327836703611984 0.7034648806714143 0.390045862648767 -0.0802533856351134
P 4.180157073215575 1.1420242102299714 9.380313448543012 -1.1669291083113322 0.5006243816299829 -0.4529255328921232
P 1.8969001975140511 6.547777893750375 1.9373315674533498 1.0675816821592452 0.2357025398767747 0.10148324154816714
P 5.78898099870948 4.210714382494047 8.449440245427281 0.14382725373201682 0.9414145647111528 0.3550271804817369
P 6.91155713830529 1.8572861435578636 11.834176752111008 0.8210941358518247 1.5003703350921773 -0.365372528271803
P 5.054455074923804 7.936257848121805 4.587184114408347 0.12777739935800575 -0.5088773656673946 0.793746339966491
Ni 3.5767422550539454 0.7403787529935614 12.66021813558218 0.13230125537028825 0.7127691887914758 2.876104901779124
Ni 7.006496489271386 4.676750165026019 2.5845455023810837 0.6813575072494137 -1.359707595131071 0.8950182368348005
Ni 3.3254267942561526 8.736932983288316 7.498024615028833 -0.2187988221429006 0.02564649692351067 0.5134469873159481
Ni 0.7374169029556662 8.83086909729316 9.421077083200672 1.8184407358439072 -2.248684510867798 -1.1963247878646301
Ni 2.760493936965995 -0.5064137692201199 10.99048852253152 -0.3202118725747647 0.8285760460511665 -0.3745871048915355
Ni 4.511142434349047 4.795886855176783 10.504764444735219 0.16908731385038622 -0.831878113841206 -0.11885618560897594
Ni 0.9238431811799189 4.974785174588126 11.124362671602974 -1.1429137192333414 -1.196034767428037 1.3636773784120968
Ni 1.5173820978789587 4.248101066316082 9.063731440810109 -0.9026269024199939 -1.1343977113425303 -0.4378035896490202
Ni 1.6714387974883147 2.2801551247295833 5.024695753209923 1.7215368861363063 -0.662511063966872 0.268088412406648
Ni 8.140586843899538 3.7757053136903083 8.77910299049349 -0.08895914093922744 0.46757799269797534 -0.12216648092913154
Ni 2.451506156909496 4.125052672417319 6.879679053761319 -1.4624185384387522 -0.4805363526308563 -1.3069403307313685
Ni 8.740844687036313 7.146452647370315 7.283283124074373 -0.2880597133222523 0.720527749690972 -1.1395504591880634
Ni 4.378236547005332 2.704377095197669 5.654222344390536 0.003945357800993205 -0.5347125815629437 0.7561884363173751
Ni 4.542067903980271 5.049264013949991 6.525808845100741 3.5229021545551653 -1.08518268307046 1.8280489483576323
Ni 1.614134638582361 3.9726066743512565 2.0241658682535952 0.0217607887158593 -0.32760405127377773 -0.14121295603762132
Ni 7.108071930595848 7.985315215126098 11.106514257701525 -0.22541735590068276 -0.497173446966905 -0.7676838385514844
Ni 5.547523031356639 3.523846816372205 1.0652756622933854 0.1985292732605871 -0.3714164204730378 -0.38387418662041634
Ni 5.966471104771543 5.65626839555096 4.535886491657554 -1.1126528634662707 0.19244501473972017 -0.3590265314491171
Ni 4.760175300959774 2.7483814613604323 12.085046738881971 1.490797860912394 0.9091865579153826 -0.39803839393594026
Ni 5.274660985913996 0.6042312137438594 3.5048976030160253 0.18767176172079292 -0.21372654982631578 0.7142987380621246
Ni -0.05052080440648549 5.688307550249261 2.4834725999381284 0.15501335225582336 0.3555794534407812 0.4864378057169557
Ni 8.453707223915686 1.4064369755769408 0.5818222134726861 1.7772568054064297 0.6181801032599805 -1.9457435095583393
Ni 3.0792471703792588 8.96568021446237 2.2792117138256547 -0.04781943347612409 -2.6039487470610054 -0.16733125039122795
Ni 7.343943064595668 6.0591278615505715 0.7683497357939456 0.4964224277334934 0.2390251764921045 -1.1234671804729555
P 8.770407963362354 3.4990144005790373 1.707785428313822 -0.9118792742561972 -0.7422887955171474 -0.3937279394860445
P 1.540778688296391 0.6896416543798338 3.3884816178721024 -1.9459057461678164 0.05558365080257524 0.4454703621656586
P 4.633141571242464 7.082042993656235 7.701126716431019 1.7687261422275993 -0.822052643110352 -0.2030032498715407
P 2.907804098111158 4.226186321318479 12.011481857595815 0.1474262839371848 -1.2329020727680313 0.5297084434801329
P 7.513407274967722 8.66541783476611 1.6727209159167755 -1.0292922996607434 1.5709951964985913 -1.324392721879861
P 5.005452931972424 7.6206431817157565 12.075765416389077 0.01389501281453736 0.5492146318338605 0.7685107053281539
P 3.006839233001627 1.6339508695692735 6.855997139070503 -0.6058092403994535 -0.38292390689200506 0.05880344329145356
P 5.399761873779354 5.792690214263462 1.6059182199098032 -0.4964501956476354 -0.7161707582738568 0.4497383934133932
Ni 0.6455627357456382 7.504424162360557 11.454537159559507 0.4071560399664923 -0.08355339654262384 0.253444437241228
Ni 7.24535892613732 7.941366073016248 5.235085588794848 -1.0089235061964044 -0.8657086892374058 -0.29217553526283874
Ni 8.734880489321721 2.5453594348349706 4.003364631021978 -1.1102411687009848 -0.352935845170347 -2.0397522971063324
Ni 8.897349652991474 2.1647368541416205 6.3168870489224185 -0.8418799622489244 -0.4046008776448064 0.7621963330743519
Ni 1.509577098400602 1.3720876146651166 1.2010900164238465 0.49380015961929796 -0.0853588251824788 0.5760456359837756
Ni 4.004158016582161 6.691949487888321 3.1651316174694024 -0.6662756732156268 0.32758631066196486 -0.6532592063513009
Ni 7.669037860085096 3.8808703184541096 12.782993170419022 0.2100629849317995 -0.4884630636771007 0.9882150700044593
Ni 0.2934836272012023 8.25818646457756 2.0529127489974055 1.2118830473142033 0.5884180415061996 -0.2879725529250847
Ni 3.2234555805524807 6.571671500644023 5.750903093825153 -0.5927413514719017 1.5843376792437682 -1.374639533850555
Ni 6.921865628182365 7.2108715050932135 3.009299464558897 -0.5993840535994 -0.37566928221212076 -0.5441495586061273
Ni 5.657741036961971 3.051073699384861 3.8214391131101273 0.5814634645652373 -0.22656381080030016 -0.6554757543866454
Ni 7.64652485451427 0.1133851050398862 6.978434386783696 -0.7301346766531167 0.8736148314583599 -0.7180250378737763
Ni 7.269657509418996 3.8736727835577947 5.5708772833335045 0.7362945256069255 0.1460761976671936 -0.7113401696544329
Ni 8.376016185476052 7.952926308092681 13.232668827275546 0.41140298816830434 1.444440356693777 0.6284570597059564
Ni 9.221864595925318 0.002483241579316776 4.963240586326683 0.1650627660720254 0.6104446822889357 -1.0803726632763264
Ni 2.7451600582738465 2.205611857305986 10.722321441987354 0.30961378534394424 0.8895158189593326 1.4999563874832103
Ni 5.267233350797211 0.5839326926948407 11.052293441749873 0.5413231449009258 -1.4686712042166836 0.9557407515258379
Ni 9.265307517550134 6.343108349646346 9.404507106124154 -0.6257982819268706 -0.18697679253629734 0.59921204679791
Ni 8.87832496676298 0.67224607771227 11.09492917180128 -1.1578703405431738 0.9571921392603839 1.624024199200113
Ni 1.0570528008146547 2.8156535618171645 12.7849195694648 -0.10515297709027052 0.6207434931117827 -1.0806333731368811
Ni 1.6956453406818028 6.461941307506089 7.77017887219331 -0.8437488971368632 0.3085850869691137 -1.8812944379453342
Ni 8.510109389957394 1.256650936059516 8.753238805311732 -1.1133203218469407 2.25456256691513 0.24384239537508973
Ni 2.2331134356566107 8.141295552578587 0.07073740977701662 -0.29647699085167006 -0.8682764499645821 0.5587595952098183
Ni 4.5648294177892055 7.344421673054246 10.051748653078345 0.35258848913325724 -0.9268009285630361 -0.6238450148552418
P 3.3335539340431675 4.328755795595373 4.907821408426824 -1.2112011907558302 1.2277390405098534 -2.9323071600023045
P 7.07290341289915 1.4532669724470808 5.173347858840869 -0.5743116840118044 0.5329752871568627 -0.4112245536089111
P 0.333081113941516 3.940282195379572 7.1244200910598305 0.06427423659803769 1.2231884450246933 -0.1955892167956567
P 1.3209317336501327 7.581231615953583 5.967503794561014 -0.33313320862212303 1.3614119794166875 1.421603047084287
P 8.215940064099192 6.120997208830658 12.089128716793116 -0.30351435731442566 -1.1117663470962595 -0.35203930149800666
P 1.228265772862285 0.5732772116852966 12.585333399431404 0.5425727010373107 -0.1569627626727103 0.2635650706149977
P 4.600007139494723 0.9174638826675969 1.4426768399001502 0.8762630677144845 1.3596757134518713 -1.375658976254005
P 2.3685964454695942 7.184189083527463 9.599715849563323 -1.0306765816027799 -0.15102788524551408 1.2901014047971588
