# total energy = -381168.4996545883 ev
CRYSTAL
PRIMVEC
9.25192606318838 0.00000000000000 0.00000000000000
0.00000000000000 9.25192606318838 0.00000000000000
0.00000000000000 0.00000000000000 13.54112899249135
PRIMCOORD
 96 1
Ni 1.806605050049908 3.2154142977566478 6.915549016466445 -1.4563882730842725 -1.3022534667786605 0.12333479020561984
Ni 7.982006477661765 0.5464973800052901 13.534195406795241 1.928860103539439 2.9773624004697306 -0.3819615429787357
Ni 8.473496532733776 3.796722048641 7.278911926503805 0.9801281792312668 0.32143417501764 0.34275067710722906
Ni 3.8862714386047066 6.6466482690005755 13.255031498022754 1.1184026214658545 -0.1968148616726417 0.45879741829186793
Ni 8.827817535672104 9.618117038792242 8.134074831127977 -0.478034412144609 0.18709994837772295 0.32339721228128177
Ni 2.849445120217193 1.6194941023666762 8.562462126178554 -0.7406301768678019 -0.6983239599004232 -1.2314324302010407
Ni 3.382605849160113 4.856964991266363 1.345168950795452 -0.3037118180372124 0.2276346752669757 -0.3056522295930349
Ni 3.7575216389627046 0.27868558420784934 2.6747659852516215 0.29084447515624107 0.12143191675595216 -1.3149290053637999
Ni 7.817220426970209 5.862084959885758 1.1986813589808678 0.6602124977406822 0.1042435779021237 -0.9101478933873874
Ni 8.697679947157846 1.8795842408788903 6.2544443306200135 2.302217964009564 -1.2333795266250822 -0.41462715153255686
Ni 0.4246772727987476 7.6307108544649545 6.071286730837545 -1.288901728062103 1.727342951295122 -0.6538636727045191
Ni 6.899179584121907 0.13169468762892747 4.9102838397383985 -0.9694146494685046 0.5052235709648911 0.015830025053721126
Ni 2.076983330068439 2.470162421429906 2.7418211679812377 1.6149718591898572 -0.2772626227067483 0.8623050628724955
Ni 0.46488799277604503 2.4780913218533893 11.928623602395028 -0.04724093526483477 -1.8348438597922787 -0.05613849486478074
Ni 6.60902993863665 6.911521653159162 8.85906684030496 -0.48347949441958027 3.060787756074922 -0.8189935445690539
Ni 4.747126127990288 5.718319284645956 9.486386268652636 -0.3823963165233092 -1.6905638347935592 -0.031157913660043113
Ni -0.1345211509654201 0.4625953655590798 4.469506365636331 2.890045680229932 -0.06260276243288573 1.0543381868857777
Ni 5.480609554680307 4.351356497400612 5.089541752789831 -0.5619007119419612 -0.23682482640667601 0.2580734513728072
Ni 0.9427989963293308 9.168279153739512 12.67715066046029 -0.07602006428005617 0.7092177239947915 -0.5466494422098457
Ni 1.496027152365058 8.121701305542953 8.027207686423692 0.2646981557781764 0.8113982487202994 0.3286569180183243
Ni 4.964953469379431 6.610538002544501 6.052721816497098 0.060546908345121525 -1.1306400440723108 2.6014910295491327
Ni 0.8609777399989216 3.085767061310587 4.648791109272627 0.10884585256082545 -1.3845092275557833 0.2925303474990962
Ni 6.52282049389217 4.524386013993364 12.830571645480662 -0.4705113642946865 -1.4551037499448938 1.0839159005428947
Ni 1.5841795015306943 6.765896340830538 12.70752288252588 0.5980532506031184 -1.0266952283575288 0.35351357205068795
P 8.265874065518616 1.2599087536395948 10.425111642045607 0.26796242835174494 -0.5839900876418329 0.14640966974721237
Ni 7.379715359028919 2.6486320704018973 8.92019153858714 0.14119727230833748 -2.611095642518432 1.515397661738945
P 5.444813853701944 3.5249097201211392 0.9534784942976238 -0.6112898038980505 -0.18766559107320582 -0.6913387868318417
Ni 3.0627020102537093 8.460321790373168 11.58413739659808 -0.07560868777425044 0.5259230082957717 1.7451334425093235
P 5.916837856859124 -0.3137096745732391 2.8545651359632327 1.1591931731196552 1.7759332014989995 -0.8856987592060875
P 6.251757571363327 8.44247482547597 7.1488085701150625 0.6473819216349174 -0.0588234978961116 0.10268266117290703
P 2.468256524712009 1.5266140191095576 12.295182127608898 0.23853075335418922 -0.54564234110157 1.113883136328946
Ni 2.4059448043477607 7.124602756605191 3.0018918774492405 0.13845184835271637 1.0526399732477485 -0.19964924579764326
Ni 0.8154878711515662 5.323539610118488 5.915983904106397 -1.0350893659584948 -0.7704331191618473 0.9272495860646806
Ni 8.216404018185631 2.9632160519646566 0.25337046479275543 -0.9852660146784644 0.7807938935708811 0.15714042590115518
Ni 9.066831787177673 5.065873476169814 12.523770383913506 -2.0081333846494704 0.4474210581341262 3.382679330344955
Ni 2.8110033684557303 0.3542617906131113 4.682048081807345 -2.1301124321581444 -0.2994029062492134 1.38497434011766
Ni 2.926226852556154 4.081607348337504 8.773947272421491 -0.28454218708729706 1.7786858245434725 -0.9641927389479329
Ni 5.123846043326812 -0.25604797212362607 13.321504734618605 -0.6018425424422215 -0.9380531044380878 -0.20201080405128433
Ni 4.345000424365685 5.261486943677061 3.277359641858621 0.6293255783538388 2.1519166725174297 1.591251375644466
Ni 7.029900043962512 6.054543520690079 11.10846443389945 -0.1490111119258014 1.0463423131644947 0.6461804451276484
Ni 1.9861386704906279 5.045102902715064 3.9295945064261817 0.4369067888663637 -0.05628993284098048 -0.8272688972039688
Ni -0.2953510781784687 5.210619855546009 10.334291037474914 2.159952141227396 1.8674680735852032 -2.9665177444457425
Ni 4.452128473377954 1.0426827874284295 11.320952488900737 0.39021118458203763 0.40281396094771266 -0.03919286814937766
Ni 2.5206131728992824 7.093423766608529 5.6845247752213846 1.3807667297942154 0.30180071705742867 -0.8578760805668644
Ni 7.033832112433901 4.799723326248753 9.090620338833286 1.4041216024700722 0.9873015570512543 0.7145447926346596
Ni 4.096428933493187 2.2892040044136714 6.527474212577133 0.05876076297897623 0.37937552741911434 0.5777950145747146
Ni 1.5215254599112893 4.434623829735911 11.430622041934395 3.1781609293804687 1.187301244209781 -1.456599360653814
Ni 8.121247961178016 2.2561098657732974 2.8971110420162445 1.210375352420425 -1.2527669300127584 -0.6586600656518979
Ni 3.270111683175124 6.627358003676231 7.969888305229236 0.06320697167578793 -0.010177197643317957 0.05173445225981412
Ni 6.721107767959962 6.221753575945175 3.325186547166854 0.20010741638098442 0.5831781332634989 0.5012848980321173
Ni 5.145440038179099 7.648021207664881 4.243992524280059 -1.5059874241686388 0.8619178547364059 0.8715301810151893
Ni 4.636519354871566 3.0557260581891743 2.9479846064953676 -0.4295470060671828 -0.17186461948520723 -1.051581450076247
Ni 8.861142972457854 7.927975230901972 9.994436345740974 -0.82830685155018 0.012126865170521051 0.582058674947075
Ni 6.679649888382799 1.6142852681328124 7.0310278537193645 -2.341661257606851 -1.5737794441119477 -0.0851402814137695
Ni 0.12835289202453745 7.822114695726362 1.0416808038626615 0.538502644732995 0.23617150909339327 -0.2362699823444705
Ni 0.06242089308886617 4.068552881012491 2.1563028656584633 1.7338861517302784 1.2704208956490959 -0.07399249232706612
P 6.0390835526531585 6.500282802606749 13.077358439863438 -0.2125839515814403 2.39780052380258 0.7175401278175578
Ni 7.358750495132053 7.201384488944153 5.525349092344063 0.050725294269009416 0.753032921407529 0.45745273133851533
P 0.643925709993079 4.953397814036454 8.407158374254825 2.2180855550350187 -1.4395611742246048 -0.22269430054256484
Ni 6.191925367117507 1.4544767535297434 1.409225584368416 1.2355353966258205 -0.48305294840512286 0.9269914473072873
P 3.3179256357872156 5.913470155862452 11.252664024459976 -0.1674006701765827 -0.5165870756068264 -0.10975139509423032
P 1.3918874753910437 0.47304078980425235 6.50622809013549 -0.49654789756776413 0.34466049253543224 -0.41286491742581144
P 1.2063863627996276 6.0469754453733815 1.5158891867047712 0.5439610967444051 -1.5686920022867115 0.3208677609912087
Ni 3.234195707161165 4.9019756103565 6.318209528529803 1.172037376072175 0.3424413733969264 -0.030156468978722258
Ni 7.08502301796848 8.812302056080293 11.69191123003224 0.3090699970253322 -0.11915751889947865 -0.6242959863497313
Ni 3.606428438477397 8.754385000478186 9.255943926414696 0.43301439579049295 -0.6314307976222996 -0.4698068820284941
Ni 1.9746477786283567 3.671765538583162 0.0570834570861735 -0.8511557311238954 0.18792784359565698 -0.12093106586013366
Ni 7.074253776319781 5.291953535385965 6.552064906200909 -0.9329988298436319 -0.25609498749019766 -0.04814982023234934
Ni 4.289729419546676 8.932577091675725 6.5066203717900475 -0.5845996962013739 0.2580120020072524 0.3193477248022565
Ni 4.058690328093666 1.6234261708380653 0.6673515861567432 -2.080746480130507 1.323168876775089 -1.1371313082236094
Ni 1.4688357423946752 0.2286622717111277 10.111621238114186 -0.7901452528787941 1.3360367338766928 0.2984593113890215
Ni 6.991217742129858 2.578955817088882 4.7865319304216785 -0.5813043132795538 0.27723716878545157 0.6094491511448858
Ni 7.787419973919987 3.5920139380575753 11.15369247324624 -0.7286447223711516 -2.1744979002520552 -0.09313332692157508
Ni 4.714790647266747 7.357408965888872 2.080161366585903 -0.17540708542082695 -0.9230586879117845 -2.700692931262291
Ni 2.588485300678366 8.341351276317656 0.7394610959591121 0.24940034907884145 0.9024448683161749 0.7763646541549338
Ni 6.942404581529742 4.179992327454567 2.4769570357484665 -1.3948846572528364 -0.9744810082478186 0.20663056221148282
Ni 4.819753745638299 1.49388070557597 4.477306664290985 0.8089778122042649 -1.0600691758322838 0.8355303658818126
Ni 0.5692367632734788 2.4632419809202615 9.269471167148854 0.2068799592181276 0.891471914244439 0.0072379125093359215
Ni 7.105071941209657 8.107934439930183 0.7697426491517159 -2.8731720444030455 -2.804398120162441 1.022097581684517
Ni 5.381031077133105 3.471729650536328 10.766036781596348 0.22564309875824365 0.2800517554161112 -1.285294984547451
Ni 5.036803925258979 7.318190052358947 11.024902890323233 0.44266014641037316 1.5257036716506434 0.8257432045880617
Ni 8.741820885221369 6.594032566890482 7.9379987673299786 -0.2877246985803367 0.1769723730254178 -0.08848682928849923
Ni 3.993797320427023 4.130031928053387 12.47760882525198 0.1649324111417482 0.3240181336947323 0.6970782604187801
Ni 5.906753257720738 -0.033830591935250495 9.63841298845268 0.6864097249613405 0.7629388676673312 -1.3007295739349665
Ni 1.8666685524411037 7.144041052742576 10.182143117446694 -0.26324805359521114 -1.709160109738508 -0.638439624839965
Ni 2.879809940742132 2.8002618825844765 10.593346810681009 0.1537134024974772 -1.0136579355575963 0.8148327283231451
Ni 6.334192230375273 2.0400403902890116 12.4426041639308 0.19021226875445948 -0.47544376859929727 0.6963200420965169
Ni -0.09764482505186066 6.634121161447021 4.038492448846867 -0.006351910359956804 -0.5338294076270419 -1.303910028545477
P 3.130916459287949 3.337798772437907 4.853438157145672 0.4879943515707983 -0.6482501831724836 -1.1366582252419328
Ni 5.586553357188253 3.7638684600718175 7.98891396547527 -2.959498632815432 -1.0913782703582107 -1.8809172571115735
P 4.7703762175634665 2.0473401597570726 9.25901741617045 0.8674940632726027 -0.41661718537939213 -0.08387838398221038
Ni 8.121571778581542 9.181472399951748 2.6325577744908584 -0.9712776708191724 -0.8487121546794094 -1.3083613794486113
P 8.882579684571285 7.273512502598152 12.2097239392406 -1.3035606156258583 0.6595926047684963 -0.8182427824459585
P 8.384030410102405 4.163486891800547 4.399945761396004 -0.8407826154196875 2.096210122983744 -0.1774678246045976
P 1.1774925984792788 9.39227752964728 2.348979771912019 0.7284279783746551 0.6131425408360731 0.7285570477533517
Ni 0.9519769067378439 1.9389908565372187 0.9226501522893515 -1.2229405906799455 -2.5776414766250446 -0.517827632882147
