# total energy = -340867.4087451755 ev
CRYSTAL
PRIMVEC
9.30498072397758 0.00000000000000 0.00000000000000

0.00000000000000 9.30498072397758 0.00000000000000

0.00000000000000 0.00000000000000 13.61877985140706

PRIMCOORD
 96 1
Ni 1.0203469518802983 8.568519293789928 1.6966543428178613 -5.548686676627495 2.6570957633976304 -0.6124817673236226
Ni 4.571574185148082 0.41047712237508127 4.52407691171231 0.4714904403785041 1.0567043731251091 0.06175892637535169
Ni 7.289493881430747 3.2529839953084627 11.531360967243131 1.3857531272652135 -1.9925666405594653 0.9787117584997145
Ni 6.374246685345736 2.627875399086473 0.7770328753561907 0.2731408872288909 -1.035299939307404 -0.25869745811005124
Ni 6.8399516590330585 5.239848586339911 7.467571669517035 -0.06339491931687792 -0.5753393539453704 0.39867217086519724
Ni 4.441369591713514 1.1307877665358324 2.022701793286425 -0.2955063994082846 0.3853348303263428 0.017970725545807763
Ni 8.052753524513527 3.083959022840876 9.039301995386722 -0.08134893269213732 -0.12008003071374802 -0.5277798589988523
Ni 5.803981644737507 6.521805067585812 2.4124576543794767 -0.2706710855321596 1.652937282690037 0.5971862746171328
Ni 5.3424359973751505 8.466322691939583 0.6660207348922607 -0.7676434722318521 -0.20979250487923223 -0.42165423358266735
Ni 3.5102853186596152 2.432219572162392 11.830388615066422 0.39117689092941665 -0.696903939624445 -1.4396483346217723
Ni 2.7264616684668246 7.601592235492697 1.5275372510424066 5.444743917795242 -2.6741812581250075 -1.5573333827407825
Ni 4.3787005474212375 6.7986840701041436 6.597849090982129 0.6078082731073532 -1.9280561195809052 -0.2508442806142196
Ni 6.0805721928574625 4.400930146057354 10.260239205399444 -1.2515790803522444 1.3481579426202588 -1.902541006028936
Ni 0.46350434577713356 0.6832563504442403 9.705586991727817 1.0426769484977656 -0.1816587227574936 -0.29440673858620264
Ni 8.02198195369325 6.22443649780221 5.046057477526619 -0.4235157122714383 -0.00514014944004276 0.6647780056241777
Ni 0.9320892109579171 8.293920011516823 12.874975971888933 1.3414208810067414 1.5621930248259288 0.19615254549829444
Ni 7.150235541879418 0.6461145899101574 5.07404406765548 -0.16625215839443624 -2.9140027052661623 0.8107994387940359
Ni 7.09879760916261 0.2199753242013331 12.772208974728253 0.17891869811851122 -0.1434701275029142 0.4395699375208236
Ni 4.110130892572246 3.8228861416735738 5.654204024626056 -0.1909242072198196 0.8395834529052637 0.6269560496803976
Ni 0.38385185090694196 6.33987408703606 0.666627419626909 -0.7460135526669023 -0.2580240861921105 1.9672127351757087
Ni 0.3318816733002279 4.455876056457635 11.929682993469884 0.058515736847705675 0.14265560202141883 0.9681080148419392
Ni 1.6920548909108573 5.581034309734845 10.348406688010076 0.6221637704980768 -0.15857484435483657 -1.1822122597226477
Ni 3.994423458901206 5.189610996119569 9.199403491465846 0.5285491330647091 0.06364611609573555 0.10166681831388297
Ni 5.429195636422096 1.1983326206587177 10.112420283702772 2.3025635202744406 -0.6312130251845387 0.172257998268884
P 1.7921392621666434 1.6618509239067403 1.7613574558677159 1.8755022567435895 -0.13110852061376777 0.09969863884391861
P 1.2011055048753616 3.2704680538422686 4.602848224920367 0.011084025728303493 0.5293975971079334 -0.22961699580432712
P 1.5973022735347258 0.8657400468412024 11.825485820792094 1.8213846489635792 0.016225460719926893 -0.2433304887356777
P 2.8793424996059622 4.576422080036913 11.778854841049508 1.096171063761164 -1.269089578432182 -0.23897863952488524
P 6.3070554204853755 6.579765791698148 9.394983017549066 -0.5546638278738899 -0.3244508503567767 0.4629394654846995
P 3.6725827901586316 7.549112144949499 12.906953468194033 0.3145482465310841 0.32163266418169123 0.3585961287799179
P 0.7661916424675596 4.131504432993829 8.801027496351656 -0.02054105737614527 0.14594455718533575 -0.43612208818153925
P 9.10313695374727 6.639336277453033 12.377087861825412 -0.9369472729684186 -1.8296720857833524 -0.947461285125865
Ni 7.9524086138011425 8.257118813272436 9.624092110700259 -3.7062025266811403 1.8839357322229229 -2.9657425568426152
Ni 7.427505353582646 7.079778228830997 0.767828388553827 -0.6302776578544629 2.1619524594868764 -1.037197413440433
Ni 8.924006772355943 6.597798844086928 7.627946732025586 -1.0778609525980662 0.46535424557377925 0.6083006393627395
Ni 2.6696547619479905 3.793314913349765 7.810315977161258 0.21281329398342705 -0.7086947616117859 -0.8484599294592872
Ni 4.863508646265508 5.823559323904686 0.2063016552202641 -0.42381781689288944 2.7358602231920433 -1.5267598808292997
Ni 0.3230689261808196 7.52472379081586 10.507542327103671 2.264636406211364 -0.8076061286677189 1.1597354187763704
Ni 3.1498289804570634 1.2137044485979662 8.146972036003634 -0.9728984942520471 -0.10995271247175903 1.8644208021184472
Ni 6.5495432147328465 4.54845130837506 3.564102534913993 -0.3802021370854678 -1.0884269010393706 1.470777451926409
Ni 1.007422333836947 7.076326081031082 5.80873648982041 0.3967466717077103 0.15635341122348556 -0.896824436805604
Ni 5.350977969559309 8.436351349450286 11.203230131619847 -0.8340987756416087 0.3759431046987977 0.5236432111226594
Ni 2.3050577073816583 5.596955131529066 -0.04266426651588929 1.5666230355728243 0.45673667910809723 -1.5963681280457411
Ni 5.813575079728649 7.605928356448925 4.82152457383095 0.5000736513328355 -0.30941555329020903 0.09133432603962335
Ni 9.027506071489274 1.57554722890884 11.834119912284121 -1.521492204672457 0.9345114098334163 -0.18023587426803797
Ni 7.258257061580833 7.2407730030470265 11.577501574508478 -0.3685792081345588 -0.9357522242190529 0.043047723119093606
Ni 0.0419691844656097 1.3782630303810248 0.5364972660370828 -0.15649302212514338 0.3930160010206844 -0.17764188828861666
Ni 0.33266608316419805 4.431217857886806 6.36658868631789 0.057795570852229486 -0.04148012152165759 0.08100363353757663
Ni 3.2981689810669317 0.4483707253410597 10.510374763196108 -1.345724650588418 -1.4552366759783324 -0.5584636612359543
Ni 8.534695689335225 8.346567591710691 4.058464057332856 -0.4933975248642406 -1.2655869645955624 -1.2844946001333426
Ni 5.412074472131408 3.0075837421354565 7.537994554137263 0.43193170424927546 -0.37228493912092014 0.7338697182155167
Ni 3.0954599788535346 8.759718035010074 6.239116965683417 -0.8431873682064381 -0.5088066603304593 0.6042840620041786
Ni 2.2325719085640148 1.5290502408867905 5.329205245470297 -0.3719165000379079 -0.2923169459367095 1.283593171364996
Ni 6.957668968512135 5.2541689514721766 12.967461895992669 0.9898693177784307 -0.3819594860962067 -1.6594444876809353
Ni 5.246324852832474 3.6973619534771665 12.765849020493098 -1.0807128202245646 0.5551009154113086 -0.7774555732262676
Ni 3.1736404257939506 6.864191133477212 4.479815910526702 -1.584731315137761 0.9968118105345349 1.123960060948974
P 7.753393688883073 2.927598128960044 6.769241250512514 -0.3617022785090674 0.34642478352470657 0.033978928048606
P 5.9823581227008225 5.453295536157359 5.411367293606357 -1.048911616553568 -0.12235571412180218 1.163879522851731
P 4.2263687101370735 1.3780583208079842 6.4921808008726245 1.4020112409952887 0.8271758232695303 -2.2862105328377145
P 4.218701406128634 8.027806871544323 3.1770432571967246 3.3919070195908096 0.08127257092824713 -2.2931152303773477
P 5.87565791024358 2.472361258439583 3.027768106037284 -0.08786847897820996 -0.39136329590860985 -0.607849924978566
P 4.499032556446882 2.871358826257369 9.54463967291281 -2.2865152085623266 2.604902369223527 -0.3063317721585628
P 0.8144993797129612 9.187737837296696 5.151998403567492 1.5791957300315125 -0.2762393236485565 1.4367429880495193
P 7.6601670883241555 1.19315905144914 10.055003900955112 -0.19601139193473985 -0.32999234900029617 0.7615299031349466
Ni 0.6977656066825395 1.9810489781609695 7.508441935774639 -0.16582484104903053 2.1023905407628436 0.015738750891495474
Ni 6.388678710245115 9.190119912328443 2.9002284590444836 0.463784329983498 0.13718223761167342 -0.7179486761098861
Ni 4.883346864889284 4.477556661238779 1.7749901829341765 1.234502327375616 -4.46414985467115 -0.8498961476851815
Ni 4.07236197634621 5.083469082497893 3.6074646749743398 -0.6697428058286207 -0.08555577168463331 1.9452868816368951
Ni 2.099352501417391 2.678019939500887 9.924876538859463 -0.28723053255273756 0.7065203796682864 0.07606505858537868
Ni 3.2427857365787913 2.7740473392182268 3.7469481950560137 0.1299425253301246 -0.1499382517257611 -2.107377966675106
Ni 8.511777522135244 2.287648088692594 4.743557210946109 0.9979911755546168 2.064247454034219 0.7153408061733938
Ni 5.608363037735797 9.000949656877522 7.104740700267209 -0.3326770949213109 -0.42986196620444034 -0.7937671659020975
Ni 0.48181003409728124 0.917351982695095 3.283692292260707 -0.9955136605484016 1.4227425600053691 -0.14185290361446537
Ni 2.5230547927089693 9.133471190479687 3.416937753352991 -0.7751022425027425 0.9213105948724262 0.7512501184754933
Ni 4.724715555743818 6.123654253001967 11.445086117685067 -0.3545975491434861 -0.4328639862555577 -0.17884902122284035
Ni 8.527828613657764 5.22164804430046 9.899790311181368 -0.7939229747536714 1.196162808365469 -0.08216217262205204
Ni 1.1894742791344048 6.43431964005263 2.9643723427607127 0.4536104747742898 -0.0617373291087969 0.6165484811938284
Ni 5.934093188366147 2.370918360017253 5.18539118742075 -0.6004250932694047 2.2674304240167333 0.42135881382943563
Ni 2.063779560611248 6.127218060568996 7.892000679792909 -0.283930264534911 1.3327956012315756 1.5351085099043111
Ni 3.103117977881381 2.8167758101002067 0.37642740689197435 -0.24888047201962946 3.4898629647120094 2.524776510305213
Ni 0.7072585478832789 3.8732167816998424 1.4365633862849974 0.5693304287471291 -0.2808423696382067 -0.3079950187935986
Ni 3.0569187492383 0.7026209455558446 0.003492159216464908 -0.6099947392357108 -3.5698450989636066 -0.7638503237380071
Ni 9.053922911392135 4.621551235911825 3.674564751024891 0.2248925937454643 -1.1044461592857624 -0.10256696153064916
Ni 4.1513705665593825 7.79873685931162 8.601934409596607 -0.7427248546133015 0.3495504736378819 1.8509255958454898
Ni 0.2453258133282635 9.126604114802227 7.414649592395681 0.36729314233328353 -2.524186699240014 -0.41498916285766596
Ni 7.492137748779995 4.835984513672107 1.5480873006815294 0.9147329416549084 -0.975308132134804 -0.9077688516322495
Ni 8.15451279227601 2.5873429036243865 2.3736986882183713 -0.7511472743490419 -0.32561118921346505 0.5668377442322625
Ni 7.419121566068564 0.9511551161924937 7.796110993788341 0.38108402546978887 0.5218023012591788 0.17972088230483244
P 8.42129589085119 3.395322283435997 -0.1885263507939041 -0.3556779266918584 -0.5638233828859709 0.7120155984549027
P 7.9982356432205135 9.24733623799336 1.3576366799010413 -0.5821448069029781 -0.3568603770357338 0.1219703057579254
P 5.124634316640288 1.1429772911123552 12.865947349219773 0.046774794261693634 0.456360269605285 0.2016210248120334
P 1.8057431437932667 8.189648398994294 9.113524103582977 1.2175980954211096 0.14481661422847963 -0.9337794167633983
P 8.341635951996526 6.496895634538978 2.604223999415782 0.42350774185163836 0.025224321784427524 1.4194674887985232
P 7.670179247441971 8.140099377337817 6.238218104558156 0.03635179915615675 -0.03611242945184103 0.9997724358247557
P 2.605469005819094 5.436267421672598 6.001687358886174 0.021218543059144102 -0.8115311747537378 -0.365248601099429
P 2.758610376414829 4.809670028555766 1.7959905936339888 -0.4040033532701236 -0.1864916253697627 1.6528141268486116
