# total energy = -340857.3721666511 ev
CRYSTAL
PRIMVEC
9.40178256016133 0.00000000000000 0.00000000000000

0.00000000000000 9.40178256016133 0.00000000000000

0.00000000000000 0.00000000000000 13.76045912353687

PRIMCOORD
 96 1
Ni 3.7356854352422477 6.6130257399007695 10.3798028697062 1.1898312097204862 -0.3893259537636069 2.311901766956231
Ni 2.60075866853523 4.061786259531335 13.776971486755478 0.04764562690242117 -0.6564777132885984 0.5866882032992864
Ni 6.598048700457422 4.122634595549757 -0.12500986017233442 -2.6026094594242917 1.7018964861975594 -0.15873399564052018
Ni 8.345304156370839 1.7234595445316754 10.777879039543654 2.8344183206736155 2.126624473609544 -0.9715874887501074
Ni 4.185429100535393 9.23572816867503 9.586058326516815 -0.6897904685081152 -0.028832865071292277 0.06474783380034656
Ni 0.6163018824699015 1.249449878734273 4.417726460961224 0.34612499289610066 -0.5022858284928059 0.39928615030011233
Ni 4.25363903221241 4.875416512781373 7.997248289703781 0.1803114647009798 0.3984968216295976 2.4083844699660135
Ni 5.362118584886698 6.669154381129135 12.27928352545087 0.5790047186120997 0.8938913223192089 -1.4906649348789553
Ni 7.0553608006230695 1.6993345707641736 6.880009096320537 -1.2059854508828456 0.7008284714898316 -1.3980743678347276
Ni 4.690953541106244 2.931569785831924 6.2926440198762075 1.5526979408513 -0.9922704710207555 0.048941462895709255
Ni 4.44408153752594 5.090096813251808 5.843833011402133 0.12317538180962011 -0.9539132113987958 -1.75553124080388
Ni 7.47996409964408 1.6047056304017788 13.307161597178629 -0.8681988026491113 -1.7838707111785213 -1.221486374731922
Ni 6.504068483084099 2.1894400881165113 1.9008702391908263 -3.2223041995565858 1.128475175210508 -0.7333760664085499
Ni 3.2093454483264057 7.259445292272002 8.449802147771326 -1.3248467786981442 0.7662669035992996 -2.988513531990544
Ni 1.7637931912435156 4.79678000436696 6.86521727199146 2.779418824509284 2.0342647916292 1.9233548574504942
Ni 3.0438740772009067 6.425996081616703 1.8715601824019772 -0.12571331774012545 0.234335484325919 -0.5712106764889775
Ni 5.673195360820186 7.768081722833906 7.975960773879784 -0.49199858763418486 0.634836737980055 1.2836404796631635
Ni 5.992423482138095 4.840564105238065 10.257499782701311 0.45364441333601874 0.7541752625420882 -0.5274690126266528
Ni 4.983395984223212 0.38902319351604836 5.928294864222759 -0.6939317443699985 2.3348797159086434 4.401366857906659
Ni 0.5898838139627685 6.65246621727983 11.574760957536705 0.29252957616814784 0.23317745946207583 0.38639952414543133
Ni 2.408285378212434 8.95922174681134 1.298778210716327 -0.6451931415137148 -0.6102361658225555 -0.8906105946854082
Ni 2.721496358762143 0.7546256067701234 13.076522711177034 -0.795409843711843 1.2961674084855805 -0.4672974853430791
Ni 8.837308833778138 5.245028786250508 7.0136375704650735 0.5274715837298142 1.539119430835917 0.4953315086621598
Ni 0.8774025436105086 5.862622473629082 0.2487185136535456 1.0731334652154099 0.02923781381919481 -1.5461791658961759
P 5.591258826765713 8.744033750088589 4.479098476262128 0.9320650051754529 -1.4003161126810528 -2.5826124474770746
P 4.415011226189573 4.128830370184512 1.3554502749703206 -0.5836609864371883 -2.8837847869218853 2.168736315177929
P 0.911208532767097 4.169154615113903 5.223470499091941 -1.0955542561127714 -0.8936121005158932 -3.1765329068587427
P 5.840857347256608 7.797452891208681 10.393027416900809 -0.4600418322219303 0.6298860788429991 -0.43474397688709
P 1.3778500216581897 7.053687283346914 3.1301739784905696 -0.21276187192020132 0.7942765014383483 -1.9021355430604014
P 4.36285013715524 7.94935749025838 0.5024698014527434 -0.8348366822488977 -0.996932138162483 -0.09734016591407106
P 4.587787782278965 2.164515962840733 8.51850849356172 0.6080846666971914 -0.6681384374559783 0.27183425260232535
P 7.049653918675729 4.647620725792754 8.13400003597831 -0.8594344261929199 0.25070775503635534 0.817627774569779
Ni 6.6112299994527595 4.970280497705026 2.3726610843299554 -0.7863796151887747 -0.27727136445749667 0.12345460361293578
Ni 1.3823158683220882 0.7579547779357789 8.463053960135042 -0.051698456815556126 1.6180834082356454 0.5429452538853811
Ni 2.5236922577900196 5.074311220517734 11.660571966138955 -2.1192171254018795 -0.9311872305561898 -1.1297219031334156
Ni 1.2605627855905421 3.2356422338399295 3.0879571547539317 0.6140622244368651 0.048428013594400465 0.5265184757879254
Ni 4.606412713313034 4.302725738385492 12.018577739173177 0.8441021667112237 -0.464474156961671 1.5167883714388846
Ni 0.7256840998533265 1.853260553040689 14.210151091727663 1.428061144004805 -1.4637606542889434 -0.5336185771678164
Ni 4.14470998074309 1.2535302523177083 3.852997115944266 0.014247253947633529 1.0928317149752858 -0.16339232034813794
Ni 4.307802700908661 4.066769204230001 3.751651542199368 1.485897081176667 -1.7613457906031278 -1.7155516150871486
Ni 5.104171281579926 6.7301437438843115 4.3380125082780046 0.24874728887587483 -0.812800785494781 -0.3855605731839037
Ni 0.6827038513817232 6.985655985536453 9.253068816226385 0.40579001285690114 -0.6936931459966311 0.05733997137204964
Ni 1.1864579363171794 7.014951939651626 6.983199299782187 -0.24299933064850407 1.5114908704853711 -0.6237722526357774
Ni 8.235472533786288 3.1899965800436627 0.8412564508020373 -0.04743068267813767 0.5107864097646493 1.530215443478068
Ni 4.552249044616784 1.924149992716045 11.053707592892675 2.195923417115683 -3.0491715119922325 -0.40505956244877983
Ni 3.2675048745640383 8.327111707329484 5.125839569593161 -1.1673415132584024 0.3936430930817221 -0.44746965198387456
Ni 6.596196549314711 0.5769187559637876 11.187624701758436 -1.436629088179474 -2.4735616779942946 0.3074545729090963
Ni 9.03506592583801 0.6229837292573385 6.794254498412992 1.457570980538464 -1.127919045596722 -1.7930251239842796
Ni 0.35804432034226885 6.371240100626085 4.807546925629058 -0.629995864947986 -0.026057359208684155 0.3103758603209493
Ni 8.937099352705754 8.838662690450983 2.992445387019452 0.8264466584129896 -0.019949189428417256 -0.6558179682174125
Ni 8.35075719019202 4.431492550824971 4.225066075167666 0.8315050467725034 0.9090256068574861 -0.859682537647984
Ni 4.225527702685976 8.598249711414043 2.70786565456568 -0.7127301080234241 0.48036203183652104 0.17400969085266807
Ni 4.929946850993186 5.816628953882153 0.5039054536329062 1.3612057769431525 1.3425683643476232 0.04370772530059569
Ni 6.131739094486825 7.482624804077519 2.367871816349766 2.3172784578871126 -0.7605541694852385 -1.2170491648961748
Ni 8.289890050608696 2.452586577118306 3.229235859278287 0.3036683663937867 -0.9065964285907032 0.5706848858924947
Ni 5.590224630696179 0.15169023840983112 0.6794047659199086 1.0886986666435186 1.1656078183967473 -0.04669046207800346
P 6.148098195950368 2.9208047449263166 4.326150279360445 0.44932187470126483 -0.12466970696695948 0.014101986619020873
P 7.505001046309262 6.464844246701395 4.047872561683118 -0.5945789189012728 0.20585974548372935 -0.1360182992105593
P 0.6108197031231243 3.86727278241682 1.1288156081143137 3.8181766404583017 2.3353921367686876 0.4019179314960046
P 8.376536877670775 0.9644912544477527 1.4603835688982578 -0.6253845914282197 -0.9584697204212266 0.5770062001248321
P 7.3631939616112 3.362970573564511 11.87366618591002 0.6997002714226596 1.2901885651943263 -1.8735885846606444
P 8.535492813558209 1.8683692174383413 8.446582977460338 0.041188044202535516 0.06259376357182124 1.4331295596666478
P 2.0792229924514984 1.0755545105332938 2.6723090535168432 0.3342079297435406 1.1571476034445363 1.529275962382934
P 8.755062040902805 9.071253386489264 11.099544102872684 -1.1707672511104998 -1.6301835339332893 -0.33745703280845757
Ni 2.8918472549793544 6.779803958786862 13.091700948764819 0.06866465235624948 1.578646542396262 -0.14513054592447264
Ni 0.3547160893548582 7.866189322702915 1.0797270215847423 -0.4518060745756994 -0.31436389843441986 0.6209152428029564
Ni 9.555407575550554 4.158351967078494 12.544584902990279 -0.5635816991888101 -0.6957677691374727 -0.6209954612215887
Ni 6.234594594493243 0.6528372090718156 8.737520195207013 -0.443667761739281 -2.2293516148671415 -0.30606000655441484
Ni 8.627573870876569 4.941153775673959 9.686578423762578 -1.0000763402184196 1.1904187067928402 0.07060300702954292
Ni 6.60071880667331 2.712893727820107 9.386256346774003 0.09812923747426971 1.965617108553815 0.40950525692495926
Ni 2.753547035135258 1.7447357782167323 5.966754735692252 -1.1377571147330663 -2.155028992894166 -1.0237500296862756
Ni 7.695631587271797 5.8488488623393735 11.990588632818596 -0.01740739684317002 -0.5455469531742863 -0.2065763119347797
Ni 8.680618727461232 8.91555046732964 8.79642800332769 -0.7859394423275626 0.08569563969660725 1.6570291933712233
Ni 0.7372934208229722 3.433211290250795 10.195495967619745 1.440219890854526 -1.213751725091826 -0.43989235385724884
Ni 2.878120652601898 5.667798737693707 4.0751320897195535 -2.0572142013365218 0.7544028051718621 1.5042884391996607
Ni 2.8027183573503924 3.0180567825923483 7.7754019506497185 -0.7758062105483026 -0.5624113330297927 1.762455221617223
Ni 2.168182657996355 1.0100052832897153 10.606561640090552 0.05685711819836015 -0.11521858885638867 0.9339061721492498
Ni 0.5332728612947021 8.787366565402078 12.76473798102504 1.5894289777237465 0.5086673065391176 -0.0697519718831573
Ni 0.40794804141028224 2.966149541684173 7.039864782788465 -0.21313365343732327 -1.0206410517436488 -0.048168075064794466
Ni 8.39288657735187 8.551221995597581 5.129073782756069 -1.1318798300166828 -0.47243094991490253 0.5797282270416855
Ni 4.462640656082856 9.19449195084796 11.98379114410702 0.39633143854716263 -2.2373292337559794 0.6310075940419521
Ni 8.95257468661897 5.534274623334369 1.9846156761887395 -1.2609821188336994 0.6251999862212394 1.8986097892953302
Ni 3.4546191488901568 3.310217172235808 10.221901813809692 -2.9979199129061076 3.701330543300819 -2.8608016957631506
Ni 3.9040713589273435 1.7700735819203244 1.3419352126979962 -0.3570359833816496 0.9835264062795382 -0.12170316813946781
Ni 6.522016485781744 6.280973587320635 6.477089128164682 1.0122008913960956 -0.5353694984206522 -0.6044306148843719
Ni 7.268527414119004 3.941763104770646 6.062996081744875 -2.457627780372858 -1.6626133723272205 0.6727016313466285
Ni 7.449201467466658 8.426827011997498 13.156278031703035 0.3410249526653739 -0.8055757285012513 -0.20189870395345227
Ni 6.803910128989463 0.41236593898368407 3.2142089903879523 0.16512524387884464 -0.2676659801572487 0.25710311703973787
P 2.226501914535643 4.995825140622525 9.364542930205005 0.06527850949283595 0.6100621021385365 -0.5384517368904017
P 7.564138257921727 6.275906026579916 0.3203920619852575 -0.4046695260992127 0.5151248892390031 0.8554304472398493
P 4.111230233437528 6.963787439557026 6.477625969942595 0.8700700515298949 0.6774301471705494 1.5835491219042017
P 8.333119446315232 7.569074193708142 7.124257062418959 0.13399021303693698 -0.13242158299823648 0.001972550345338538
P 5.175775256721506 1.9092763728796507 12.941023282324887 0.5028126475305534 -0.5503855122135102 2.6403686804509365
P 2.1451012820808377 -0.42205635615522114 7.012880726977823 0.5514913436831792 -0.11088396603677678 -1.2560119193126176
P 2.381556110706196 8.21146038140819 11.145490613707361 -0.20417567291308708 0.2355014796095622 0.22849522349505813
P 1.5071057267850854 2.5135759398734834 12.076315965557036 0.9811244817062651 -0.16875846975605774 0.1463605616768318
