# total energy = -340887.4274163262 ev
CRYSTAL
PRIMVEC
9.14310958269064 0.00000000000000 0.00000000000000

0.00000000000000 9.14310958269064 0.00000000000000

0.00000000000000 0.00000000000000 13.38186507395316

PRIMCOORD
 96 1
Ni 6.949631829196599 1.8446954901624761 11.565451124380738 -0.37987637831493287 1.826133219392158 -0.18618746386578258
Ni 5.180769289377641 0.673478704173916 6.047465669754769 -1.4559439864580022 -0.0444155500008977 0.07372946847366657
Ni 2.75886929533449 1.6926638650947134 4.51718251539141 1.3601462253303866 -0.8698049707939665 1.4599513078451825
Ni 3.6036194699352073 4.405470174676775 4.479833827320727 -0.4127913838753988 -0.3414597262099474 0.8667019063886104
Ni 3.9904644336480435 2.801887625617376 2.640135046509918 -1.8057096614304837 -2.0798548215541732 -0.32856127298072446
Ni 5.120790490938591 4.612369599962943 2.6193664732394457 2.3853227030505435 2.214947009406037 -0.7441176211957701
Ni 5.5253182284595255 2.897542837396239 0.6710393225544742 -0.5850534959093409 0.3655170242694673 -0.12524100608939723
Ni 6.1806140307347 8.429508106475456 12.196967527421116 -1.4438649438062812 0.3674366098896833 0.4497774741814447
Ni 2.1429254364254233 6.837464161627961 -0.05271094068307424 -0.023192636066379415 -0.2415302023021453 0.10690081301931266
Ni 0.9513131160347306 0.46132930540242756 0.1006994653000251 -0.7005389652738709 -1.3357629113900156 1.4007894527730456
Ni 8.260753734099003 -0.31481554692886715 6.86677057056648 0.067975853819341 0.906772034936619 1.4884697269998495
Ni -0.2645028438724031 2.9057716359625716 1.4772640908895236 0.6356517776821827 -0.019234679859895906 -1.1242228276920576
Ni 7.222389072341986 0.7721008549914179 5.038955089196409 0.80134600669062 -0.04035552099891115 -2.429697629621493
Ni 0.8369255014750863 7.917905413387493 1.9974841646983414 1.4309299809121678 -0.8644339362900403 -0.34795304724377496
Ni 8.104004264519876 4.3252485317645455 3.580693122818452 -0.12472627123650777 -0.1879414704424118 -0.43178386581750156
Ni 7.888327454096285 4.19934791369965 12.597286691630845 0.645509644312869 -0.7738259468934802 0.9447202320456182
Ni 8.443707355557141 7.19492317134947 9.19826532631609 0.05614260862983879 -0.24449674112963696 0.43864228350023166
Ni 7.2769460068367735 1.1545552975136393 0.46193000769776993 -0.013168161950841839 -0.4382141948238776 -0.19224858245819793
Ni 1.9579146153257012 6.76781195331871 9.212396916387338 1.3662999036366081 -0.2505858847465104 -0.8153906577091441
Ni 0.5758357803858077 5.285339032936698 1.2271259863810826 -0.7323679368590097 -0.23728711075507516 -0.3351697794361776
Ni 7.084721272327233 2.027749685825315 7.0292262547958835 -1.8376083099112934 1.0830352977101543 -1.0468238807866037
Ni 3.5299808658760448 4.380683204773076 0.08572945208596161 0.5080975500785766 1.2609006148634865 0.6810024379028401
Ni 6.4876213621350685 5.957284437644421 4.648472082206301 -0.6290286159387102 0.16360289369704725 0.1001598947510533
Ni 5.360979977980335 3.1894000363250368 9.263556271385182 1.2405894141099603 -0.2677135455657325 0.536740667736566
P 9.171910313130027 6.100556963793798 12.652914284250208 0.4754399119445555 0.21222245447696353 -0.9836886428890155
P 4.478724768136176 6.306880373180322 12.50633012383336 0.8744656094944295 0.945245765531785 1.3004084431501217
P 2.758183562120629 8.717625773611333 1.2833286805891373 -0.19595585610645608 -0.304336853215721 -1.0318029818977392
P 6.446550514179549 7.9237935759171805 5.759166969050434 1.1432978420456374 -0.14752192897478464 -0.006918838607020342
P 4.885830862541227 1.4201169134682439 12.607590061746846 0.1272914608605227 -0.3376462660011281 -1.12439200628007
P 4.213300298824342 6.609453296464389 8.105248641725295 0.24247996780992434 0.11173448696253013 0.4558275370302666
P 4.645303080447311 0.9825459781487237 3.8704501494909307 1.2819733763733858 0.6950537737895837 -0.4542625065359918
P 0.44068690704330515 6.190132007743093 3.2172545194720743 0.5242726171765422 -0.40847758699139325 2.3811060938660344
Ni 0.6719563764391444 0.48846879738514587 4.583543204274126 -0.8678840996221698 -0.6612699924709191 -0.8783058091761261
Ni 1.998839173528931 6.716153384541174 4.765817492695066 0.5076028698303452 0.15964030950487343 -0.5763868213732783
Ni 5.960758819261317 5.651099986100685 9.266111770495504 0.3453696027873149 0.529644680121733 -0.12944681664062865
Ni 9.314634252708316 2.736898403162381 10.299540067423672 -1.082167293282904 -1.123584165666794 -0.5661471459231411
Ni 2.9533615210045316 5.290431744938306 6.928822111933294 -2.247812135565174 0.8190441953013313 -1.1649799550047615
Ni 0.6393072466607903 9.133500110044288 8.913847875602208 0.561467995279917 -0.3062451259820274 0.7306812931852061
Ni 1.650148405835326 1.1114455361355722 11.486671349839522 0.44917146516632966 0.22765961496764014 -1.3758692924925982
Ni 4.279048399369344 6.8634305926595 1.425837757093749 0.42562607374622186 1.259020110011322 -0.2570565800725186
Ni 5.941722865244533 8.2585868171432 7.910689671355771 -0.7851714538132863 0.024313379934383934 0.3796642623041268
Ni 5.711499367577569 3.0156352399326365 4.71956981613037 0.08136744463489858 0.2409249646179786 0.6295402654678061
Ni 1.1778336543468437 7.545095122785015 6.915868154367983 0.1770299657362306 0.4791294449810006 0.14907667505641423
Ni 5.377236426703601 5.07498351225267 6.789088883478392 1.4110568961373247 0.0738971043997824 0.19161866218368287
Ni 0.8815447902345996 7.598436023713889 11.076558086713952 0.1994623265978178 -0.37965860587717193 1.531985648004613
Ni 5.241461250359107 0.7758943311304974 10.300637240565852 -1.6740864059638267 -0.6327276620568523 -0.24714960537145178
Ni 8.615561242060249 7.451268532909781 5.083436317002198 0.04890032524512869 -0.340965045961716 -1.9915263722204088
Ni 7.653221535946631 6.362059039122344 7.059402173449579 -0.6773836102033302 -0.7967761279317503 -0.6540390219401188
Ni 2.556294560850406 5.657353873011098 2.55354065626354 -0.052555148388896585 -0.2123283839272085 0.0009132558428887498
Ni 3.1463908491516692 5.4771340412988865 11.172746341777723 -1.6293016455489684 -0.29596379866067735 0.6328844993496907
Ni 1.2624805622658568 3.089374418196499 3.6644494918703967 -0.9052635687118926 2.2260482615255213 -0.03911830615770038
Ni 1.7044036177160153 1.2810502176972152 2.271705219677584 0.27780101170872157 -0.37074202011383245 -0.2832185831798671
Ni 1.209633389250962 3.6776420845941327 7.963160148258519 -0.13366805381082786 -0.2396306712865873 -0.16076156759351024
Ni 4.079417746150104 3.194538463874236 6.890282076692397 -0.17270305622610257 -1.1065817175715267 -0.3178084053395946
Ni 4.240766199816859 7.13395691708246 5.896343784084062 0.40081852778423877 1.2200360154386407 -0.0004905664831733487
Ni 8.209735182987737 7.951030899171743 0.0542981844954247 1.0422773990665017 -0.6182415526255353 0.11258603632954803
P 0.4413186959110092 5.80326875781122 7.976407599639362 -0.09273300615936288 -1.2550279581327934 -0.38219371359419985
P 9.091953820393824 1.7256613473457092 7.914529777353393 -0.9886341598197489 0.992393369751865 0.5647880607920853
P 2.025985065688312 3.866090714872678 10.149073742705419 -1.0339246562264324 -0.9143968984717284 0.39299208976128447
P 4.368724017523339 6.331383906688958 3.8553960196693007 -0.05620251533349675 0.035538559226242016 -1.277901006076225
P 7.225836024630327 4.071938682564259 10.442592244633662 -0.6976593297332307 -0.13449903435255547 0.1708346355587961
P 6.703718755596494 8.118066366958788 9.948292886308794 -0.7547162226472228 0.3234566047643075 1.2836147686315507
P 2.6149750377378793 8.728579218814074 5.571874027814982 -0.5011121198996789 -0.23868784775734378 0.41021873805221604
P 7.0864858924642355 4.167301314838541 1.4134461007638033 -0.1555720529727708 1.2886495028419807 0.5854023946083273
Ni 2.8350131114016253 2.108647918841887 0.042225622687662265 0.39772677623279246 -0.9369395596589347 0.6535109173507907
Ni 1.5946405879506504 1.1364519406677067 6.6859948377955645 0.592209904448464 1.0314682242661395 0.7868892078353416
Ni 7.205949761428355 1.302810818350407 9.09370015431179 0.8776992859403786 -0.9120381684315647 1.5376040226326553
Ni 2.3992616548762165 1.6837767626430737 9.21919481831408 0.7786853318683106 0.5509763517199737 -0.2087041569110599
Ni 6.363933376573565 1.7352890416683189 2.7128255101120495 1.1516994358457713 0.7435666337883066 0.7009673110605411
Ni 4.3369059964001835 7.223678250784045 10.300917934028057 0.8170580181092381 1.6233215167061332 -0.5209391819279351
Ni 7.2235411041412725 6.320156168200673 11.498260241153774 0.14642946724155428 0.20341951147335288 -0.9386696549761642
Ni 7.739596491564574 4.146829892627408 8.318755792260228 0.6617312483780539 -0.10890293105100599 -0.4511833533900359
Ni 3.609535061793449 8.568913097298658 12.339658551805137 -0.05076771747117063 0.5583024530677416 0.4479141957204609
Ni 0.09809642202020841 5.105439210057621 10.535087597763052 0.1467786230508569 1.3653012871687649 -0.8564118373165122
Ni 8.826373918220183 2.5774700024944366 5.647214164555471 1.572420616091208 0.7234287253878509 -0.6415264912954048
Ni 3.6919053354424434 3.0163118300369796 11.257213130439226 -0.4211991483231198 -1.4926074033173067 -0.33673480993045235
Ni 1.3431776468730299 4.057428567758959 12.313229479431978 -0.09478294670985611 -0.6972541238750121 0.9343394030319263
Ni 3.2806025537685617 8.821756647913519 7.937158973410809 0.7330109697596473 -0.49900690063121805 0.1117249738808334
Ni 5.861501222332303 8.216619944454903 3.466183904902216 -0.2205625989115427 -0.010272585570601664 0.34398094996990436
Ni 3.296721855849056 8.313180324076061 3.496252849174549 0.16914207834772158 0.3677243163334312 -0.6464097875296352
Ni 3.598215892209982 4.664924193473257 9.052082548407085 0.6000008612477925 -0.1304775718979882 -0.6272630393978552
Ni 5.452539076695068 4.248793849973793 11.937292245374294 1.1097575441963468 0.9457378746768551 -0.49123291311275397
Ni 8.184719635346084 -0.06019183289082282 2.4613397112606332 -0.9870632157882033 1.310130555533892 0.9238264193157444
Ni 4.780621101315901 0.6080140400239773 1.5268170015450295 -1.2070647999899533 -1.2475229080049999 -1.1201517429464773
Ni 6.358154931358095 6.0851325380366825 0.39974040537723177 -0.07912621400920566 -0.10790251481094966 -0.40070771323798726
Ni 8.259373124561762 -0.08892131161874703 11.22295572769663 0.6014918439710222 0.6889831421154715 -0.43950000351483665
Ni 0.5596533908496378 5.197592610891032 5.667152543481697 -0.9413495158011723 -1.2832715263595191 0.6112154990166893
Ni 7.670383152512195 6.61487516040865 2.480275091072717 -0.8625688580568436 -0.20290837616488927 -0.2625577123964059
P 8.460786684137041 1.9935361700084053 3.347874810670238 0.3819574292136777 -1.2038794602834362 1.6924145148490533
P 2.1066364347478945 3.6776786570322053 1.568581811512977 -0.142935852265999 -0.9473273306511619 0.10750347960031809
P 4.778719334536125 1.5687655880142921 8.019551190522646 0.38369755183323595 -1.6466820458089448 1.002330683470235
P 8.973011108672239 2.0231872741757586 12.514372402965522 -0.33048317259378573 0.31860904686401903 -0.18252132786810502
P 6.447803120183535 8.26416411394927 1.2760781947412463 0.2484950636557527 -0.7272267589777024 0.07320882008350618
P 2.171845091831325 3.4385954862421566 5.871039314181636 -1.1775961011068752 -0.2287271370002061 -0.612948422547396
P 7.3898634093858995 4.217771279378717 5.809950542247082 -0.7459132796436122 0.4174839042550617 0.5044283287571055
P 2.6478170871270663 8.731395296545664 10.215728839714618 -0.3553850780417879 0.5447229146110941 -0.135263937543038
