# total energy = -381161.5556393638 ev
CRYSTAL
PRIMVEC
9.38213305192503 0.00000000000000 0.00000000000000
0.00000000000000 9.38213305192503 0.00000000000000
0.00000000000000 0.00000000000000 13.73170008204514
PRIMCOORD
 96 1
Ni 5.142121949243309 0.41449419388518216 6.706438767050246 -0.5723725580075626 0.9205413208065695 -0.14004464676113304
Ni 8.402244303017172 8.55408474417233 12.554797028192835 -2.303383702182891 -0.6210985624583562 -1.3331288162012782
Ni 8.74984295009808 7.154758365192514 4.606724897909665 -1.129732444656377 0.2443152212464502 2.579526352352583
Ni 6.290194805352691 7.553330141091759 1.272629116164482 0.8022620907469861 -0.1698470748345462 -0.5864899712455512
Ni 6.049505564287787 7.714177429967438 9.097951985216483 -0.8456160322525887 -0.2417222637082934 -0.5054161465916716
Ni 1.9271182732694434 5.188891882458736 11.305075328064218 -0.11797326878339037 -0.6736814787613946 -0.9616416903913051
Ni 3.3401707128900147 8.569715377820653 8.139176798219985 0.7497953883068378 -0.3512795405138467 0.9479778197509675
Ni 5.051274754995572 0.40103270939621655 10.107657143219324 -0.8691233713459096 -0.3548214922288341 -2.394039771208567
Ni 5.872389656716912 1.3261175948514359 4.540194316080731 -0.20074607840624784 -0.36464233497399784 0.24345955811437425
Ni 7.363839200038205 3.2155103111581456 9.720684498400166 -1.0005131706455221 0.31910115600908917 -0.4467782823438047
Ni 4.486338995991827 1.0258518089684874 12.255199250182493 -1.2698714509035292 0.4181865867490411 1.5688007599504337
Ni 7.512733651418108 4.752087914412478 5.268180288798468 0.23459388019362823 -0.042742018953216714 0.504395418636641
Ni 7.7069813339240625 5.4370774478243655 2.361440667126036 -2.544654480176063 0.6459045657584424 -2.669178148483461
Ni 1.8809863251008878 0.8502332898311489 1.8310808830227543 -1.4783082130858152 0.3732372757318604 0.9636558926078566
Ni 6.98061659379602 5.533328750704418 8.0995063250776 -1.2703946703968507 -0.6331277257087484 0.7959618595605712
Ni 8.697396826392115 6.888831186244061 0.4356996909871894 -0.7736896784259321 0.3694248439643057 1.847129362027851
Ni 5.158803381792362 3.3972516103188313 8.212037505212498 1.1303009155653374 2.715245889375801 -1.5889957468410698
Ni 2.643059463587589 3.1692094845948295 9.78140566344936 -0.7236392987367601 -0.1203610522892766 -0.34232721641656527
Ni 0.6567014640763151 8.908982690760077 0.26574985663395523 2.182232035671519 -0.0027749916419758662 -0.1582609126588436
Ni 7.984317186651845 8.960274812101849 10.111845327409368 0.9645573213762034 -0.918638704467218 0.6086603366950033
Ni 1.260264403028151 3.445119253100197 2.3007326370631 0.46124562272204433 -0.1386588221571999 -0.1573106329304323
Ni 1.8499783753963774 7.312462639499053 6.841984319537689 -1.2126649197855501 -0.276184302040905 0.3152730405122506
Ni 7.106393469359912 1.2068425374857965 8.85441995783979 -0.9266201800107978 -0.17941903479369745 -1.4733806938772107
Ni 2.560346578687449 0.8768025523933886 10.410002009784426 -0.22039727697827202 -1.4294449117262091 0.19555090735855354
P 1.0958612857294723 9.23556535982643 8.927705675459116 0.3218434946409167 -0.9139410418812325 1.5514041617405412
Ni 0.2993557189778539 1.080615319535878 11.90361225834534 -0.734636164067896 -1.2143572198863086 -1.588370454552245
P 0.9869441032424348 1.8176100164007465 13.71542786937922 -0.1356359761704761 0.5285869282811799 1.6465563188643577
Ni 3.317325218932228 7.126217916478105 10.311010185842745 -0.19747434963351151 0.3843318429831252 0.07547139086543776
P 2.677313631324704 7.844598461387226 2.332974337262661 0.20077616031323486 0.615383771461766 0.18336516392563906
P 7.089824622407366 7.034244866265302 10.926039029585468 0.47241500907530254 0.0852914622796531 0.035595637716422567
P 6.0845947418656605 0.1757939650252279 0.2858294977708971 -1.1742757784843905 -0.46403321276951054 -0.8999331576379146
Ni 0.0690515609773751 7.312978656816375 2.483488144805649 1.5250446979104058 0.2636990250897007 -0.1187541128134729
Ni 3.9122181287397564 1.6477934083367118 8.295745834428416 -0.878267756849339 -0.8005592491232664 0.4735270111925587
Ni 4.01017697983349 7.152910084983199 0.3480396073338913 0.4564790545713364 1.1865923910682146 1.2590990428783735
Ni 3.9719635519525616 6.51245753712269 4.248917551865526 1.7737608764380293 2.930378061300392 1.080055903366856
Ni 5.495180997754784 5.5531062871574 6.222258779994035 -0.0270955706652114 0.19591986066219808 0.2134794668125162
Ni 3.3088531527951113 4.050416948451537 -0.10088232374968728 0.2677456843552486 0.4593147242479186 1.5685022548734084
Ni 5.745862210509643 3.1347582920638275 6.138056012366792 1.3594003483032975 -0.10595773237975299 -1.4660533069778623
Ni 2.0490015636208176 6.751476758506079 12.889095563473102 -0.49206157966163644 0.3147847880219224 1.37691650281019
Ni 4.948596690981605 2.755251010506358 1.3543671974415359 -1.0880484346540293 0.08828114103559634 1.2022087574492328
Ni 5.36562312257488 5.086026175783926 10.079287449326284 -0.44781675091064815 1.4501518052562574 -0.6751673192783018
Ni 0.15241181305742751 6.791763637789337 9.156283520979827 -0.010735384139633125 0.34073004713277444 -0.21264437250573057
Ni 4.329647992053847 5.954699109896238 12.167055048464217 -0.786841899537174 -1.378116179545246 -0.49019213055306543
Ni 6.588771807288041 1.5150268436563719 11.298168201718543 2.3984836659125337 -0.6418172830629463 0.1542484490653408
Ni 0.2966696142878687 1.9966492612452755 9.27931987548209 0.024241389045867926 -0.4830935718350712 0.03694700953799444
Ni 7.732322475271077 1.3681214044814185 13.438006639240752 0.8199911325956329 -0.08451627467652541 -0.2444995693431144
Ni 9.144633726381313 9.419567753050288 7.215884838389133 -0.8752834774100345 -0.9714774455348043 0.49035719537602
Ni 0.7961227757234962 7.673290094169479 11.100925742345515 1.3595222185931426 2.4319136634362057 -0.2701815474902508
Ni -0.18032272064470356 5.134597478543456 3.7125851018675724 3.598733756973499 -1.6539582677553837 0.9398693317112201
Ni 9.025574458075644 3.457062708462932 12.307681964207323 -1.2789574723651973 -0.9111837908510694 0.35391440703353244
Ni 3.514725298140366 2.492391789062708 6.005779195031255 -0.219007595719597 0.31925799330192756 -0.1492633371459236
Ni 6.388847934291548 6.467301330790524 12.963919950911352 1.0011981125276885 -0.5642779539248863 0.1289328531186876
Ni 3.226843927873137 5.329576967426703 6.462714405946186 0.011708803796495965 -0.21659307274083342 0.35164489427306533
Ni 8.119335463262315 9.013302628056431 1.4485703806784724 0.5281655244730452 0.3822209672877095 -0.15940916733067384
Ni 8.961156732607817 5.805907861979799 7.201342532173705 0.9003460768056173 -0.32639074769196696 -0.8809959544137794
Ni 1.807664955376002 1.6997328968583967 4.441243773524436 -0.8441415045895914 -1.134663563409407 1.0031763192999819
P 6.933771603516256 8.996949570163856 7.341090342050755 0.6829029973596626 -1.1320106991675924 0.035008140644068736
Ni 1.8070926452604272 2.8193872719829183 11.888754712459695 -0.087208733907024 -0.5995676303651157 0.9723955864736995
P 4.222194422321394 6.29307512019665 8.424933115353152 0.13194618602371472 0.11583102562940696 -0.6244646507171117
Ni 5.004814432170539 8.28173080408996 2.8846597097708906 -2.324950372610073 -0.08410027018502936 0.9534249589084677
P 3.1688998742044365 2.7868406524594853 3.280338035839917 0.7684009192231669 1.7945065936258127 -1.103225142394468
P 6.235365619854004 6.15436966530059 3.846455005393677 -0.20268803262396703 0.3134285311043441 0.3544162863706154
P 2.861043942690339 8.565859321140305 12.137806248705122 0.8065607181223399 0.7004008970341098 -0.5239921098216459
Ni 6.378002188494752 0.836392767167278 2.331614866184845 -0.7221647710737628 2.1181694008636556 -0.3780825196393037
Ni 9.26793371882206 2.6293803136120437 4.547664370408941 -2.3819674134250652 1.5709851691962622 -0.5745456543994815
Ni 2.0633374629093177 5.221701201707351 8.738922147236945 -0.33945349441319606 2.802102639260045 0.5001911507473064
Ni 3.718083031830308 0.8207264814133926 3.6396971866892365 1.4822011203823182 -0.9414238206825335 -0.8843826114978253
Ni 9.16429867723779 6.058822022398704 12.250612325338155 0.3675206849630574 -0.48087496691719767 -2.9816867388766974
Ni 4.961544034579858 2.8381233916682156 10.208256126551136 0.09403475568992192 -1.5127679374255816 3.151813806845507
Ni 0.6410361165357341 2.837391585290923 6.731609153575892 -1.6527112827221602 -0.3833491673548817 0.5739216476622374
Ni 9.268712435864565 4.310386472918185 10.026283088704309 2.098229981627251 1.0817204355534726 -0.3990331537490418
Ni 5.296401744989441 8.267488726131884 11.755914028928322 0.18652324993864652 -0.8940481596120474 0.6616332893476089
Ni -0.12307106839451834 0.13817536437917521 3.6571911119597447 -0.15770298327284454 0.0022216902416671413 -0.3541190668451708
Ni 6.7950661486201955 3.3905996779919034 3.387624603604218 0.7149209450271559 -0.8576441670617164 0.22632032733092636
Ni 0.9060194529001406 4.736945151682347 0.10133360434901768 0.31635213250904226 -0.2375653041171263 0.9487823179301337
Ni 5.324444940652613 5.240456085658732 1.1956524674063504 0.012520243954197792 -0.41911424076963305 -0.02379041755137838
Ni 2.4995691208400004 5.757308412821142 1.6849757397963017 -0.3426799717702937 0.2719903185642154 -1.2783116112510822
Ni 7.142261363980288 8.522382516622695 3.6103526891731104 0.6233811878449458 -0.8368583406646167 0.24366524636727718
Ni 8.76010700364626 1.9133734483626033 2.35331104884496 -0.15990873267491168 0.1549002237167268 -0.9747522596313342
Ni 3.3191641170085022 8.831392450500985 5.529659398471608 -0.24593861578248608 -0.07561922929721171 0.016161440251210874
Ni 7.5949117547348415 1.5040591301300261 6.213882411613947 0.004096795777192945 1.1042384141503305 0.15412117945885714
Ni 1.039202584287555 4.898252165077096 5.735044611111972 0.16926137753440526 0.3123679510503137 -0.599242128704897
Ni 7.38175907414883 4.805059437568806 11.31125440088582 -1.1964381735140426 1.1075569370006022 0.7480737776300407
Ni 2.6830836431456646 4.964349292359479 3.7390183235006997 -3.72264961649357 -2.2223062779845857 0.6526902212217082
Ni 5.915838314835395 7.763414864172966 5.5008224743530665 -0.022229500822161716 0.5731518593757483 0.1701463512425199
Ni 1.6495384850825632 7.272794980996581 4.440076636173984 0.8324280728074049 -0.5556675865480559 -1.0125068526722885
Ni 7.211642237827445 3.111922180239084 1.1013348221462989 0.5086637069946918 1.9613758167789577 -0.3391151372371708
Ni 3.9379157911423746 0.5902525068048496 1.1216255612766903 1.9672356179938444 -0.9497338832101258 -0.5858047722530685
P 7.890702263156655 3.5640284072771893 7.646648589182815 0.2845738116561809 -0.2835610541209504 -0.8819390350533391
Ni 4.772737989238386 4.357512927189216 4.011166794869443 1.0504007995045845 -1.1884060472381854 0.48891712049538383
P 2.376316039064463 3.522259150973262 7.714125828235706 1.038732876248353 -1.683747326092358 -2.1782416835652034
Ni 1.92536381439055 0.9416753113137626 7.256118239514049 0.5395369995347805 -0.13017469594558873 -1.145366294538892
P 3.6544815519371543 3.7539603085837263 11.65299484409517 2.258809772227258 1.0382402528826506 -0.8250549202717854
P 0.8635606098176108 9.102733120214793 5.382867483106466 1.633949942954257 -0.3331488923514069 1.4747292374853054
P 7.945343805994497 4.968205349039828 -0.10477027968237988 -1.2077687680355136 -1.9228956584258885 1.1630071475491066
Ni 5.884501990474408 3.05116348665772 12.874251152573716 -0.7015877182533594 1.1019822711263023 -0.6049690038863452
