# total energy = -340864.2083665631 ev
CRYSTAL
PRIMVEC
9.26442117196187 0.00000000000000 0.00000000000000
0.00000000000000 9.26442117196187 0.00000000000000
0.00000000000000 0.00000000000000 13.55941684720985
PRIMCOORD
 96 1
Ni 7.594574192322163 0.900599024494739 1.49876286930389 -0.30831537824749483 0.7399087253207451 -0.3091928957564417
Ni 1.1564777079397623 2.4047473018866317 13.8007748006179 0.32860421040351795 1.8097555493650832 -3.773383138292695
Ni 1.4722740359902524 5.257586867651518 5.637802422605703 -1.5175039094486704 0.8784870719489967 -2.9937925210012954
Ni 1.565261032342022 3.1754545078748464 10.730936548178885 1.9645344170125971 2.436870236110532 -0.5466494422098457
Ni 6.208255456934853 2.350633817210863 3.1573370056266126 0.01719630927362845 -0.9859854093429921 0.59096626184935
Ni 7.540340270169803 3.0960398886930816 10.784210676287007 0.5938314992122871 1.221908035650373 -0.9912931947091509
Ni 8.933255273505948 8.820655497311925 8.831519884142823 -3.7100586672024365 -1.2434227697936973 -0.6569916768105395
Ni 7.33778296338141 3.2427049419206266 5.413664572895939 -0.41671463018920485 -1.095861245830229 2.0870523677438766
Ni 6.767418867496515 5.085676266445636 6.697009265795464 0.22278531759447434 1.1714869028853439 0.6372887990649734
Ni 5.251583522664375 7.997289320788346 5.618168334594515 -0.8635317361907451 -0.48381656604402484 0.43757861812240767
Ni 7.677657522329405 0.6159700625024956 10.368913537285271 -1.386763827917915 0.7382727323792188 0.80141439803471
Ni 2.8753243162028403 1.9490489481404087 8.976320935809545 -0.30369690563887697 -0.3678991513483987 -2.0766530267874237
Ni 7.457201353634903 3.38461734703335 13.330628581891046 0.029559201714355547 -0.858168672106619 -1.2289767695716964
Ni 6.493034502551774 7.9916565526522625 12.87054445111255 -0.5675931343410482 0.116434977761993 -0.1301690395186339
Ni 6.443506906407851 4.732488734123376 3.2395615237815254 -1.0685674431112824 0.35789344628593844 -0.9893388991962575
Ni 4.94996175916686 3.884655221008682 5.396743107434496 -0.2051804600285176 -0.021935880841142865 -0.19312095776082225
Ni 5.4911058703458195 7.0748864808194725 10.339774153044441 0.12014636517530922 0.30420855516797285 0.9372054117258117
Ni 9.302775980538597 2.065919622542877 11.776082779197372 -1.1133642877109986 -3.133633022171422 0.3160070904647977
Ni 8.328279299732221 6.224292170164395 2.0172211921031957 0.8644236518773952 0.5670136076884945 2.089252717829305
Ni 0.5729664718214512 2.9157357218107327 4.82540346798919 0.4301368171323818 -0.8421931226139691 0.475097183893156
Ni -0.2293500131198971 5.16595247680611 9.36380813502362 1.7849888839433645 0.8771724669026313 0.06449175192548248
Ni 0.44109947869878674 1.84106285374206 9.074870290695698 -0.7771275004628875 0.2981739189381188 0.3868677220311014
Ni 1.4482606560416833 7.779695858268269 9.728420551664001 0.7182656931296727 -1.483742239617193 1.8757619381628794
Ni -0.13406358740731164 8.58265251471982 1.7839717840680391 1.5089724749388918 -0.6564080363929277 1.7194980013294063
P 6.871439789588541 0.6630889091145411 8.039609197179187 1.1165871655236705 -1.836735677498353 0.8338542637309704
P 8.013937485822135 3.411150649569114 3.57480479853342 3.7022237445390496 -0.5013738582014978 -3.0105957086015636
P 2.1226178807547758 5.65277928604122 9.824746445443806 -0.2578615924723172 -0.6251796745062652 0.02392951423240395
P 4.334822715252862 6.559497460789055 13.090098265174724 0.7732747023757005 0.9006278697120941 1.5410768116726041
P 5.215266991260675 0.9827512801636955 4.6962500238584 -1.4584862932638818 0.48236569253011113 0.9933498201278634
P 2.903275075193902 4.127531289192202 4.595123306973138 -0.44642912653450206 -0.4569174276603357 -1.1770852229087276
P 2.459194305728352 0.21357363012822347 1.2711582731524766 -0.3922199874819503 0.823182385839421 1.4020474935498626
P 5.675736521964272 4.852333287755587 11.364865691325788 1.0464896373756365 -0.15964750859372506 -1.0493965266097862
Ni 1.3645936674940267 6.779407028628246 7.452146685386469 0.41813645023739604 -0.5344840104919054 0.9662380515127359
Ni 2.7847553338042252 7.777379752949156 5.71670471929088 -1.2105800122320634 1.306775265908414 -0.646981343762389
Ni 8.950459303816324 8.252551920218485 11.665125584895662 -1.4500466471369606 1.0467192368879392 -3.387118854173547
Ni 8.199874420840567 1.0932109750428574 3.830006252783135 1.7869503785451095 0.704377879403987 0.7241620040094495
Ni 1.0662885668134818 6.367047637613275 11.64903050581208 0.2361959345734255 -1.3770617701388026 0.5173861744693542
Ni 2.063029123104623 7.479945507868598 0.4898405254763393 0.06532581779100362 0.0799178566725656 -1.0332996210479237
Ni 0.14595169278925751 8.417421561254262 6.025424882370414 -0.3277567748015581 -0.3984685394948234 -0.3676037315951669
Ni 0.8438831638824148 0.18830028888605674 -0.271231682384363 0.03429183130333449 -0.0722855369382884 -0.30180483082248666
Ni 1.711898292305737 -0.214669611165228 3.7313207109042184 -2.0280177822782237 -1.0877507009079526 -0.007640033043761035
Ni 4.822937279045398 4.204722447267618 13.22464823469905 0.4028191031540353 -0.9698198553267232 1.602694584484401
Ni 3.789592994290987 0.32527012524779203 6.830665218666612 0.4234738032899094 0.378059122600536 0.577173836050948
Ni 6.390227219646964 -0.2447928769456184 3.392390196484295 -0.020849846865815706 0.6815629383920004 -0.5601942707738158
Ni 4.266553194866672 1.2132315526793198 2.3834067074763197 0.6460781152218292 1.5260993644271652 -2.576314273173189
Ni 6.9684382803530145 9.639722982363232 5.893058536940949 0.6057765873893051 -1.4123635307638902 -0.9506242562348788
Ni 3.301293142072922 7.8313635357270535 11.671525447113437 -1.2129929925489302 -0.4392202674908887 -0.21919528625037088
Ni 3.6501634540803534 6.05395652057551 1.6738696958501484 1.4171157007368949 -1.6529264840567597 -0.8875712936384521
Ni 4.837639915611131 5.554956261783141 8.637267204586646 -0.9262229445723791 0.1952346616697154 -0.7708077288924468
Ni 5.617630071718352 6.921791919226069 2.922352371486376 -0.335094446113552 -0.5394444398209742 -0.2069522072169597
Ni 5.172039201584741 1.4208842911697617 9.199467492442729 0.8187875992058351 -0.07867267141155483 0.7842934220837073
Ni 5.759079255767253 2.050744500492045 11.605938903128909 -0.10735358428601512 -0.7306486401750578 1.0594035172238272
Ni 6.552243418929592 7.676907104206012 7.97220497374022 -0.08471090718583475 -0.4603228537974588 -0.23474146151508601
Ni 1.8026247698660518 3.945105569837545 8.221915405499379 0.9409857047038505 0.7643172360720966 0.7784413341783044
Ni 9.032727364751237 4.043994002542416 1.4011353243347444 -1.0562369465703874 -0.31530337952955373 -1.4827418233771368
Ni 1.097120560821521 4.2941148481641225 3.0680214994267017 1.6756210974407981 0.9098267626025428 1.9969783964739158
P 0.2180807710792184 7.513482712889361 3.9160273307771387 -0.9324329300378328 -0.6022863148478594 -0.16355969916393767
P 7.709276992145942 1.0587751211582777 12.862313939250548 -0.8306781799958339 -0.0878013731857004 -0.3509864347534601
P 5.612303029484391 5.937882586402817 4.92076678839837 -0.7144288358820857 -0.29943093127367143 0.5038917395273451
P 1.5706529255249182 0.9025621553632196 5.984760558061674 -0.04407950681771763 -0.8139978911266755 -0.6911680655819321
P 7.354746118738597 2.908055516572552 8.342336206134984 1.1107885565640225 0.7571808821376316 0.04235686769965608
P 1.288866287980291 0.3094742869714378 11.024863283364178 0.9466668142490278 0.5107946372947655 -0.4454040277040974
P 4.830348816066562 3.451775136866366 1.9785626150008082 0.46664031137505435 0.5405546421660175 -1.0037036525583616
P 4.980210094634483 9.202497884642257 11.295631744684718 0.9524615665539338 0.014235169762775484 -1.2228313187955908
Ni 3.9150517872167283 0.4601184091372193 13.104200567241742 -0.6782061061046255 0.9399732042789358 0.29450495472696375
Ni 3.6846271012287626 8.667783281829157 9.357272085813081 0.008775432199784886 1.0525196456198003 0.35666291631294705
Ni 3.9509699485055405 8.689832604467117 3.530736725847711 0.04884607496842555 -2.069888197259764 2.102585944603102
Ni 2.687951395886556 3.307694857174952 1.630628009542299 1.625510296827336 0.9697599486230655 -0.04998147412444941
Ni 2.730678906813562 1.6869677346507992 3.8184127559977803 -0.5254607239473724 2.6283217765887317 1.7556762510221764
Ni 8.864680027217636 7.192748448298521 -0.11028367087490931 0.07988391811083662 -1.2123353043602736 3.239557844430711
Ni 6.833826239206138 4.774224951973803 9.369177793595453 -1.0598141223986846 0.7776448064189382 0.08401542378070692
Ni 8.848356116928523 1.5970843194266415 6.622609477850643 0.045525752345940945 0.32288042054586324 1.2385800969894154
Ni 4.184692768467924 3.617080205702136 10.191339595353092 0.5287756472532185 1.6326430512173753 -0.8675642543889059
Ni 7.336624910721853 7.223598971149114 4.728317891664717 0.43897292736677307 1.82448539937609 0.7908145110316768
Ni 9.326678187431847 4.337898503116644 6.810868076840957 -3.24670525410877 -1.607231038902174 1.6974795880767861
Ni 7.8654473416031285 5.900500646552325 11.863961373657302 -1.1378651010658405 -1.4245207349517146 -1.6446303054862386
Ni 5.682091914959919 2.018550636556367 6.911275874635166 -1.7524672571665754 1.9108909206555285 -0.4288309538367646
Ni 4.413459123047404 8.30706377500914 1.263529022231317 0.867278604827687 -1.082745277273561 -0.6115176036381405
Ni 2.265002771352598 6.599575347230997 3.408023907388311 -0.8710897510436612 0.13893161620261232 0.9909692357108287
Ni 2.9271402244020477 2.536885742552696 6.128801927183726 0.35625513935156705 0.8460438638186267 0.9584496658165688
Ni 3.420878291909391 5.725857041069889 6.202742199833235 4.254530899255306 -0.4577345242449923 1.9471455321121884
Ni 1.5982423720861985 9.186220296459528 8.06051714311589 2.635342945101571 1.7916069034805144 -2.7514634769469386
Ni 8.524694295214324 5.435889919538153 4.486688814585008 1.5089819880205884 -1.7568497025049872 -0.04266745696153942
Ni 0.7738506241273154 1.7970846459427323 2.1411948982983215 -0.6497175117466294 -1.5987348285057048 3.6126148858309657
Ni 3.5082510489676295 1.7102955474249104 11.110802834450949 -1.1901556829394406 -2.4476017635954235 0.206504835266896
Ni 3.2094734628019856 5.192708125452509 11.899798934481012 -0.9155909187798296 -0.2505095229826202 -1.337395304787116
Ni 5.654585848190127 1.6702269254042466 0.5074188384062832 0.09965904385523482 1.342685349541462 -0.06849804487139817
Ni 6.79013522846638 5.420177461053287 0.5867852825974101 -1.1196462640649685 0.8685240471990139 -0.12714465087001328
P 1.4949070171686298 5.6914304516065855 1.4047827269912843 -1.0570483867280893 -1.0153106406696706 0.6005965858502624
P 7.626304835194019 7.142099857180146 9.872651841422222 1.0296519969930074 -0.05719547537438537 0.45539482036822215
P 9.312318334453343 4.12515959734543 12.156993165747291 -0.3966592542002265 1.6337334560680765 0.4095229975367721
P 4.082191211465236 7.3872179153125686 7.773938946887081 0.34425322979468453 0.4056072074221337 -2.1237708062108327
P 6.981426998982603 7.940313129938153 1.4731495238008774 0.08339990168389508 -0.26344114344262376 -0.5425971265173429
P 3.0558415647745476 2.9009404410322355 12.761744014084 -0.4806913901514819 0.7957510291013457 0.5396835524149738
P 8.562854446452038 6.3334826393286825 7.345908787282988 -0.8219284588276619 0.25665625931030633 -0.21130302798648773
P 4.080356856052498 3.696161305717948 7.874739556143412 -0.1478353464501454 -1.4087688714340965 -0.6012727859816805
