# total energy = -340891.8564430708 ev
CRYSTAL
PRIMVEC
9.06698329207756 0.00000000000000 0.00000000000000

0.00000000000000 9.06698329207756 0.00000000000000

0.00000000000000 0.00000000000000 13.27044655267078

PRIMCOORD
 96 1
Ni 6.398044119210524 1.9354472887537841 11.507255572627257 -0.13689890204329971 0.6384478523700811 0.774375134528731
Ni 4.548361424009295 0.31752665637697935 6.027384034915442 1.1034187464625127 -0.33688804767886493 -0.2190271361036228
Ni 2.8143099648346803 1.5747899002624004 4.743268920451112 -0.7147309405035369 -0.7783112363583435 2.3989305236419654
Ni 3.6270289988851414 4.312202781058681 4.960864728812432 -1.752167980758602 0.4824423114043175 -0.7613483832517598
Ni 4.708620351067274 4.614514133022875 2.3736047156625975 1.0362970131133509 -0.028058963019745226 0.5674260126355647
Ni 7.063524413996798 5.890157058438096 2.293677445857704 -0.13490809686551605 0.697939837088127 0.9782219633474896
Ni 5.123271624177059 4.589190049103614 11.330399532925451 -0.2588882339646187 0.17769768122721655 -1.0969999874203622
Ni 5.71093906962746 7.759868719402893 12.521568096489409 0.2422537107317312 0.24563188317534468 0.3394421815592864
Ni 1.992306340045472 6.473871299238013 0.5738511765366261 -0.6058899730387178 0.17631365639549634 -1.255414909158567
Ni 2.6966295906176794 1.4708641394737978 0.48120383607998507 0.11237443453937422 0.23781932910946138 0.02118589004899577
Ni 0.5927186617595368 0.280712891418518 4.974904952209846 -0.11112050752761507 0.3040162366515087 -0.642834411473551
Ni 8.65156117663157 2.3658116436509236 1.2515782454545663 -0.3235687048621395 -0.3931700101000455 0.49255908812334526
Ni 7.020184234571783 0.8090641331453933 4.789835132478517 -1.4927994647234548 -0.6080265597657465 -0.47310277917094656
Ni 0.8442005062223424 7.531344476258945 2.689123035273334 -0.7710157311381947 -0.611586766313179 -0.2352785649654787
Ni 7.461891385381201 4.044735845314222 3.8015185559865428 0.9691459691881504 -0.9049897462252157 0.2483999328387851
Ni 7.616664787637478 3.912684302815077 12.393614830371039 1.0276928163841075 -0.5568942598663054 0.4732346767631204
Ni 7.576407382481189 8.877936544770556 6.8329927407849205 1.8738901750614632 -0.5442588304904821 1.175472369895653
Ni 6.957975663225543 0.6322289475048182 0.34968180539640875 -0.48859084750421666 0.861732221088161 -0.44342196427706215
Ni 2.063627229450737 6.559581490891709 9.125183201407122 0.3038537429317154 0.2204605261160397 1.0098879269922028
Ni 0.20444233591532093 4.694503058313143 1.4406665521150086 -2.2180307905376835 0.826389579922809 -0.5001762383489708
Ni 6.3745969008019285 1.7993972066884394 7.040090796062917 0.05090681415219619 1.370734285258878 -0.42984936779895005
Ni 3.248092572376848 4.297604938197955 0.4304296371757716 0.9820305384603023 0.5807199015309934 -0.5094044418154582
Ni 5.780011347213184 5.547688038132189 4.727424367408182 0.32388726454382283 0.49260176843582265 0.026185400146116193
Ni 5.303323775436881 2.818462643114316 9.330742589645698 -0.43292543562111246 0.6011506585815195 -0.14451630937924143
P 0.4030437212897225 5.57073630928248 12.61621289333252 -0.7638030154398394 0.2685319277019698 -1.2406164106931536
P 4.019801641670124 6.194898361884696 12.663588786954623 -0.866816577589604 -0.5051171272940139 0.2166090135804334
P 2.348330500150625 8.441533579099973 1.4364594719365136 1.092872081294918 0.6724342366178548 -0.8772930516408957
P 6.295287999247408 7.630265262352441 5.732647240669169 -0.2824068859118491 -0.21412661347821185 -0.9753937498700752
P 4.670067538741926 1.1214135421475433 12.72836150113379 0.544988766677971 -0.6377564827300113 -1.9249183452828718
P 4.111604845996123 5.99981315257327 8.373545712698188 -0.16268346720657142 0.9589893403701225 -0.560106596156016
P 4.6907583942749564 1.1362017916542797 3.66243103456819 0.5201585950081686 -0.652891795709553 0.18246296382634383
P 0.0381058100563828 5.720278062265067 3.5852501539574044 0.0670890803390135 -1.38120741687606 0.33574133566893144
Ni 1.3427567346419915 1.0401008373183525 2.6631796764053854 -0.13729202371666036 0.8194774261840081 -0.7100672164792804
Ni 1.8839830924323646 6.5703893347985325 4.767009909113552 0.3536832648593328 -0.07138513661120609 0.1286186643123785
Ni 6.347731429748305 5.651885808415091 9.14495647824605 -1.4502865310619086 0.2208816728138583 0.0898662261345291
Ni 8.611557647003295 2.4726751069779582 10.216080905087546 -0.14724245006115286 -1.312865180856236 0.5586855474387733
Ni 2.463272645458347 5.30035887194902 6.902582743108128 -0.09430266463932792 -0.18301446545443964 1.3132133082242738
Ni 0.8263267623519384 0.37892554612852175 9.218183247508039 -0.619702710552094 -1.2114256480618104 0.6405764686773098
Ni 1.7203603146282187 1.1154656012055328 11.498523161161934 -0.8581961829104446 0.599468128672774 -0.18980372046213118
Ni 4.14793624745136 6.931563541329085 1.5097651239518488 0.8753302714875699 0.40606974888084907 0.6017139872841573
Ni 5.661832288923301 7.550176600247596 7.838427781451461 -1.2335559043019466 1.1941046402848596 1.0686090949824951
Ni 5.375496961257617 2.846470554043996 4.929055031850762 0.0949580388351397 -0.6664494797893297 -0.3653671289551643
Ni 0.8234697559634818 7.724598154975423 7.099543004533591 0.21770173242397992 -0.5887782530590957 -0.3851543388844206
Ni 4.823290486880698 4.385309866143178 7.049141458636567 1.698237035068101 1.7173408457770876 0.8738943103719917
Ni 8.098511472822324 7.311343197269707 9.005616894696312 0.7705490759144213 0.8533280561848658 0.5054685970961618
Ni 4.638849915779514 0.406374930896574 10.570958998523386 -1.0174228019166671 -0.09604432992078298 0.1755721502437815
Ni 8.568208400595136 7.373896313975393 4.892030912883376 -1.665795626709944 -0.8060233575616312 0.09883886194678462
Ni 7.31976642460984 6.148865288466118 7.001646787535289 1.2668722590658892 -1.3305741681002246 -1.077280654614564
Ni 2.0940650918628236 5.102970648919192 2.5864231306057066 1.7329533555033638 0.7943343512594772 1.6674038517373284
Ni 2.321628234793581 5.234532574328599 11.445309037093857 0.7989926759670949 0.5510624836758767 0.47760555213730654
Ni 0.9560589705630256 3.2727275655772172 3.9672666346394805 -0.3178444007838526 0.293447717107043 -0.3135727699916922
Ni 3.2639869938270674 2.760116606587126 2.9873497113314667 1.163409268083532 0.9494420630013198 -1.887590812477007
Ni 1.202572108263298 3.344873550448523 8.13056325823392 -0.3926629885566399 0.37618941638164893 0.24822586915476605
Ni 3.728044258084742 2.5195060749131466 7.013072999692486 -1.07636842721294 -0.8741249383255592 -0.4486068509121112
Ni 4.048770652812995 6.8695816445614275 6.001983788337777 0.5846873708191737 0.33277736794460105 0.0020250008498287706
Ni 0.8448832500530336 7.558309684127145 11.345063564763123 0.17114265371751813 -0.8527906956241571 0.11796581258422265
P 0.3969271344612466 5.777218716405045 8.062592619100107 -0.8650193764798649 -1.0647370136215986 -0.19953791703075957
P 8.346475327825527 1.452204288164869 8.159798838681205 0.46365963148017564 0.35643537368317324 -0.6766158787993701
P 1.791273189792035 3.0686479089876286 10.389432555804461 -0.7163695045482243 0.5073123351731198 0.14797341468990644
P 3.8546284097484724 6.238410813989434 3.716043199196259 -0.23611597326510947 -0.7301480463895554 -0.30039380940757293
P 6.894588384070673 3.980487202760738 10.236848829977294 1.534894594121292 -0.7620914320653713 1.043303783448487
P 6.262057506027183 7.778265628200667 10.23691501895424 0.47581323612357407 -0.46150221881754067 0.13029528068385302
P 2.572901538644091 8.548587449073016 5.728732117347889 -1.340840325912923 -0.2231954085486995 1.1209320727559275
P 6.887552405151466 3.8816933544312486 1.4891431774907078 -0.3309973932260429 0.2552071855686056 -0.5732179367269935
Ni 5.036899542753903 2.7362251060045075 0.6235690719046442 0.6442037810172518 1.6350151509939777 0.2532906852721831
Ni 1.4541536895406801 0.9767860940286289 7.029341887546524 0.36108829907415235 1.5067415287258439 -0.07059220839626552
Ni 6.658275602406622 0.778896466830977 9.516634784748124 1.3732920186837252 -0.7751037851646393 -2.0830064798092773
Ni 2.8851503041333504 1.6562930117376007 9.120353219486681 0.237918573691487 0.39713593672632896 0.7911461833394826
Ni 6.346570855905961 2.0118456887193017 2.520654861677404 0.9600689465875466 -0.0543045269798355 0.7005752178284451
Ni 4.173759015443503 7.003972468711547 10.65871651497084 0.20462818706947342 -0.9542258575432081 -1.6999247071831691
Ni 7.930500275176817 6.982374914864186 0.34479832827542284 1.3724440688611332 0.39742184339786396 -0.6356795455963246
Ni 7.7512641523998935 3.5682205462176424 8.069294026341327 -0.40049482589623286 1.5102384861355087 0.698143468458501
Ni 3.3570686427762735 8.446756161390518 12.462926476311747 -1.1321891337269856 -0.30834468882353344 1.1958789585764629
Ni 0.2652364578912047 4.703461237658732 10.37673243251563 -0.5308939791478018 1.1552879245279781 -0.7207902593237393
Ni 8.509173273349054 2.513830143465436 5.994658572656299 0.5536227882038852 -0.2907876537763766 -0.654011511136293
Ni 3.607435248312452 2.8572693309676764 11.508980112821114 0.28660112649885483 -0.8932038093338811 0.6876351127280094
Ni 1.2318584638161847 3.411008125495816 12.79681087697757 -1.2193330758343452 -0.6354136935294477 -1.8045932884378533
Ni 3.2038728955869322 8.573059236576805 8.198986339826583 0.6024714342754721 -0.8703847545568365 -0.6152986679471274
Ni 5.573891619416351 7.742179035290298 3.675821155274228 -0.25176730664912117 1.0474797692030478 -0.6973801079299151
Ni 2.883110232926106 8.501856217952405 3.48593404739886 2.30433681012478 -0.29209377418230986 0.7632890519178983
Ni 3.339496829444541 4.229774837302863 9.349029787947437 0.30555864143796413 0.14010146814099744 -0.557501297322685
Ni 7.480424298926124 6.193937261671506 11.41264976381166 0.12941724895427387 -0.15129348020207492 -0.567432440393468
Ni 0.755961532969978 9.000630960665806 0.17278224417551616 -1.5360135382170836 -0.3944393637307723 0.04651768394556505
Ni 4.708411810454978 0.3379636363819968 1.4885329695251632 -0.20966394972116792 -1.0053771836060428 0.9034491412109732
Ni 5.901273179771793 5.383639112120308 0.022198694829762295 0.48063585432319805 -0.15586130207841545 2.186902701674311
Ni 7.818042483250361 8.748505360399827 11.436670015554911 0.6452155101112178 0.3693564526202155 0.22622416807269424
Ni 0.3517409172682541 4.93930253619933 5.952777270819043 -1.3397218960377637 -0.17789848438411296 -0.5762844914674592
Ni 8.097151425350827 9.011529474404064 2.4780563614735116 0.799324605385217 -0.31533937497381176 0.11364867326610749
P 8.526210134675331 1.6349584004013957 3.605991784596037 -0.05544095457712387 2.085087787818338 0.6292217057861228
P 1.7737467113760195 3.1577400853537783 1.557817414516441 -0.5510725109782058 -0.5384049428128663 0.996256195141381
P 4.871127889944793 1.0202804121670799 8.20454621389006 -1.3632541748317488 -1.2166167053444468 0.5206658736618904
P 8.588862988195594 1.5700660020447366 12.448580695582404 0.1253381937888938 0.39157669747099655 -0.765185754719979
P 6.560125509880307 8.016101663032792 1.5555615491103858 -2.4341479520833627 -1.5239666343548786 0.37880705651015406
P 1.8175583739244863 3.185738929300315 6.021796959902535 0.20043394648246773 0.017716186332840455 -0.16860497489732898
P 6.7651118647842265 4.119130442005069 6.064235881203106 1.3840538851859194 -0.5511555576103153 0.23469621009944738
P 2.5518480037853286 8.521921451648545 10.346595593943901 -0.3831445075432434 -0.2014413047010595 -0.5440739681731857
