# total energy = -340859.0019157516 ev
CRYSTAL
PRIMVEC
9.41461645869009 0.00000000000000 0.00000000000000
0.00000000000000 9.41461645869009 0.00000000000000
0.00000000000000 0.00000000000000 13.77924283130861
PRIMCOORD
 96 1
Ni 7.955605209096714 5.293452906547968 8.714516510563728 -0.6576457654547706 -0.688194327665589 -0.13175026796282474
Ni 1.6217147798744356 7.982173257099999 8.768007537615555 1.0697300959608158 0.15475907015317217 -1.0182255003236205
Ni 2.2271687724652165 1.3095166792943875 8.775848030307666 0.14517862555358868 -1.7629190486275186 -0.4663371783123388
Ni 0.2032483916100969 3.7849583057265064 5.022988859828217 -1.1085007889711103 -0.7056971124360427 -1.019243914285806
Ni 1.2586495058848404 6.7602972435967414 6.747419931031578 2.740584625250906 2.1432834223224635 0.2715558021299581
Ni 3.6004600645073874 0.19665910146215274 1.6481350183973327 0.7973934498007752 -0.39549043070310597 -2.203107593568948
Ni 0.10780018428490465 7.341894597760761 11.28055687531803 1.6096296210413374 -0.6937314554337343 0.3322058117118472
Ni 6.913708420851706 7.122816469824398 6.3290127163695145 -0.2571684230600345 0.6576313672770674 0.5986916555180658
Ni 2.7293350065003534 6.452138013531722 3.626310718726883 -1.1030112266114487 -1.1728182201022577 0.6746746959125993
Ni 7.036917508101521 1.3449721253540499 12.554419460142809 -0.34996339280558436 -0.02884186393235678 -0.567038804499475
Ni 6.120395168920909 1.021608289504018 5.6004635533896 -0.7962621644098093 -3.491081153389826 0.7117677441101548
Ni 6.7576893948026555 0.8126584060899563 3.034271613308278 0.47252890894534755 -0.29124865257319515 -0.1649061858895031
Ni 9.192177439089386 2.8639734382845354 11.918755845853608 1.1140962807810166 -1.912637728143306 -0.11646840210308973
Ni 4.849892660755369 5.770924601280266 13.083776989799166 0.684987390692517 0.7095925908357069 -0.4871273755848126
Ni 1.829758977173006 7.688041805746847 2.0348083849358414 0.008146026145902098 1.4958292526887143 -0.5542488518236582
Ni 4.9173578032045295 7.480666046225822 2.8272526677558294 -1.335634099121635 1.3864200714252508 0.45653047663456214
Ni 4.246114469916744 5.321772073236089 1.4429349767691348 -0.7927508088224411 0.98353360536839 0.7843672127444362
Ni 2.385447306494702 8.639454713992013 13.151447370889883 -0.3029338022206073 0.6552988624891489 0.07840913333752303
Ni 6.728720619570159 4.832880448586009 0.9378163189728959 0.27890401496491324 -1.321653468571827 -1.044187471605021
Ni 1.572561066683385 1.9743015856047625 0.4353403440521076 1.0582241522037452 1.5219267211067145 -2.1086789448747165
Ni 3.8019893471290365 0.6863123685939713 6.436339345440187 -0.3067907140728523 0.17067214183900287 -0.3479093384900331
Ni 3.2326686529920483 8.701967768117386 4.342225466249531 1.2818047120060052 -1.1851502593050491 -0.28539270801305044
Ni 3.200404761954751 4.0761241528553365 13.228637812271499 0.8804233697397612 -1.3370944857172458 0.4064299604337452
Ni 2.000285927379767 0.764904646385117 3.033982584579114 -2.3451091069461354 1.8610148617606916 -2.437149200803532
P 1.0064225129521764 5.725602637039369 4.8774106435720945 0.7020708285373651 -0.15743970230912885 -1.1819209537344741
P 3.8932640549220334 7.919123569829272 6.937835258774461 -1.5975325806674876 -1.4217051198797903 -0.7637649631130524
P 4.550027707901863 2.485985997007483 1.022912213901061 -0.9315494989916151 0.08410824060482934 -0.44918509201308443
P 7.031400542782624 2.6182613600287934 4.997000752206579 1.7743792267483185 2.8982796381039506 -1.384700774741299
P 0.9187131204599748 0.8240133751533018 12.34439631043804 -0.12219244907106051 -0.04870543562550322 0.317113436155099
P 2.607528697121726 1.4381485856972462 4.794350188749638 2.0601010359660132 1.7133702911651139 0.7967396182668601
P 0.8281510991424736 8.671144313417615 3.8435821817405555 -1.0730709874085906 -1.2800368214723052 -0.007740306067051186
P 4.471039074752483 5.520966530944622 4.163880618430464 -0.013856189156801943 -1.7694275391699976 1.469453848018979
Ni 8.456020324447014 5.004188811969337 11.061714112796295 0.894915135598033 -0.32266959008663787 -0.08856884747934424
Ni 4.141254470391381 7.509823113790021 11.626304903560905 -0.7613987768737209 -1.2621982506289877 1.0693613997674876
Ni 6.259853884396687 4.633507113162358 5.690896594459884 0.6811867859995042 0.00985735241005399 -1.1653028855618188
Ni 5.215226857341985 3.626369089349711 7.713124227252995 -0.5717670632130798 0.34078378318884534 0.3341883893595148
Ni 8.173619485358955 6.609352695887085 4.390066781888612 -0.22141337694761223 -2.0553149274312794 -1.6157573312056304
Ni 0.8576442685187625 4.410230066229021 13.477546152857899 -1.2451173838873009 0.4949453289673347 -0.2793004790723835
Ni 4.989219571598954 2.530733669636685 10.479624374184873 1.4819681784359058 -1.7443019477469637 -1.1994641048245602
Ni 2.3062797956302035 6.26388334029513 12.497786775536516 -0.34470857216454825 -0.852002652505223 -0.2489601762176293
Ni 3.5288995638436877 6.638330885736167 8.780299261029123 -1.4387705600025094 -1.0419524116269152 -0.19425584269621382
Ni 4.377881443642457 1.000293597555246 13.056810703514332 -0.44627743144798626 0.7162705170765148 2.265078635955106
Ni 8.97952949428068 5.541857565147062 6.503279152283897 -2.7341396409565104 -1.4754054376167236 0.7057408211897847
Ni 8.997652631207087 1.2255853724378052 4.37163013822992 0.021284106189756895 0.7197872719805217 -1.3421266488245143
Ni 1.5484031605258988 2.402459518664062 6.238882825953272 0.19801813795212347 -0.8218569821597781 1.4236599296133159
Ni 6.28003882235524 7.121969154331736 0.958044564167742 0.4544257715867334 0.6804648202318152 0.8895860100756358
Ni 8.039969588316215 2.6293988514490216 9.778757008350267 -1.6332634584101935 0.048181187690917025 -0.04024470645265972
Ni 6.184216854751618 5.568604490865464 3.0867430373839344 1.8083890080348597 0.6182968313435029 0.07025539388213707
Ni 6.734745974184654 0.33806099380110427 9.924747584812817 -1.830021241592655 0.2937860742830682 -1.1061281749738756
Ni 2.5980481782204836 3.914051528342037 4.206169193207626 0.2371269310281271 0.38665252069650186 0.6762099016102032
Ni 5.805570390313605 3.5397922752327027 12.678915525479812 0.08940676999960731 0.06651238189993705 0.11079063499202209
Ni 5.684234811764235 6.573605396713283 9.273513136153444 2.4764397708730383 0.2570208417385767 2.1661024770995083
Ni 0.8466781231203838 2.869641037468794 9.81587790008384 0.04580960213494691 0.2631768340376436 1.3560072634613487
Ni 1.6645418707202675 9.047889025305428 5.957786852723914 -0.4937024576991691 0.30974851114959556 1.3671766498146067
Ni 8.384337433767708 8.304962801338338 2.5179778056254696 0.02079919613353837 -0.19101676693362588 -0.3394846047614476
Ni 0.6719051808337213 0.17075949123641432 0.9635078661721025 -0.5127710442948459 -3.0659302195078104 0.5620128120397934
P 8.054260976292467 3.6036986926126775 13.44720472652729 -2.0709881151921623 1.9546924912215111 -0.22395054154716915
P 2.0399026339700645 4.255962158864808 11.367448137628982 -0.22474398398274195 -0.5975434008462354 -0.6544861367798663
P 7.356157741887258 9.017470399118821 7.587030501481491 0.3828750559319406 0.7213769850651447 -0.34508909543241856
P 0.26768014459552353 2.6107390813772615 2.29655920400604 1.9787634161277858 0.12027620588495413 2.334162635236961
P 6.834625641536475 0.2894053138274079 0.7344897860451423 -0.04779038001040156 -0.1209313229704498 1.2486680773530365
P 0.5693640013732797 3.5981723126771965 7.836599748152169 -1.169173938481451 0.5343881083439893 -0.4269208812982454
P 2.1975127302220048 7.338354701924746 10.580487868969842 1.2337975879991074 -0.6894186869909934 1.4871322391353485
P 7.5024608836204365 7.68535864002008 10.970385741688762 -1.1971729947975382 -0.14154951344143363 -0.42331388067327735
Ni 1.1964753779565318 5.306388589735961 9.07065545113163 -0.7724743179615922 1.5243967799137617 0.6579779519832087
Ni 8.868615896291066 7.459144232712178 8.122064103477035 -1.246123456554312 -0.11341907375380467 0.07204668145460495
Ni 2.1921652280016413 4.592986603379887 6.785850395932147 0.5739224189931857 0.8198983157715106 -0.9338681198224627
Ni 2.7267930600223638 3.5720938247363403 8.788538933464443 2.972348492194907 0.029179192667117486 0.3706944547053487
Ni 4.532055204840819 1.1497977089273748 3.473968100454332 -0.4323376814384425 0.7932753138673435 0.6790072618496822
Ni 3.99352030693726 8.763680579833022 9.913007557931138 -1.6045930870586944 1.3654267570030354 -2.01712298974259
Ni 4.5110229513896005 2.963231740941737 5.2477148162540095 0.19322637299043496 -0.3489717183162764 0.4820628165777117
Ni 7.94310259827164 3.9777884826234797 3.1004676654417604 0.08588230178611661 -1.1391596515075477 0.4982515105224322
Ni 6.912437447612711 2.0824096278520017 7.711801473622782 0.29279954200008285 -1.2452467103763134 -0.3739512710797495
Ni 8.760912682556988 0.12296619014191738 10.565385882505609 2.3513324621480276 1.2733714936369875 1.4709646282365505
Ni 7.776397982398448 6.358792090089993 12.82548510086235 0.6390080957489253 -0.9165702519739634 0.8091552183223936
Ni 8.319056482366301 8.775872508310787 13.3679054110306 0.41903042280657515 -0.06765883679955444 -1.05006372788014
Ni 0.8385683723939383 4.754861520944899 2.5381778069705603 -2.371211203349826 0.37757266988242066 1.948886168952379
Ni 6.08710508467583 7.857975635108744 12.62222729463567 0.19104607750966454 2.340808422688253 -0.6270270121276492
Ni 5.154088337238043 5.889661745652135 7.24148865334183 -1.0767790323877973 0.7728512416850367 -1.0432119950656291
Ni 4.961493525755698 3.5810094666424743 2.798936325452684 0.4443655591372541 -1.1488169720916537 1.0551475701609505
Ni 9.120372158394472 0.8659197164971065 6.678206494282556 -1.2137180436404127 0.9737536431634908 1.7724218459116312
Ni 0.5250465767220188 7.132758304938314 0.14913694132530803 -0.4381332050742971 -0.7969676751172662 0.33250277412697576
Ni 2.76216377453276 2.0583458678603668 11.359332738132585 -0.7976467034621617 0.19361743778126653 0.3794498323004755
Ni 8.865480828968213 8.335720353722012 5.539489789075898 0.033955273899522166 0.3911961742031263 0.38940257263781325
Ni 5.231805997148427 9.05221033431801 8.04888334729903 1.614933035532122 0.653307543090733 -0.35331122623189476
Ni 2.5935009184098576 3.380242767964222 1.872695277571226 1.0580984252591583 0.0038635967204643145 0.08043490551830017
Ni 4.310256252711349 4.597176107760278 10.852035538058544 -0.5032672185694689 1.7404725466985445 0.29051254573811897
Ni 8.514598068839797 1.938375408715843 0.7981118820042462 -1.6766868197011513 -1.5878786025174911 -0.8183224866439583
P 4.210122390711729 7.949099709036378 0.3618234860620144 0.6883347098981952 -0.7517082890588344 -0.22994712545023624
P 4.3028375348422525 1.7681497262398065 8.210747908785798 0.335236628118371 0.3527347849031345 0.8074053255108223
P 6.6303661201051325 4.324773591485645 10.253106816222928 -1.6211167957453307 -0.23086449505818304 -0.34018831569669156
P 8.220758470600785 6.048072084313812 2.0527215759124 0.39552231238230595 0.3863157061823734 0.40376398356580784
P 0.30805943512921746 0.08662012135330023 8.612247413522597 -0.670986962648367 2.1459686824641104 -0.07021117090776295
P 6.149505163402182 8.306403237675864 4.485763535091652 0.6762289277735967 0.31679024848772536 -0.7997979454772096
P 5.102072580605108 0.3734543033913046 11.317112890056494 0.8037947253414287 -0.0616059457372552 -0.6906116788578299
P 2.0339243524384965 5.593826248697072 1.1539043646818157 2.0098130863447388 1.028093651366952 -1.6840882543715447
