# total energy = -340855.08516153996 ev
CRYSTAL
PRIMVEC
9.36832983057742 0.00000000000000 0.00000000000000
0.00000000000000 9.36832983057742 0.00000000000000
0.00000000000000 0.00000000000000 13.71149767233557
PRIMCOORD
 96 1
Ni 3.204727689225633 2.1699300641929775 10.08232507480383 -0.84066357334332 -2.1039540285952216 0.9273339182483705
Ni 6.39309827429936 1.8042935132509865 9.362512250989163 -0.11291179510008297 0.4465983051225147 -0.5058537483497224
Ni 2.9435573859342132 8.248261819362973 13.277885853140205 -1.8881230308313934 0.7109869000800723 0.48129379962217106
Ni 7.266507678699212 8.0141378847351 1.7176664395557752 0.44304478344330145 -0.18595966412569265 0.8082728157174404
Ni 6.183125894370004 5.29195413632066 1.2870089943604626 -1.6699032211204146 1.0263411874522195 0.1911185826188128
Ni 4.9043301149064344 0.2223648068320713 5.790612541537175 0.36445747265670136 0.8017370714814515 0.21481978289049455
Ni 8.166916610112692 2.1735368712367826 11.182493969631203 -2.763637907525944 2.383200257390902 -1.543970331170315
Ni 5.349981572240994 2.151408875814789 11.487493067919344 0.3558674169948452 -0.6003181353778951 0.8514058994614885
Ni 3.3026735792074033 7.460507056006003 9.46547207117832 -0.9015989753761118 1.980305306693609 1.287228197014422
Ni 1.9159359016692323 6.156407417255895 7.776243197288702 0.16617373974801705 -1.4636423835435244 -0.4404569681114672
Ni 3.5844542084634234 0.9251244595770273 1.4219373037867131 1.1877984955611736 -3.4173072048314697 -0.2612184247596921
Ni 4.789202707734175 4.032597641573703 10.252607587923356 1.4325914277749907 -0.10772228047934351 -1.840608530190198
Ni 1.256049474262638 5.158727115619488 3.5937288551474933 -1.235236377328163 2.938763971371242 1.99403602601614
Ni 0.2934292107580127 1.2787114644937143 12.339210104241454 3.09149572668174 -1.3992419057802676 1.2141397045588638
Ni 6.800030423810423 0.13725727626025003 11.003216922894126 -1.909616167708163 -0.1280710193390246 0.1360409249183786
Ni 8.123475663977304 5.930134143154537 10.868624936514298 -0.014594609984723252 0.11042862366691306 -1.63401550608487
Ni 4.898128280457088 8.191695842920131 11.978159350826587 0.10478762333105178 0.029580798980910344 -1.227848569504524
Ni 8.841764260503588 1.3463695436375065 0.912498761257713 -1.742245579438567 0.3048413036559653 -1.1332872518871708
Ni 5.273610946212166 8.803663262459029 3.4079520610675793 1.1434341105131856 -0.01439097861434941 -0.28576320397859173
Ni 5.170015953250099 0.48564017387087555 13.429644367382549 1.1264823131501955 0.3029921662623685 -0.08037834124875189
Ni 3.3297105795409654 8.44620526359299 4.379959391216082 -1.590085637471139 -0.5070079165588235 0.3131086858710801
Ni 5.354412792323384 4.696709185803039 3.472011764664552 1.302544515656518 -2.6627439628223435 1.1222988711964672
Ni 4.209434238349972 6.591182243479135 2.8284899360738502 -0.24327135336296812 0.2736527938683029 0.6794191525761202
Ni 8.814333790310702 8.58448181415549 11.210067775272844 1.109132509017838 -1.1200018476321743 -0.06667256162688516
P 2.9302168840371263 2.6909497362480863 1.9523936946346132 1.2509411896579297 4.7103345250261714 2.046150487323192
P 7.153104044243992 7.547735576486182 9.881533658258704 0.2461607590956212 0.33468101272521716 0.27906290914028065
P 6.335276941638672 6.427433203690388 3.260484241957867 1.8594110076086814 3.0561667123631433 -1.7298024685792082
P 5.052527726921894 2.554509378362433 0.42665623145918496 -0.3457804650724884 -0.18596814876612489 0.2731619702748134
P 0.40249624526368166 7.42618149494496 12.888342260912278 -0.8595354705471584 0.4068012277302349 -0.33850784267047507
P 9.01939716532849 4.056589934662494 3.2033758392089546 -2.1004843248790666 -2.2149601220321595 1.1219677131092936
P 2.8106863617724294 3.986730297972483 6.3616684640363435 1.8990697596508839 1.5475680758239023 -1.2335114242172562
P 2.8297790182796363 0.9040035596283041 5.958111723818483 -0.745117266104878 -0.1836865518207998 -0.1044477234931298
Ni 1.4748842943567724 2.6587507860933903 4.182568678455115 -1.26408286924621 0.7045162047540642 0.7039937565916908
Ni 0.788556692403593 7.754372830941266 8.823677762636652 -0.8483627417597905 -0.3226413079518637 0.32534379448469125
Ni 0.9399620206055428 8.779062027921285 4.192235858165511 1.5718750280003833 0.10841776388447134 -0.25962845456475286
Ni 5.503753340596879 7.153300779173653 5.089571040511268 -0.19476852066657424 -0.958626300603749 1.085736755801717
Ni 7.656614307559174 5.369214753697959 4.624325721015364 2.698099973724134 0.3361154311788986 -0.9477191667729422
Ni 6.093330451474235 8.634939639448824 8.457141852016207 -0.04475442139755518 1.0154199125540255 -0.39443165042128847
Ni 2.0939154347035385 4.650495213992416 13.43813207434797 0.25423967944901377 2.7572368890956063 -2.5711450702674234
Ni 4.504939471032419 7.410283438962265 7.363499872688621 -0.28700556102612507 -1.62957778202849 -1.2608607627644866
Ni 7.742746733431235 5.671521393948724 13.097538006285967 2.465259328776187 1.6173624709092211 0.19718227231438945
Ni 4.544361403604708 2.721499860325614 8.080474092518163 1.6578339486607063 -1.0815651409225309 -1.1852942410820813
Ni 2.7358146685410274 3.7996072748738814 8.52087366406374 -2.1066508587010944 1.8662010339473216 0.22100714264812907
Ni 4.4051199150538665 6.580127614098123 0.13867657825281227 -2.2868245122726294 -0.6250979134257363 2.6677367880512444
Ni 2.140522876373487 6.158224873272773 1.6534006326991566 3.341874894734083 -0.2187949654881587 0.28830962454952924
Ni 1.2224546429403398 4.154629507944103 1.5630693213283078 -1.088044063778655 -3.0159250912342768 0.7744916055019371
Ni 7.0984117337979304 3.3368960886386234 0.11096505816040894 -2.0831602317783218 -1.1758071275272524 -1.6148792994760512
Ni 1.0841031457379693 6.804424170572877 11.026663042344856 1.718907418933259 -0.2897715538070364 -0.5939122318515514
Ni 7.0999762449052435 8.927072273337066 5.60172265140361 1.053270664853212 0.558509169761909 0.7243478947680105
Ni 4.003565186953567 3.823131151463477 12.624217186343932 1.2573488929564862 -0.6842947355008666 0.5000898492827517
Ni 0.47460334431683215 6.662924914495912 5.282820951419347 0.5380172204561443 -0.7920249864000102 0.3728153577030934
Ni 6.157110042004688 0.8696105465913768 1.9428230087230516 0.45337624727629666 1.0176817120050088 -0.9071507584322764
Ni 1.5127229791617816 2.535454195175162 6.694350977426936 -0.8818845276663199 -0.002486513867279589 -0.7660699570971452
Ni 1.288679367596594 1.5821891459924682 2.1539935980573497 -0.784458744016978 -1.866204119271115 0.6718539386343526
Ni 0.27536988104803095 6.78979083913801 1.133688779509802 -3.174961191496248 1.638168866131611 0.07796484671125282
Ni 4.898062702147199 3.12415068303403 5.286838091316447 0.46937673646961103 0.3234537765508301 1.3681742378411854
P 4.406862424430874 0.1314957533201459 10.07556488788744 0.731154890387515 0.5476514011117987 -0.1442442866647774
P 8.696274095853477 1.9389070467897775 7.491784162490283 1.6405831320000586 -0.8799798544444394 -1.7009603475365351
P 3.098275355618473 7.990520324845665 1.751314670358982 0.7454185993953808 2.0451613839370455 0.4002829669957429
P 6.19574503485833 4.835032578015459 5.869878918364029 -1.4488708816613045 -0.4691653917897533 2.199974190146288
P 7.401261737187762 1.2170584848696082 12.94394236253378 -0.8974525573079061 -1.291861067800743 0.1771909167941271
P 0.015344387680644831 9.044270081435767 2.3217269885882548 0.10980153160587543 -3.1070223615624295 -2.0295298480473756
P 3.880203017725452 5.700235325349406 8.613426206473775 1.7357144631882686 -1.5529781910958804 0.20797679182673215
P 6.308961302713872 1.5315626907594229 4.323193869344581 0.006845562166923694 -0.4024756037716875 -0.0654847119663711
Ni 6.742836769258658 2.000260239854399 6.997621618833044 -1.7282328100992428 -0.1388439415848125 -1.2284152406412714
Ni 2.826509471115252 5.908099831032383 5.535084783395064 0.5466589552915424 0.8963595813540434 -0.8714970137844089
Ni 5.720058711595358 5.522920943743958 12.507450321424487 0.16532810391827013 -2.444045413702733 -0.14137802086057588
Ni 6.958879827017587 4.847117723694701 8.717180461045569 -0.8749518051022286 -0.41827271870494415 0.7929117598803376
Ni 1.6637404585023974 9.235618221357113 10.205879294796615 1.0274591031067466 1.3057563377255963 2.669423431725048
Ni 8.546437026090835 1.224197152317347 3.2564118289138615 -1.5010107968896536 1.17934110882244 2.941325304340515
Ni 5.1267249003944535 6.325946084974699 10.670178412964145 0.22547700549402458 0.6050867604111321 -3.6383755397348376
Ni 0.6488065035346248 4.559088418339414 11.488288439134978 -2.814458332611921 -1.8461045203077624 1.5181937364268432
Ni 8.308106711300185 4.799395450756668 1.3120898873933844 2.204870856116958 0.5358934892449222 1.993975347981534
Ni 8.568237129963391 3.1769880641432775 9.078465422710035 0.32823834242366695 1.6239635211655064 0.6408641751210575
Ni 1.401005644103665 0.9522813745343833 8.260039683818745 -0.7206542479665072 -0.052798888968586484 0.20891473025996926
Ni 3.175311133076158 4.378139124700208 3.610100011794375 1.790226221082904 -2.069027649031682 -0.3241343475576224
Ni 3.612324990165553 1.6821773319107305 4.068750026981608 0.1520432138839059 -0.954319188587963 -1.2711685724483979
Ni 3.7854517282681948 0.15735515457473037 7.876035585110301 -0.0474795336382021 1.3399756639197824 1.4704712335398995
Ni 2.6736839040877416 4.44030736247343 10.831768052691602 0.2509268130256969 1.417611666536707 -0.0011917063152560123
Ni 7.379349213355399 6.482322249066112 7.142442884722303 0.09483308322150119 0.8238760694723359 -1.2210744840054841
Ni 2.2184580135096272 2.380380228951513 13.571009656340744 -0.4739664127228224 -0.2675515660665715 -0.18944762267429308
Ni 7.217530049543336 2.9540311788562237 2.371979647454942 -0.3984307442783525 0.6557817156628383 1.6756915456674173
Ni 2.0401880622458197 8.33560275980296 6.639943464212385 -0.1947134990589227 -0.2395777065614648 -0.4882704880503204
Ni 0.1645434741713839 4.6190644668964005 6.900201292163372 -0.49373099694425937 0.1058903694769273 0.7973829082778138
Ni 8.533358837433298 2.897212257503814 5.342987177075007 -0.5632505411016364 0.6364238799615168 -0.740628377095589
Ni 8.435572209061254 0.09070229723821181 8.725887386932616 -0.33707753798185175 0.064412819058431 0.04734120828812492
Ni 8.282484328794194 7.776800612922744 4.027669900002166 -1.3841184198752678 -0.5250588605232634 -1.3630358881733557
Ni 0.25612545759508476 0.8669602460389289 5.764066441694771 -0.5391238232567618 -1.2697457239589423 0.6403476404959553
P 0.7838491065866786 2.1180388844121047 10.207757644958388 1.4792996304648072 -0.9158272031603518 -0.026521957549928518
P 9.294011022146819 7.802441732088703 6.913858443613915 -1.8061629469178184 0.819601353356382 0.09003849004633525
P 6.8721571963565395 4.101595391905193 11.050521368314875 -0.6231629011865526 -0.25348943154655057 -0.582262563427765
P 3.3135502103187218 6.497049263800816 11.93736683157765 -0.654345240326628 -1.1000763123528408 -0.8878901104304514
P 9.1486426457865 3.4296706604692755 13.484696421699994 2.902715562388117 0.34387373496807877 -0.6116757264825594
P 6.263937108811205 7.511967292607617 13.644420826927654 0.8691259424490709 -0.3734229093801053 -0.6877652105479704
P 0.565408693184867 5.019954043567841 9.340011396033809 0.1839122946783607 0.8759046559338011 -0.7673688784142269
P 2.687736399063605 0.7448094018777324 12.246725950640302 -0.2445471347515982 0.3988097248843261 -0.4824585093542336
