# total energy = -340857.59720302693 ev
CRYSTAL
PRIMVEC
9.38310683210332 0.00000000000000 0.00000000000000

0.00000000000000 9.38310683210332 0.00000000000000

0.00000000000000 0.00000000000000 13.73312530775389

PRIMCOORD
 96 1
Ni 2.855091715279588 3.4454580244092097 3.663613379220263 1.5761690273900466 1.5513257430941219 -0.2653797552262333
Ni 5.0708185380945014 4.175538792722849 4.845225194579945 0.14354417527395924 -2.853778984588414 3.8777401018442315
Ni 7.9758659135954275 5.273878350801106 11.974021765173596 1.3726340733847522 0.6482468407383739 0.3293822262201231
Ni 5.654701120474885 2.3395369160945054 11.307552830613627 -1.016106911318721 1.435890667351553 -0.6972726358177733
Ni 1.7411292844987525 8.349398009341336 3.4768567144540365 -1.4973338622586987 -1.2991334330924398 1.6216446432243428
Ni 2.5119796515467474 7.634414659753491 12.721954832348453 -2.563086718739321 -1.2748984718044754 -1.502637019639167
Ni 1.7199046970793936 1.6344433609982632 2.921310176082372 -1.5466383649207813 -1.5271072368663892 -1.368601040965959
Ni 6.069809762133781 -0.038112302908908345 9.677417253914316 -1.8147288342099586 1.2424521783503117 1.1938966380391116
Ni 6.794326348157553 2.3627976376738995 3.8984087355032395 1.0697781755899318 -0.28327077657404115 0.057065377554424306
Ni 6.78623811015778 7.578425661905873 11.00069990621086 1.9459625675476806 0.06868316429901074 0.47644392772903754
Ni 5.236580501556212 8.188937501181101 5.797603959325171 0.40915018757838567 0.5894436545572364 3.0877015497466305
Ni 8.356303975893347 2.055200632907581 7.903413316682377 0.34886038954939275 0.09344623017630357 0.3446481512402581
Ni 0.9763685537174077 4.195430978986792 7.24311095986423 2.697408089863432 -2.402221021467779 0.0925928810370728
Ni 0.5200896546668581 1.0600095670932532 11.360343127377575 1.649618245619133 0.45751238093185714 0.8650396881948391
Ni 8.387286994310111 6.5698355196835685 2.2631781318504745 1.0575752057658367 0.19708662727678958 0.3698565321850856
Ni 9.436684267693686 7.62332382760067 5.0127005133302385 0.09465799109621763 1.1575623223844516 -0.36061341632026284
Ni 7.1316021195054065 3.4904594042780173 1.4535689658399926 -1.6363467253212076 0.3380432443292307 1.1830710081785174
Ni 5.039356981234595 1.288826007768973 5.270690909445511 -0.04261372090546854 -0.7352863960573853 -2.210172985056161
Ni 4.397787058688776 7.553241403447182 0.011191231394813872 2.108140298762427 2.684198018931061 0.4311107510098769
Ni 7.170776590095955 9.018122642758783 4.724922506595382 1.230861902409551 2.224516912482659 -0.3706985684704067
Ni 5.018901808566955 5.859008886376349 1.1838966018480168 0.8305408830870213 -0.9134707871130333 1.0104594832249565
Ni 4.603886997975342 1.1646499733269786 12.804477379402288 0.2552629785072056 -1.256497086479152 1.6153750081655471
Ni 4.750010119054771 8.662662410571533 3.6813981197130357 1.0875200729543852 0.6873692606611324 -0.6267084524459658
Ni 4.578374330781161 3.5830988170062787 9.11341184482711 -0.6762101587205194 0.8469933722160897 0.28432698575269744
P 8.668076463153747 0.872779993747922 0.677513789489823 -0.12820908757878566 -1.3817517194153042 -0.4457205305032518
P 7.064409692224228 5.227760381231634 6.099086931747346 -0.5907101799744859 -0.455522604195338 -2.035459583268249
P 4.2272209445821884 5.860125476077014 12.437019906952264 0.9610835038949901 -0.6997928311364657 -0.6277001269352738
P 6.359306754021257 8.355881736090573 12.986867146297174 -1.6817408371852907 4.956785818779018 -3.3220169794678918
P 1.8284860081389946 2.6306384192325165 13.06108095234312 -0.06277631189627253 1.7500401357823216 -1.4644828771669487
P 9.413226500872996 7.153915147305245 7.482864349742427 -0.053240604491695404 1.2928599413789026 -1.4964820557813647
P 2.2904914172258106 3.566528250524145 9.594881570511061 1.1246367753010245 0.22369137434851152 -0.9144969143847025
P 3.3848337718378225 2.7264399389282064 5.620048369016692 0.4520310461023118 -0.13601392833518508 0.5568909174321957
Ni 3.0266805880195573 6.0413789487471075 3.033345408728651 -0.9929289305403609 -0.2807361830776456 -1.7316228096173982
Ni 7.045718543621502 1.9439826688573347 13.182990028199566 -0.007363125233290544 -0.4039439607870978 1.0058829195978676
Ni 0.2792825419030754 6.51972034664785 9.504283921806872 -0.3837114357903069 0.03422241151797977 -0.08910929336384653
Ni 4.590647434381745 6.3410284621145765 4.5853806965751644 -2.48380212477538 0.09508248022814593 1.6537448661929972
Ni 4.617783379039917 1.7194167755295233 2.91811053668803 -1.0765005819154296 0.4664523637339644 -0.1294784412095125
Ni 2.858638529622876 0.6138503486491484 6.609629275318183 -0.2561286689416105 0.11117398647336983 1.4661756914883395
Ni 7.055505123939094 6.84112928451819 0.12355956432994676 1.4857551562821638 -3.1794171703850727 2.176093783984265
Ni 2.419434069885769 4.89946424302274 13.235766250303422 0.6852635271720392 -0.7728671825246367 -0.8067887749727459
Ni 7.679097013993538 4.835668500377197 3.7044280168669146 -1.1745899672906999 -0.7976125077901167 0.6675159733806311
Ni 8.327629201731737 3.1623978437373306 5.910242525734079 0.21221962626348614 0.23333403964459815 -1.935848876152447
Ni 3.0218482880544957 0.623035471825457 4.3683832171343795 -0.41096821462373095 1.5230883455149833 -0.7452764173905616
Ni 1.283336890332932 8.931647931151 8.634634132463502 -0.5552549244906696 0.2242217929306848 -0.19820068627657478
Ni 5.059389914099462 5.800355086217901 7.0801123213339965 0.8587397141187404 -0.3482808628968389 -1.8959538397297218
Ni 2.1211920225275405 7.211302228055376 6.833135815896372 -0.3967777820559618 0.4398563584129908 1.3077576844263412
Ni 9.112920170034547 2.953886446021598 0.44929692933404 1.3282288077964997 0.19983256545304295 -0.38080506077678933
Ni 8.423468253854342 3.6536410133894517 9.546993947012636 0.5427359660880524 -1.2093530818034977 1.2121751246333252
Ni 0.9258827479659228 4.658712490588654 10.996868783733705 0.6809242763667369 -1.4401525279517002 -0.19744555327810512
Ni 3.0713066436192342 5.207877578074418 8.022864018576012 -1.5072935445745719 -0.6225921162847472 0.631327696385532
Ni 2.3006251724923477 1.2070897650589676 0.6593152539903332 1.1789312749785308 -0.030367042327631575 0.43625527132529385
Ni 4.434296726968494 8.12088182808092 11.301867606246963 0.7334778820937369 0.08332302569937264 0.054735700979983155
Ni 1.7132708406225032 3.7672516696554084 1.649141997688106 -1.2914653750242209 0.4009216290210063 -0.5691244833839102
Ni 3.77943094218871 4.017508509205237 11.31234572153043 -0.7485455750601366 -0.40039840952768463 0.5428226122645877
Ni 6.525838132234686 6.9785354994470525 8.584685978727547 0.650574460430286 0.3650110311673262 0.3942979530569016
Ni 4.1212012216594065 8.584182105896238 8.302786488357956 0.001324632348694493 -0.6849454817109881 0.17279381616769598
P 3.1664607289506734 8.135313046229008 5.281114602709952 -0.4905196890958133 -1.0157443857729798 -0.5412424122616614
P 8.692847864916395 9.051798612806563 10.375623608672003 -0.5243718617585679 -1.041100090928949 -0.3932720828955485
P 5.842729196202792 7.742554964796863 2.1195434106753828 1.1285607929457788 0.514316791515411 -1.2192855104258613
P 1.0820035692643304 1.7282556620675587 7.7606577926077245 1.545893516334957 0.13366394004576979 0.1807171847798307
P 9.08103637337187 0.9402623590270046 4.0553233676308595 0.061096610201004466 0.3146050679109485 0.4570529247969354
P 6.772623222295053 1.2317767188610595 6.376702095584806 2.251525322750703 -0.28060505681641995 0.3481425375467617
P 4.474465806872241 6.514775449402049 9.009712564198232 -1.367946952321728 0.8648363139347814 0.6465062038981834
P 6.3606485382834 2.4800301731369703 9.335970691625743 0.9807820107651819 -1.1551825092983654 -0.34672303149141576
Ni 7.485964528205449 7.298621419268705 6.335639743920528 0.1638461200561049 -0.060298282669425184 1.083724610467695
Ni 3.2387575662920343 8.804900925465457 1.9876084852797775 1.918194139185161 0.5814596079104953 -1.4593134171508673
Ni 8.51514120658959 5.046947914577769 7.665968171059335 -1.9459453411565002 2.531130477547699 1.1711400610688862
Ni 6.506968704604124 6.939989697007298 4.006968465417366 2.724799080281875 -0.1882554021384048 -0.9338370094742111
Ni 5.010532077365333 2.1873241587484245 7.260483781971631 -2.0949040025778114 -1.0426808051525074 1.343443310753409
Ni 3.915983294405299 3.8936796497121886 1.1075425091573499 0.32985196676768996 -0.2934358900325011 0.6461351937120098
Ni 0.6294638382449984 6.023916987125787 0.1751413169472942 0.7142995093930731 2.6255208168048267 -0.8336051238346417
Ni 8.968401560205653 8.300399426006283 12.713660166000658 -0.09145362522630701 0.3390590871882548 -0.2697974246779547
Ni 0.11786964840992066 0.3531613710388232 6.442785439650703 -0.6039025102950438 -0.4276194500271668 -1.1283944425712438
Ni 5.61545158503051 5.557248173995019 10.556103913347684 -0.4671887276793567 -0.5082173634858925 0.7603204562078776
Ni 6.0586157158069485 4.517815759956873 12.939872794559282 -1.3999469022670923 -0.5829287362568542 0.5310374467042016
Ni 7.644088642790343 9.331265063601514 8.284754972158229 1.3823734121597029 -1.3866653546668377 -1.5744898399154108
Ni 7.782358103538208 1.604783360630185 10.929329181503581 -0.8894895937070874 0.22080711082218102 -1.2765295796499951
Ni 6.622174489013887 3.560532445324777 7.419925284741175 -0.2413088303199586 1.768267971644258 0.7012136227433924
Ni 6.522535278666332 0.6499724946209896 2.0485564550332893 -1.2848530119140258 0.5833133732897825 -0.7166569538816561
Ni 2.4787446875151966 5.3097781171434875 5.568754677775902 0.5962208253800699 -1.0196092680450246 -0.5674069864721712
Ni 1.09364800471412 8.720931503354121 1.309557982085097 -1.5814863258379022 -0.46328476463926016 -1.723943952915902
Ni 2.613561164987055 0.3001618309948334 12.039130204450426 -0.06075902435592762 1.3174911096640214 -0.4553318283407707
Ni 0.06063926554215152 5.379654112948953 5.314280131751713 0.011077855080716403 -0.9063550020038584 -0.3449733957901607
Ni 1.2649366180387844 2.620504663965979 5.153876860542522 -0.24085040262630134 -1.123637644612549 2.3487366763963937
Ni 9.428239471638237 3.2145773002532687 3.37267701876067 -1.4143934167097254 0.4506835309354819 -0.7312273954966632
Ni 2.4469734881332568 7.527081301888751 10.150592313250469 0.5683557235386857 -0.14740854332537193 0.0710902310786066
Ni 3.2795459312398463 1.4696666237430214 8.776208323401065 -1.5202776155390656 0.7106032914884085 1.08432264906301
Ni 8.40421411884792 8.95905598590429 2.364034331140686 1.2097361761745296 -0.7794587196992253 1.5485242690895846
P 0.9404500211615701 6.633499898834915 11.64472914103016 -0.6084348509477586 1.4001358783494466 0.3453256369232569
P 0.9203420234428763 5.409042003221911 3.1757303000875368 -0.8868251595010468 -0.40260518737101625 0.773939589653209
P 8.348497231095422 5.12017367948523 0.6554024984846425 -3.039049593066882 -2.1361555530284306 0.8068479103454557
P 5.282285614429641 4.825347082976093 3.0428626938831407 0.6901997881313919 0.4256612978595314 -3.058157517540927
P 7.703699519835076 5.52350652220014 9.889443563410458 -0.7827723574534906 1.95971668390898 -1.0607955124753472
P 5.174689529576509 2.2768483800428987 0.9343500634775184 1.443724561573675 -1.2367672121503925 -1.2955822254060718
P 2.4671659338125047 6.968420510393972 0.9736371313488067 -0.07717063294473162 -0.3073568709889674 2.3880732692124873
P 8.865938034732888 3.2536954722034483 11.937601236407795 -0.2852253291972507 -1.4691553429419535 -0.03645618594450496
