# total energy = -381168.38680544187 ev
CRYSTAL
PRIMVEC
9.22662848009166 0.00000000000000 0.00000000000000

0.00000000000000 9.22662848009166 0.00000000000000

0.00000000000000 0.00000000000000 13.50410342251155

PRIMCOORD
 96 1
Ni 6.838666323611357 2.1508378225628193 0.30091910717864506 -0.8939010925112219 -1.1592039717529325 -1.5215891352616375
Ni 0.7383775535307929 4.857275533425105 10.674628817933622 -0.9981377284348101 -0.44836285322210523 3.520616700955098
Ni 4.141824306387603 6.4242523045972835 6.221515596597811 -2.3907873257095407 1.4556323687548542 1.4077031491737435
Ni 9.100528166897686 0.18957492244623597 9.209933836982541 -1.4072321230745959 0.002915888095214333 1.3623486322983442
Ni 8.008233752092359 7.460716390357654 1.0917814142608053 -0.24929904761428678 0.9503180378483699 -1.1235417424646328
Ni 0.24432389063115678 7.061627801279734 4.869485130917286 0.45368555098659935 2.516986839057465 -2.503256633955566
Ni 5.281054580365247 1.1879653257071847 11.869769692624159 -1.0087278452458304 -1.6657722296711766 0.5192060012869122
Ni 2.5626868388542867 3.871650170691953 6.709743566263439 -0.16314755132718353 -1.29467051222508 0.845540441819647
Ni 1.1861476798929629 8.826109782092683 12.010414881479534 -1.4494666062637747 -0.10004676621195673 -0.12250689498768579
Ni 0.46341018433012615 0.4781995471505126 5.524919907560024 -0.9026382152739035 -1.1281224198567796 0.7967630153056279
Ni 2.2925496096726303 8.032841170298092 6.473313978975674 -0.8242848748749803 0.6269794467191654 -1.1495847034956135
Ni 7.681214358216908 8.980886475156495 11.174470344890423 -0.44150494976000737 0.1327817945511326 0.21002390416374797
Ni 3.9188997352332215 5.056644522022592 0.4879059603310271 -0.12040347549143779 0.7035926644985302 1.6832798995376363
Ni 5.682717398794273 8.818866878721293 9.398045416148902 0.18378451085124478 0.7576994736452628 0.17934087325759435
Ni 2.6534307301378983 2.6166164824285327 4.488709554083363 -0.3206620727383058 0.3058028962382862 0.7164746626675209
Ni 6.889348193954102 1.3706802498647204 4.704046145960506 0.9466207915024406 1.1074132123338865 0.11781540304928742
Ni 6.711560289414811 4.691694458389447 9.891283445089261 0.34160782175203747 1.0685841552818305 0.5276801001961944
Ni 9.311328948204922 5.900991749185367 2.2200476855935767 -0.05658715236642513 -0.9905797135818941 0.6659884809925111
Ni 6.088458387019675 6.93058199671429 5.355862238906097 1.2171962319970004 0.20717666452293998 0.9000622270166111
Ni 6.147508809410637 5.447604451393256 2.1111236455163476 1.2144297249954568 -0.37688772800025416 -1.4058277865279014
Ni 6.71535243372773 2.7389984828338028 11.471114755085672 -0.6562254880684764 -0.6055181915215959 -2.005408786629456
Ni 2.520410427073757 0.27241067044370815 4.694526110675664 1.4086806825956644 0.08231309637761954 -0.9633864409965538
Ni 7.776516203978821 3.2479669907014057 3.2509647223005973 3.6028233536618406 0.10106518017414207 -1.1211580727238044
Ni 8.8789230036186 2.8546081379211086 0.9574278633786178 0.41120732721773057 0.6885733082715625 0.029811426934477688
P 4.6146521104262375 3.9906367718097417 10.793357073453452 -0.10112817220159358 -1.702003444089069 -3.419317036172646
Ni 4.934161028703838 2.924269183085447 6.330980317105058 -0.8220009639368101 -1.5490081507045388 -1.123292088347672
P 1.9596251735580839 1.6446742097587863 6.552515358007552 -0.4156334813098842 -0.13387631316689202 -0.6106709393671289
Ni 2.388718758513412 6.171913241789403 2.3281071905804884 0.8510264046348828 0.05811490186486121 -0.9278442822258859
P 4.164494132608634 1.4915859897102162 3.4999932708031842 1.4440320655117647 -0.8180525208120234 -0.31902556557614736
P 7.193208750298096 6.54514881781428 12.577006452309368 0.9077673089703528 0.33672298285591046 0.04364627593504096
P 8.435131399465023 5.57074303533541 8.497362240699447 0.3537344298122424 -0.43503399732368303 -0.7595203289040855
Ni 6.337577356481549 3.0714431342664223 8.34099856753388 0.039345334566841916 -1.2843431621571428 -0.20973594060968395
Ni 4.451506865314207 1.8753676021089791 9.91704880517157 1.1012147968326582 1.593608820133049 -1.1741256260597714
Ni 3.8147680059981584 7.638781093751902 12.491484832755956 -0.7704192352047764 -0.279723425542415 0.34760054900036264
Ni 0.5385038683544332 0.5577496927396376 0.8742867139778424 0.23806101280662223 0.01852299850485197 -0.14944280014658132
Ni 6.375544932753237 7.848640758952284 2.9289590783512796 0.7525261569744395 -0.8684739106873688 1.282363669833269
Ni 0.30987355013652457 6.609781350446888 12.313311255145425 -1.1461643649601552 -0.6712314745590053 1.0226760798958063
Ni 4.926161541795563 6.215804313557185 3.66702569450167 -2.5504538604666593 -0.011330080300838551 0.020180074492300727
Ni 7.662438169222281 8.567229039679306 5.6427707107096365 0.13062952409482018 -0.01596166553557896 0.4889320328937193
Ni 2.823145334740924 1.066948866319706 12.524664711499728 -0.16887005563325755 1.090363198830135 -2.285366953890496
Ni 2.8125900717385393 6.76278653083897 8.243782196358508 0.49907991996099854 -0.6838720461411512 1.411677046219827
Ni 8.330529112176531 1.6538731583718784 7.520745758032318 -0.16527668185504438 -0.3952595456392225 -0.6303414212128629
Ni 4.197673088689556 4.418466308660763 8.518280852831447 -0.22164503334244412 -0.4771838912188556 0.6526696523964179
Ni 5.628058851568638 4.866954266720124 12.27460923924525 2.0248517258454157 1.3221697460866133 1.9780378508156709
Ni 7.737100047032855 7.040378875847486 9.821412955458005 0.24817290442964357 0.10977659190521094 1.178909163491344
Ni 5.669052761987865 4.962606724364985 6.614877217366658 2.376756301537771 0.6250066392635106 0.9667957237884189
Ni 5.969868530927325 8.832845220896653 13.275465920303871 1.6412683309925413 -0.42189103218382173 0.03771191272847699
Ni 0.16456799122651325 1.3957489994953838 3.197015702806504 -0.732304687721242 -0.7753238715952453 -0.6925279220439363
Ni 4.276136337441547 1.1995447444729126 0.6189259303366748 2.4089719670383674 0.6306085588313204 2.2554611674699996
Ni 6.046624853407077 3.7103225713941437 4.3547361402953175 -2.541571984595997 1.6467735770814866 1.3518531320836589
Ni 1.2166047805668014 2.811003091636782 12.368800198935933 -0.571401452343545 -0.23905422995782702 -0.5839006132518202
Ni 7.55339787362597 5.656670626542759 4.0719464354535475 0.3259492892791741 -0.4790625962988072 -1.617692086334498
Ni 4.2878726088917505 8.63272887539078 7.227436774039306 0.07094162131588427 -0.6059694201264015 0.7580265179673784
Ni 8.686557026051542 2.693271311994801 9.990051735178094 0.09723835022888415 0.005283616996442513 -0.0006399475768440591
Ni 9.188614789173704 3.754804147385836 7.112841125423996 -0.9109158819016635 1.5147636276993717 0.1946746754011873
Ni 1.119762087845623 7.187986478567895 10.20021680178178 0.7329587763654732 0.3061692784387695 -1.3705149701592203
P 7.06935971596155 4.286783866728918 0.6387373470488427 0.6824245150613474 -0.8510863113385406 -0.45515519355359035
Ni 5.244184972884889 9.03548966261114 4.978423010937264 -1.6463179776013066 0.380180539818913 -0.48890143676609993
P 0.7027304743264987 4.851674969926463 4.506629511953321 -0.8396963243340442 -0.4156522503629616 -1.5404126957260438
Ni 2.5184082486895636 3.2012802504985514 10.359402900605067 0.1680249340241429 0.1379545970013237 0.11787710952515827
P 1.6090225172402426 1.1501638287484701 10.456659868945831 -0.49621776792185507 0.3649444395954489 -0.04780966328411121
P 7.069885633785971 3.1949969164910126 6.166513818792029 1.6467553222490414 -0.6656146425928602 0.6370810539295415
P 7.010964384193988 1.2329266863808033 9.571262448929991 0.41165469916779424 1.0074818886538714 -0.3856947847689228
Ni 1.3319468634276483 4.839043715511895 8.734346348359978 0.9783960270315085 0.7277096121513918 -2.9319477197803567
Ni 2.8031235508989885 7.235623561506104 4.378097963653742 -0.2968783400551468 -1.3687563355969008 0.40994003046953276
Ni 5.598625906658143 7.135726854751893 11.255845517596569 1.746271669878825 0.5510912800312833 0.13731439231416354
Ni 3.6185083912046956 3.977230480601294 2.8286637812459294 0.8196887708638656 -0.0645737701163275 -1.7885002395307328
Ni 5.024037616908582 7.286342338362841 1.0697556067089762 -0.8204806706375418 -0.7712466162020782 0.17826332392269942
Ni 3.4692861284970338 9.135100343881893 10.437902133208203 -0.47568082431076786 -0.5681315233430215 0.5822602494349198
Ni 1.922165061853817 9.09494605665604 8.53316155927397 1.6262752000178184 0.428291793503843 -0.5358186701429288
Ni 1.4092106504748236 4.563167523404117 0.4010261810626239 -1.476596115490715 3.31400310802448 -0.6170063946668535
Ni 2.368918413755442 1.2610033169020065 2.1438578781036375 0.47420758219935105 0.6411248849816119 1.4794708659353488
Ni 0.29208461039124717 2.7020366090684593 5.070601642952406 -0.5786488779345776 1.6376777854278053 0.031842341321577414
Ni 4.03266406462081 3.091944702790285 12.73211438133628 0.3515335655061817 -0.3954495501628415 -0.19861771920933535
Ni 3.7709692005153617 4.643328471799848 4.958450128226371 0.03752885018339343 0.2259549735717076 -0.10814959782474924
Ni 8.195008392789273 5.896987392416979 6.169686856332693 -1.2520519062236048 -1.225479297941399 2.8727868931494847
Ni 5.842780949987776 3.1000087760980506 2.180021648503853 -1.716631992635521 -1.2571640306391896 -0.8511163932455278
Ni 3.7384637883148364 1.7377432114240423 7.6834970261074576 -0.22810595847643944 -0.9744239297576379 1.0067221276697111
Ni 6.736315333676523 0.61719316950464 2.094068222736708 0.5655917876403033 1.190262383720634 -0.016185608620926963
Ni 3.829669011023378 8.439163436118905 2.7503804517496606 0.5873119529262144 1.028583960739809 0.019513387442579296
Ni 1.3643600093431878 2.4141750265410162 8.502453494304968 0.012881226838042333 -0.9291786847665933 -0.3126255755870745
Ni 1.0063945034834736 8.34170255928832 2.8255442581505568 2.270364309834077 -0.9571198912615516 -1.0871590900705406
Ni 5.267602156014306 6.604033160892268 9.069126259465591 -1.322187486698426 -1.2284113839865296 -1.2172368554269488
Ni 6.18950842233621 0.5761660432228191 7.230786040184294 0.4576926152634634 1.006575060568886 -0.18836184580928206
Ni 6.934715526281657 7.37945747317059 7.667534958804902 -0.08361998811450115 0.16927191905736652 -0.964434936865726
Ni 1.3867345834522633 5.811742571718526 6.249510110125377 1.7133396950374946 -0.8206534487699804 1.290385768806797
Ni 8.24364195160533 4.062087782902807 12.17673131880653 1.222858058268468 1.8443481997382882 1.367520920527903
Ni 0.2718487687681442 7.614026049490191 7.495007155172656 -0.9735957774293877 -0.3372390032603805 0.6860055475443863
P 8.149724100118204 0.26889624764859604 13.190052252303893 -1.7633191122794147 0.45300575131075527 0.04486600727475499
Ni 3.081776958184841 5.113388287288908 11.732432250085528 -1.3084876206138303 1.5797145786494602 0.059355973360813906
P 8.409822757493396 8.657548506051981 3.581288171841392 -2.654065975432371 0.6832922623782813 0.4803175517518309
Ni 2.725518378597366 8.776562787055267 0.5569931092027535 0.22099043047758068 -1.3819543223444135 2.0073952209318655
P 1.2099523814193196 7.428967561694014 0.64051993167477 -1.4063862301345327 -1.9896548662293088 0.7774607154325901
P 2.5012190397966942 2.983845523300829 0.8514000619870951 1.6883606564946534 -1.5752339171702872 -0.27413976080705044
P 3.4947239432676405 6.987132002782135 10.486489558881766 -0.8350986776610327 -0.9962893623721616 -1.385690135237762
Ni 1.2432143771567288 3.4983500082675856 2.595516105715112 -0.5318540290682259 1.05194320429104 1.5249331120332061
