# total energy = -340866.1809354261 ev
CRYSTAL
PRIMVEC
9.28378251536826 0.00000000000000 0.00000000000000

0.00000000000000 9.28378251536826 0.00000000000000

0.00000000000000 0.00000000000000 13.58775413035522

PRIMCOORD
 96 1
Ni 3.5771991379295054 3.5767813677267712 11.837012728331338 1.268247285036545 0.13347470685309915 -0.3608221898969592
Ni 4.86722710506045 8.038353605932581 5.319428999525477 -1.2170486506755427 0.7792995684135416 -0.07268225815607482
Ni 6.795292293371212 4.42888404078745 2.9783673293306974 0.6781246021344127 -1.2668943705530762 0.761850519699159
Ni 5.922245407480138 0.014177263924332816 1.2962870931461277 1.5990284484867234 -1.4188136572646082 0.8444479800864166
Ni 7.177468474832207 1.4662991413378126 8.510770936318789 1.8948924883447429 -2.1856063514603905 -0.402976454667506
Ni 3.8385561767598486 1.7916307238801443 4.342891150634928 1.2794814631894675 -3.1479039302681397 0.02297280674608947
Ni 8.37197560605361 5.463645130265685 13.42881746559625 -2.8337153810693194 -1.164795349797781 -0.29752471538989406
Ni 8.869270687823509 7.670028827637786 0.6242842261058152 0.524744157496322 1.9910520036871517 0.3344724962588369
Ni 1.5054952701365378 2.4035712330625145 11.922520076670464 -0.32162083710714934 0.1598071741000409 0.3724188935956232
Ni 0.5096499392320829 2.664408380085011 9.433108207484866 0.2454555054984805 0.8424677164315943 0.019094297627289696
Ni 5.389950466503421 6.630245211944462 12.190674700888403 0.5267236498201961 -1.1929021353363263 -0.4145597886297312
Ni 5.691469147489919 5.106451606928179 0.9795522929978318 0.5433219204985094 -0.0800124732689009 -0.3221466277036323
Ni 0.8206130119350525 0.44064080038803655 10.250452399678084 -0.012813606824900514 -0.40276973797333854 -0.5098037341364059
Ni 8.959796848864809 1.1777127690715001 13.282151344711565 4.456053193705945 1.7765870330329148 3.0911200885098764
Ni 0.6439871972449754 6.173204610153548 10.599657228361087 -0.237484571477862 -2.1835080741704656 -0.37398083876610433
Ni 7.763665055743884 3.5810333400123744 8.57540834208578 0.28886755393552827 2.1144832102613194 -0.6140444838250522
Ni 2.6445410859994425 0.5307037006934161 12.002633547503178 0.9008173600150808 0.15334239231130367 0.3963527787034013
Ni 5.513554743818964 3.2515240554427036 4.7187283655531065 -1.2533603406223834 1.1081788868553173 0.11124443469998907
Ni 5.120210172271549 2.028385739660601 0.37267980056373823 -1.2122000643339899 0.5696204491837222 -0.4608645852335418
Ni 8.977853805405196 0.706143976385957 4.393016147937172 1.2471305576625877 1.6430724740808156 1.2755551315518676
Ni 3.3012201420034746 0.6824564058909435 9.650375635875127 -0.5653889276008779 0.9483272326705862 -0.7783387471621692
Ni 3.1438507485247467 5.008303460632555 1.4014547072259091 -0.8876952208108259 0.25145054673965084 -0.4451402325197495
Ni 5.97861653350237 4.041796738498761 12.556348030963179 0.4115567401373492 -0.21908421459380337 -0.4555141195549058
Ni 2.483393193131543 7.843069245610178 10.174782147046002 -2.084516745806216 -0.07796613226283347 -0.4952710877378696
P 4.4982710295704145 7.445519120688576 10.125308871260021 1.8144508979582237 -0.814810359725642 1.5450530227115327
P 8.381983523354657 0.9545584943356035 6.441152206026577 0.1427723301049412 -0.23534052855166565 1.450194999789367
P 1.956965602557666 4.131422372658613 10.482286082470333 -0.819351442129105 0.5650256307241882 -0.49834124202276114
P 4.599807756399324 8.365486242237811 2.9903248409111707 -0.8255007495599526 0.30182977052315113 -0.9993854847989821
P 7.386251454594055 2.9810781937573263 1.1425021680068568 -0.2662199917393415 0.3295274935487357 -0.6288784635140912
P 0.4042251643830628 7.442956796778474 8.893551492006404 0.5845413321596127 -0.754068818871211 0.22050834863483956
P 5.644521060484909 2.7590936755890847 8.768014331219545 -0.2772734213400257 -0.13214904606314015 1.3492928275556506
P 1.846989917633531 2.022295578482969 3.5439167784450363 -1.1771631273345147 -0.4339384502666591 0.1745632493632929
Ni 6.237197721430103 7.026894809984617 3.2115202375853595 -0.46436951306300667 0.29160834990545903 0.996499935721071
Ni 0.32876936712171784 4.9300226084225 8.27685768629515 1.2740271249431157 0.8450740437061897 -0.3911308681828296
Ni 5.544729684725199 0.4842950014390468 10.093186984560925 -0.20513392306129832 1.018963921151542 -1.0580847984124035
Ni 1.9994574740668476 1.4181534464182985 5.7966989629109955 -0.6887175471589106 -1.4829385127689751 -0.2672371201499462
Ni 5.215703156834241 5.114324254304143 10.347210763765943 0.10037612452691745 -0.1457434969181232 -0.8719505563820598
Ni 2.3619613208702153 3.55896578952574 6.7491323994820265 -0.5214570021046181 1.17063509640801 0.9977142677441462
Ni 8.067086912098393 5.783722092035852 4.723687762048671 1.128255088779902 0.5110172948285328 -1.876140918768853
Ni 7.665981098562409 5.281766551559899 6.834151420873065 0.9025860218797294 -0.31450479488765837 0.5705802419938302
Ni 5.1873040668306185 8.965719901961348 12.384273126348214 0.45326646117130975 1.1813887353800878 0.7328258503320346
Ni 3.7038113607047336 2.5482682637249803 1.9186040857861804 0.29325128482552076 1.4243914084627016 3.8163398443598795
Ni 7.684715771209454 2.6667107580911895 4.463563609505508 -1.2128556956401175 -0.8098062216428312 1.4236750991219673
Ni 4.10826861964487 1.8866780868932536 7.164170385090071 0.8009634265402206 -0.662695412063536 -0.5452975561676415
Ni 7.238824991940395 8.498662099087102 5.564511568013764 1.3575008172877396 -0.4454407944793038 -1.3630960519873299
Ni 6.907273275268469 1.5945174584479955 12.89619109359203 0.1388200303254125 0.9309051805393969 -0.9311651190690029
Ni 5.9156817734060745 9.135510996134698 7.3355666452201485 -1.9844455541142276 1.7129062070445016 0.38863149879974357
Ni 1.6768646072979938 6.212150076830633 4.1446452637642555 -1.2714850752475522 -1.0361201212158544 1.0095698815311516
Ni 2.592208405270306 8.890911184325127 3.737447432294184 0.22055257160921368 -0.04503004365644503 1.4312053460607415
Ni 2.761321783336999 5.695544727912145 8.875996788087525 -0.22383895566996936 -0.3866898016923405 1.032250353847803
Ni 3.945756010781374 6.305173575306054 3.822411679369753 -0.1987871549076641 1.0480297281692468 0.11248447775467724
Ni 1.1265498449100189 9.293808767841723 7.7881603152975165 -0.9377581989054881 -2.2208240370121044 -0.9819765452939153
Ni 6.023364364106314 3.5985611209626334 6.953464734017417 0.630039830812044 -0.20594639166026465 -1.1513124848199978
Ni 8.947467985993017 1.9912970294401113 2.458921143033618 -0.9821768342301795 1.6099592364666147 -0.6600435762629859
Ni 6.00503817787972 1.9882148137221634 2.6845458322350146 0.4712567271011432 -0.13490424021077413 0.44817104892627335
Ni 8.029274066859829 9.028403999936002 12.102856619139045 -3.890515142121713 -1.8479158624848884 -1.513354406056671
P 5.968562197289906 1.0112267013908898 4.9161442822876795 -0.6213217342127557 0.48449970815397847 0.06697260936580723
P 2.317157787572573 2.038932116334062 0.6391392061368053 -2.6770853191456796 -0.2605496808274416 -2.9093420665656993
P 8.10732282451281 9.182691177696782 2.5335859620444534 -1.0326257349093506 -0.09326753850659421 -1.2741194275466057
P 7.360971715437511 5.582041205720479 11.326574595983432 -0.38018645335618395 -0.5640704658997705 -0.647577325475175
P 4.121033820283963 4.5000349482041795 6.200744021917769 1.0062343894000154 -1.2289865397637092 -0.6902594377247339
P 6.863063904036938 6.960794280129827 0.24110261102357444 -1.302502863785305 0.8365050710902562 0.650832342077363
P 0.7029782066274622 5.385429264531611 2.218037629271922 0.02698244212611482 -0.5384234547556276 -0.1602982548038465
P 6.4459249984982545 7.116622565749581 7.159591623668108 -0.14448468481035762 -0.8463930196279295 -0.2735828598623159
Ni 0.16145332930500922 2.9494019286078115 6.624954384421394 -1.7624986732606485 -0.16899475413657994 0.036852650051975244
Ni 0.5165728556804982 8.01735369040849 11.818546356992272 2.6875419957026296 -0.6460781152218292 0.6951255075677835
Ni 2.791679751402331 6.123081469607761 6.430798932024602 -0.5531656460618086 1.1011926853454712 -0.05977094941104545
Ni -0.08759527097456449 7.93824658157525 3.8553756051219166 0.3857284662203357 -2.9685255189043906 -0.6423536151823904
Ni 5.764755324831731 5.637911007499429 5.425536132372296 0.08187009530292996 0.8524425682561191 -0.5182981447606623
Ni 3.942887322055934 7.981638979965879 8.186145849608192 -0.0901971271113866 0.04700825042873839 -1.7157539609059418
Ni 1.964689709417102 7.108907742672428 2.110164721034881 0.3471020120973893 1.3555933158523814 -1.8993600371977934
Ni 1.0656482331336956 0.34096547190686355 1.9520164182226114 0.6323831342332399 -0.7135677734333711 0.002244830170118715
Ni 3.7182012232433466 3.2650876613581317 9.06895648932627 -2.292612065488684 0.9074166104991533 1.1619002876381732
Ni 7.944522418398542 6.153170207986887 2.1627759152325066 1.6866840401231789 -0.08384058876573948 -0.5276880706159944
Ni 3.563004234818835 0.037780352000571275 1.0048023240510702 -1.130529743746692 0.6242988145632087 0.060993508964236894
Ni 3.1787206347796046 7.688596392203739 12.39753408096122 -0.5328662723828242 -1.6967229124164196 0.8519777128045585
Ni 6.899874100788938 2.973762573318341 10.61791935648993 -0.7781238029378857 -0.21747907489021256 0.4889790840815707
Ni 9.084802977305081 3.8231729495169575 11.824891822182687 -1.1618234116536506 1.2075831343872687 -0.8421347585722077
Ni 0.24578720756356418 3.6983803480691924 4.1341146695206765 2.5668816670053793 1.7987131755079926 -0.2040250062678357
Ni 6.7694462434954055 7.972513021981714 10.375133595738452 -0.11141901260464035 -1.3261896658792838 0.6924335625579171
Ni 7.444999228880729 6.291359307268986 8.949560550519598 0.6668958232981289 -1.2719699853037707 1.080193971606617
Ni 7.986364425147915 8.499209842241799 8.20472084119997 0.18954815280789938 0.6978166812467014 -0.23278665178156038
Ni 4.992381774017252 5.551321170146111 7.8767805158361215 0.3185254860112772 1.0761195444269271 0.7232857720520834
Ni 0.14574424130398533 7.232344911906878 6.5353426759349675 0.42790972757407597 0.41865529885534347 0.19384035242535003
Ni 3.0366137793740893 3.8495388912006097 4.296855659428334 -0.5422829377110339 1.722784642500478 -0.42580065165087316
Ni 4.619053037071933 7.221315778554703 0.7958021037837989 -0.1376586630274597 -0.12670782044291082 0.8662784456979468
Ni 1.1367898567681416 5.994343260689731 13.143108137459432 2.4102554617364813 0.21248984920573727 -0.002846468309859614
Ni 0.40816798671864274 3.6310265076062005 0.7732480831055366 0.5250889424302505 -0.11338307830954666 -0.05453721181593188
P 1.4693720732734776 8.790813443750077 0.049009086671830876 0.7562905091128781 -1.0405748145530982 -0.5668711685733593
P 3.244821164634395 5.544469738821275 12.774812138889715 1.033166180793853 -0.20312512016138567 0.9846522923538654
P 2.584196501160098 8.345953164314428 6.238028619944429 -0.02401924573273283 0.6107987231942449 -0.5795060837285503
P 0.78663436877936 5.315475965029386 5.924043676108351 -0.8834842680532721 -2.2531528310517968 0.0820816970931038
P 5.115716821646589 1.822016543292325 11.723350453462634 -1.3021197694142734 0.7773938667503967 0.0013117768328880634
P 4.698865713358678 4.633730696861318 2.8873027089169843 0.005371548724558491 -1.4351195935134833 -0.2081616541440286
P 8.522196487174446 1.649180368530159 11.119416278121104 0.6615343018758993 0.34250076587995204 0.20511206868442738
P 2.0393406027545127 1.7346004493158222 8.114375713913187 1.4408001888380284 2.7600064814209433 0.4019793808615593
