# total energy = -381174.4688508298 ev
CRYSTAL
PRIMVEC
9.18784081988182 0.00000000000000 0.00000000000000
0.00000000000000 9.18784081988182 0.00000000000000
0.00000000000000 0.00000000000000 13.44733376107615
PRIMCOORD
 96 1
Ni 7.874337949301314 5.88048460262995 12.619072197007036 -1.7253323486229966 0.32005452106129395 0.819663316942569
Ni 8.00263695917606 3.56781317785391 1.1136572727740712 0.7088971074305791 -1.3056941170290932 -1.4494786904486328
Ni 2.6679744189658403 5.064889156656631 8.282253276651078 0.2847044236967742 -1.446605996886528 -0.8630686805113974
Ni 2.9980016629289543 7.453323517226655 3.3014686965120967 -0.20760269631676503 -0.35873214013714994 0.2534750333688473
Ni 2.8954653588468733 0.6578925889700886 6.152316981321964 -0.11861064525707316 0.4402913890678804 0.13964021223386275
Ni 3.433091867212731 3.214292624792419 6.006721861014016 -0.9418269696582232 -1.4791947294558268 -1.4950355531428252
Ni 0.6889061458185711 5.621084291415848 12.00969324538589 2.2787255373145787 -0.1942573853581106 -1.385980155674355
Ni 0.5271321565269194 7.934095666303989 13.248259214754574 -0.9627290099182128 -0.6511491019868334 0.17199240331232313
Ni 5.407016787042335 0.32073190535739343 11.625959396415482 1.3772391762569314 -0.5686827678608013 0.3971552200000386
Ni 1.4905066725824088 8.491962988101104 10.887835824637513 -0.09646624794955 -1.6043146365863274 0.03315874614015579
Ni 5.972464077555194 6.061209432495053 0.8035547805163696 0.31829588649897445 -0.2005550454413643 0.31934541080941137
Ni 0.4091474168101061 7.683276798460196 2.4135006280249276 0.5891335795159854 -0.790017211941362 -0.24557943267085452
Ni 2.6413480561316223 5.776147481737826 10.476212284713595 0.4431185741040304 -1.4813878804524034 1.4902772125222334
Ni 6.647788757003323 3.5090569355057997 2.955293822224229 0.6554073630425551 0.3662567306489692 1.0822449405983747
Ni 5.221900169242534 7.14666095258977 4.512266254426725 -2.1803713283136963 -2.18110563537656 -1.233610668799282
Ni 1.7688247481428387 6.510044646716715 4.965253453936442 -3.043797392164513 2.5323916036483096 0.6859217295813285
Ni 8.383068698138665 5.32377494878215 2.359563408211858 1.1008497001837556 -0.6537508012757386 1.2879506770027431
Ni 2.0289876501489506 3.2462754988524303 12.36870996485436 -0.23842688078647326 1.9769389613245372 -0.025363932686085347
Ni 5.8063111633060585 6.985809422521223 6.734680005656106 0.8425849587357489 0.42492673368635203 1.09643563027646
Ni -0.3992594624684273 1.627929208438653 9.691560567998163 0.6249827280041107 0.6638354392052503 0.847026025226238
Ni 5.220448490385459 2.8418267438619997 1.1375410651093196 -0.1555823373854159 1.773170808262514 -0.21908601436601624
Ni 5.937899420211396 3.1442812773815363 6.546484542381584 1.0269286845245733 -0.03018218001033512 -0.8876047179795488
Ni 2.3894174595428535 8.584888810635706 1.393103615193039 -0.06334401147428446 -0.10771379583891127 -1.5729672326232975
Ni 6.908815316050986 8.426619063850946 0.03359074621183587 -0.2844429425052714 0.27081789552266905 -0.252780578404984
P 0.9240579074149838 2.6902089938653595 0.6380468526961375 -1.3258230265684845 0.48885130025445483 1.007317338051549
Ni 4.472098851721883 4.95940355565606 6.759624993611559 1.4095227188809853 1.3489143611703092 0.4235378237586254
P 4.786855904163096 4.541467050272036 10.932064253005821 0.2858385373012174 -0.2971313366062173 -1.007075397244072
Ni 0.3733993655625648 0.05150979225585762 6.577575277093353 -0.012347980042391637 -0.27222428895189243 0.05037485290812614
P 5.1330537480531335 3.642078495586478 4.417812493955846 -1.142109221054175 0.41647500337457305 0.8148669239951901
P 7.78183476744662 1.8701206937077979 4.738114408360636 0.2607042041274349 -0.13205005859143065 0.36226483588075675
P 7.768631840119921 7.850991645656818 7.626144047593385 0.22222970220132046 0.627640477341932 -0.6542902187189764
Ni 6.6723846070058075 0.6060400902498706 6.678000215344067 -0.22889528714695417 -1.0799463743721853 -0.5546157482447739
Ni 6.02080130835948 6.504017423107588 11.107793653791223 -1.037555311000484 -0.021218543059144102 0.6187539734855795
Ni 0.1916932742928067 6.387148087272098 9.946360527289874 1.1162804329165292 -0.3718043999400758 -0.28657567257755806
Ni 8.034987346870775 7.566609595123793 5.417204264996296 -0.6981743216964363 0.5112767191375066 0.8058685771513218
Ni 3.2364904483284684 6.956389956063264 6.6788473342720565 0.06310258488743972 0.10624003950686219 -0.35838015611436985
Ni 6.3762880593666305 -0.20566338633194686 4.365044886285218 0.19326931041322845 1.575887491593886 0.08258023399607713
Ni 2.8140427130784684 3.9010837296432763 1.1836575947759136 0.1929299247959387 0.6110861725276766 -0.3463399371203842
Ni 1.034091489645002 5.399455194008325 0.7463338263772306 -0.5446110716235781 0.5136377631705155 -0.5257489446117525
Ni 5.434212796010342 4.091501731623664 8.886307874489468 0.4173193536527394 -0.1557728561296672 0.11754158056261046
Ni 4.2826271973508545 2.1395081879449496 7.9551468472997655 1.5813490289290895 -0.3444468338627294 -0.30860051358808144
Ni 8.037321058451138 7.941602132292794 11.262922077783362 -0.11041499682015822 0.8765330335464194 -0.036807398636336607
Ni 7.67093752817505 5.33149273511091 7.276177351379472 -0.166171682865488 -0.9463299997348993 -0.9369439305343089
Ni 1.0556553521611889 2.190950908962474 5.2834577842711665 -0.3439732366604205 -3.057071740675916 0.7629159848491958
Ni 1.7327624727376267 1.670468911655502 10.831894736731225 1.696035399431092 0.10395767123058869 -2.6173614209224856
Ni 2.2074890225241 1.0086962974870386 3.084508859833473 -0.7948693978273407 -1.2617544782233494 0.36982310784398886
Ni 0.3516765533993691 0.9546350418222568 12.279782690665323 -2.0774310426040286 0.177622605014907 1.0197054273032569
Ni 1.9753306594823417 0.4386651931653482 8.692289157673079 0.5629679768642111 0.8330690488255137 -0.40346702115067934
Ni 4.794463436401444 6.367127782021663 8.881359303398193 -0.6048975272184615 0.4585842738397973 0.19167882599765698
Ni 6.228970218896013 2.549892288135831 10.887996611852694 -0.7349488102123084 -1.0124163498410113 -1.2075512527080687
Ni 4.601243142956447 5.038446550639765 2.611176105506609 0.17744674155867504 0.5216544628274048 -0.9105862664763865
Ni -0.09828876524900344 8.686083689951122 9.167759922569825 -0.8571849680371109 -1.3250013019981375 -1.164608944818588
Ni 3.836401329935583 7.794991755568979 10.652628017211807 0.8071209615011841 1.120710957884057 -0.07575395510286308
Ni 1.719844368477823 5.247837444011685 2.8710192706505295 0.0033360063517684484 0.03963175545900917 0.799330518922488
Ni 8.567578918441205 0.0741670078352852 3.6881196849579583 1.0795072299522377 1.2093006312990078 0.5688966836438203
Ni 6.6053960592403556 5.31644305176983 4.719785584613921 -0.45340941450707717 -0.367647954569541 0.693337048208793
P 8.863693841762117 5.942089075647008 4.51000696435739 0.5190962151819254 -1.6956530763910087 -1.0930440880964079
Ni 6.141988929402728 8.687498617444728 9.144832584468892 0.7599689864057299 -0.6281107321101311 0.4325438839119776
P 4.691357486185573 8.708116132351556 5.719541194152727 -0.21831802585174015 1.3030068000049173 1.3605622298218825
Ni 8.390979429125641 3.966740040482931 5.421629129158118 -0.4033176400570086 -0.9485660881542696 -0.7166726376109399
P 3.565056825593639 6.588563934770967 1.0518185098148916 -0.029838423517671187 -0.6991945354308347 1.700627903897781
P 1.6189894392745074 8.845906181842501 4.694598956443652 -0.7788871634664716 -0.212757243934511 -0.5244011723346066
P 7.510756710489835 0.9646773518905108 11.361598569916978 0.5290960067071145 -1.800247609874648 -0.7057271943430298
Ni 2.1007722508472746 7.139788447620829 8.812682949265369 0.5751748033430482 2.521021414138155 0.15547923614864836
Ni 4.139535763679319 8.682353426558889 7.931775736484927 0.34002993574195634 0.2348630746946149 0.3484173884747032
Ni 9.07485798842148 0.7744201371253053 1.0684696338191886 0.382813863676702 -0.009744995201905797 2.070459753492518
Ni 2.586377204220951 6.968802729075351 12.553731947893226 -1.1152177959799696 0.35730594921358466 0.30725531241409665
Ni 7.381051960962349 4.4436349207141514 10.51639346917974 -0.13810680630847183 2.1132092286449025 1.3251907923011241
Ni 7.361674804572644 6.449588653808104 9.175438201182853 -1.696429292435401 0.8188685889554157 0.4488133104959625
Ni 8.388811098680895 2.2582242797948218 7.087686039629013 -0.0013770828531847253 -0.44492297430262084 -0.3943522033336047
Ni 2.931766518114642 3.071146064075679 3.3198370279745433 0.439094797656618 1.4516561577159257 0.8741092545962751
Ni 4.265252990270279 0.9707964539083125 9.837491044497778 -0.7057549622571717 0.05358924608036577 0.5721758686157242
Ni 7.07531736825309 6.973313958941328 3.076305955506906 -0.2279493782939171 1.7543130521260626 0.04547253051050233
Ni 3.401164120197925 5.224610582298468 4.546194194398401 2.806200977699135 -0.6998964465938656 0.6985892977466678
Ni 6.3369916639760335 3.966831918891607 12.62970896037942 -0.41061443082873794 1.0659228063995838 1.3367365881571946
Ni 4.232562652463466 5.348922069236689 12.777589096711134 -0.28887321036248315 -0.9324645546067166 0.4451924259139236
Ni 4.541365984022493 1.556181359103799 4.245484431859616 -0.015326345944425217 -0.6833513977509909 0.2604715192913385
Ni 3.07197296975376 3.3072551986904926 10.012117904379075 1.4403301911801452 0.46130450098443776 -0.6808689976487693
Ni 1.468896870861884 4.2665117244691375 5.252030774583644 0.19407509414397542 1.8004846655861186 -0.28729532435240196
Ni 0.7709939912657885 4.001313885667597 10.117168920506609 0.4339114536834657 0.0153001206921801 0.16765546649986607
Ni 4.2524635157826225 2.435659862629333 12.130180752955027 0.06350753363534224 0.44059143680680246 -0.15413429208497972
Ni 6.518543399519216 1.1853692895295418 2.5525861630782027 0.6924389618745558 -0.12586372727506065 -0.6594895035317286
Ni 4.94915911308872 8.033958308693608 2.220692868634885 0.9763897952347571 0.7316032907788432 -0.2448196716866945
Ni 7.184000337875576 1.6390281202066774 -0.12710826569831024 -1.0553707419153502 0.5971032279850232 0.3589272868670915
Ni 3.0224045682732203 1.6536459750269814 0.5459231286692735 -0.0006797996758439906 -0.43408963113254273 1.3629970645156204
Ni 0.6750031050177643 4.076920628166831 7.484974710231347 0.39920927431558995 -0.08045701700548724 0.4598405148444016
Ni 0.3906642373368156 3.106050671531577 3.269046643658616 -0.500572445346125 0.005339152824726289 -1.339592569548751
Ni 8.769518472869526 3.5324124269911623 12.22417787773479 0.16220627045983677 -0.9093583076065566 0.5173969731026314
P 8.219837517285416 3.6175561483109338 8.9338301438088 -0.01930641363809578 -0.5223329769516681 -3.1072439906549327
Ni 0.644597783234715 6.732757909346612 7.151197908410178 -0.7645905443381413 -0.32392120310555184 -0.3478982827464396
P 2.306616637644313 2.408105527867491 7.717075189875639 -2.538164758686661 0.6316169454911766 0.0009327962269145224
Ni 4.39456266264046 8.23687177425389 13.310547263132179 0.38351757461194597 0.6602024704383532 -0.704430072798161
P 8.026773417135168 6.9768696533570775 1.0523798868919 0.7009670539502251 0.06348902169258099 -0.017027644906248092
P 2.577023982217765 0.36864649548177086 12.406510579751716 0.6669256480947998 -1.4573740340363093 -0.4498445799739542
P 5.119170920502235 0.821883604263085 0.9868907947560347 0.3569951028413852 -1.7365950660210092 -0.5792487163021057
Ni 6.693580955887293 1.8275442391274785 8.644066774879638 -1.0817317484073823 0.6525120437726311 0.4684249140793029
