# total energy = -340862.32775911613 ev
CRYSTAL
PRIMVEC
9.31022495622166 0.00000000000000 0.00000000000000
0.00000000000000 9.31022495622166 0.00000000000000
0.00000000000000 0.00000000000000 13.62645531539444
PRIMCOORD
 96 1
Ni 3.6623724157659607 2.6442155485445595 11.0910482170807 -0.9508865087573302 0.2368356250399534 0.8301662733564218
Ni 1.7644086209432177 2.876635998926467 5.351231356020424 0.8008916927620207 -0.16982059247198494 0.5668236031648755
Ni 2.786177855363312 0.846331083530152 9.512492164420358 0.5981064724385571 -0.22559296224659856 0.49891819757215367
Ni 5.263293490294089 4.973252059003126 12.955529650674936 0.41046273574222214 -1.437906669340317 -1.1066035719483975
Ni 5.562291357783873 7.504730096184342 7.6476299426343015 2.5379457006973194 -1.281105629056452 -1.968949001140525
Ni 4.754080058424674 3.3373431599062116 5.329865321267122 -1.9388722363598028 0.4598726536339177 0.5559586354259134
Ni 5.488377483581743 5.41390499589528 1.6685598572562388 -0.8967293059886363 -0.03901289092808765 -0.08236888931621943
Ni 1.2188108307941807 1.8972748381920643 0.11563112921219429 3.026594140912349 0.1658973461581788 1.10710082329979
Ni 3.9268386596991633 3.7350294096283387 9.075000979849536 -0.4504223068542952 1.4406238111611642 -0.7471697777585325
Ni 4.8595928353906315 5.298849238571949 6.9134228266572 0.22835458415213578 -0.48159590424362214 0.11051552695376451
Ni 4.476709843003356 8.701717760190542 3.230696397567056 -1.8472460901113734 0.23381277905322959 0.9130704663508211
Ni 3.7347128619872163 4.085512819924242 2.8521668662676896 -0.23810137912625445 0.8669335627834425 0.478438332451247
Ni 4.485219388414711 8.213945775894814 1.0827018622687752 -0.6314374824905189 -0.6010367587114746 -0.9719217321610746
Ni 2.168369962139364 7.377068294564541 2.1555414034716334 1.4879421366311534 0.9737019639899489 0.7965372724480669
Ni 8.459549504507004 7.000981766236663 5.349896269792866 -1.0594785934361366 0.05740270628918501 -0.4672974853430791
Ni 3.3724054662729097 5.109646851428017 11.31411375364496 2.2260837427491467 -0.8939466010371765 -2.7294247519793444
Ni 8.90678477028956 1.8587677486719725 12.273647859775402 -1.051843188378066 -0.6260258245566445 -0.3232815126390239
Ni 2.3213276443747577 0.13416592462239707 6.739958443411905 1.3746806715011355 0.5290420135407276 -0.726640290346613
Ni 4.899366115475214 0.6679350742406612 11.19098510045053 0.7219284866932406 -1.1636388675958347 0.23394673352793258
Ni 6.882369503063072 2.8848289966967 5.056831808529182 1.794170807552949 -0.12727166336618081 -0.2652627700323948
Ni 7.325806197152156 1.3263625469779574 10.736447825405255 -0.6327256051743232 -1.2049292417041895 0.4552377259650676
Ni 4.907093602008501 1.3128161699828573 0.4549180632370956 -0.051890775332020314 -2.6053237730316616 1.9469786675170209
Ni 4.527031607717111 8.342855147629628 9.348783965678958 0.5818339605307786 0.9779152307403481 0.6778752051277681
Ni 3.2877569029468283 7.297437942372727 7.466601932811124 -0.5199644767194915 0.8294682188481328 -0.5866771475556929
P 4.451581546433063 5.992488912294241 9.090071440634395 1.4038773476697501 0.38159413233698797 -0.10833831679678761
P 3.9528141867206954 6.372197118045551 3.0599971510692137 -0.796043363530784 0.5912503687486721 0.005621974172467737
P 6.516393878801639 3.999821511427403 2.8086983579842384 0.5403528105678566 -1.9672325326700508 0.12911385878124218
P 2.133223863750015 6.316112324218415 12.252103999729588 -1.6709429752388385 1.3429458022917 1.703175352909983
P 1.2056834139123314 7.256538125094737 6.325986748576494 0.4022712010703653 -0.1700980145030877 -0.7752063721807747
P 3.9994491024378473 1.4427031153152559 4.953748069197605 -0.9260352540416051 -1.2272716139551316 -0.045448105030470115
P 0.7723725202492755 6.9045278379416555 10.428190008390162 -1.8458150140918017 -0.42778245796759234 -0.6542403393176475
P 7.531915952421931 5.00302615771813 11.109144500905701 0.06719835222336815 -1.5154351998450997 0.37679979627213817
Ni 7.6786823352059566 5.3926869937153254 0.7647902732219152 -0.3955698777907897 1.0286089004404735 -0.20007219226767478
Ni 7.496285722346159 6.774547790361868 9.912782484001958 3.306987338828279 0.5579651243329811 -0.46874398798161854
Ni 7.532362843209399 1.6793504077286245 2.759956538408673 0.7381668029289739 1.16183009652187 1.2377043792526814
Ni 7.329213739406593 3.52014011242978 12.892711702316628 -0.194402138466091 -0.1148655763923441 -0.8372640607434677
Ni 0.35890637061718594 4.937640449376833 6.100999581626124 1.12916243108552 0.5337000811380291 0.08762808083262973
Ni 1.2771766296823468 8.802780249731304 0.4266391866151597 -0.5078869767296673 -1.0410949487226262 -0.424368804300353
Ni 2.727374475912417 7.7247213965398185 10.273652381016577 -1.3465139792589325 -0.8665221862776367 1.3848038759780665
Ni 2.2493968480420135 3.718652724312613 12.747766399491532 -0.463296334603486 0.46373059392742716 -0.7092974281927913
Ni 2.5172892546791314 5.525776656357905 8.6287349084623 -1.9355645121428087 -0.713495782544855 -0.1613117836700254
Ni 2.8969043581830536 0.1273182543269359 12.380329069946091 -0.16937064941875993 0.5007069140414603 -0.15922841877843544
Ni 5.5415854179645585 6.285211688310005 10.966884266895304 -0.14409464846079054 -0.03776513456391561 -0.3481515364078262
Ni 1.381758384174414 4.335762350681144 3.504533382699962 -0.15925747224415798 -0.42136061360164856 -0.7521011536218789
Ni 8.071825195255501 7.486789293112481 7.555637474034176 -0.16309921458775134 0.5476627139657084 1.2362987571544062
Ni 8.552996230211347 2.8367416859202796 6.992769216994479 -1.1025368580781916 1.5377307780185065 0.4099269178434101
Ni 5.551174949445626 5.354198524644712 4.36131053838716 0.8494798860833693 0.6530866853291786 0.25177013486259864
Ni 9.486374190960323 5.2788508758327914 12.539159641946783 -0.6424844843333 -0.02696984372062452 -1.0749221816847165
Ni 0.8936558869004563 1.8992020547130168 8.656709340735276 -0.1131881886899212 -1.0243928054765972 -1.4533494862579486
Ni 3.3735413136910557 5.587149657836736 0.7254387463180052 -1.9006401894617975 0.7575794031276307 0.24246479830127274
Ni 6.016527912570081 3.5817458695270843 10.065535341293094 1.2139126761497225 1.0084856473280372 2.339076013378178
Ni 9.510208366291906 5.516680566788 8.659012690335679 -0.5993408590662903 0.4426583466381602 0.4446681779793374
Ni 6.340626145955939 0.011142476967515913 4.287305423982589 1.5895752734936237 3.5794314571004615 0.4265017914829558
Ni 1.0983085919985938 8.232314849304665 8.163009536348289 -0.9455139315915071 -0.2991758778400718 2.181160399873895
Ni 4.193744182513957 3.3762040379663816 0.6744969206366381 -1.2247059101104842 0.5888754407585923 0.6976066221184244
Ni 1.1808809752079008 6.669090874744344 4.228138945766878 0.010020617460795647 -0.04207096102812109 -0.4482193856657055
P 6.9266210012470655 1.1430907729927045 6.6287934290069614 0.380326578478474 0.1856390475614803 -0.928158471032195
P 8.735020434081587 1.770274062528725 1.0411978114052314 -1.3438816838424081 -1.0555026395075242 -1.351905325477833
P 1.7548935712600615 3.703830846528284 7.419781743621669 -0.4023061680733588 0.12976126255725393 1.4663582398127908
P 6.174010364028581 9.50899803707585 2.033939627134382 -0.728969452700422 -0.6024714342754721 -0.6008863491765394
P 1.7569697513768363 4.09094068094702 1.147725402867729 0.03370664822382582 0.3864393762444312 1.64596110848252
P 8.60292696548607 0.23788648332611617 8.767492635925924 1.1191904074744725 0.11064716743562235 0.0860980173413485
P 6.201857246222631 6.7648372259591945 -0.11190797033910804 0.11013654634779096 1.5511236543856448 0.12572051682897703
P 5.239161387770859 2.5954858322611556 12.602957956970098 1.6795651696902107 1.774202591961138 -2.2140985453628126
Ni 2.2000992080495365 8.897362822853793 4.342928430662675 -1.294652771613267 1.8520530245817135 -0.7222123364822466
Ni 2.7455945857264457 1.9312478482643116 3.2658657715182517 -0.8254737529767591 -0.7645676615200059 -0.6501512568499384
Ni 0.3072830364849314 1.0628273255186447 6.303475556180306 -0.3574154782082554 -2.112052746442956 -0.28894185881688944
Ni 3.667213732630189 7.514505832160188 5.120604054923229 1.695449959241267 -1.418697443401718 1.0419629531498764
Ni 8.234148963578228 4.86019799999866 4.005005444562023 -0.3638913157405862 -0.3235545637947524 0.34645460832137753
Ni 6.020419586510942 9.009690684328625 13.085321631714997 1.6579573616124479 -1.938011173911088 -1.4954903812920568
Ni 8.971528073123872 9.249466212254264 4.108634763063301 -1.1750939035103118 -0.7352622276876691 1.9407193168708705
Ni 6.551679630562072 7.085341712595839 2.7658843584999313 -2.467559951884905 2.6737871080103823 0.4388376873404894
Ni 6.06495970166184 2.8421043753698862 7.84868796996075 0.26855892428516326 0.15934617530322237 -1.7756627214464322
Ni 7.9117079501958925 8.872867621565746 0.9055757676336704 1.113360945276889 0.20058101358329328 0.8688279515926779
Ni 4.824288463180722 0.1727865988843034 6.489190333137047 0.30688301667634243 -0.28238785974845565 -0.20508584343218228
Ni 0.6093327956441269 6.164234628052735 1.0325476816003192 -0.2477602423722572 -0.17530758372848518 0.6418033991058752
Ni 5.0976925228632695 2.036034427700635 2.922152756652477 0.9924177952318973 0.4080420421158714 0.4703018193870416
Ni 0.49843591571166346 9.106340127343149 10.707436234096368 1.038725420049185 1.5032078045409722 -1.2337160840288945
Ni 6.383043529866369 0.44049093898169567 8.73399910242773 0.5223540599975908 0.0644074197417923 -2.574146061877276
Ni 1.387754168906266 3.7441906707714168 9.979538657424818 0.8227183017188089 1.2419778098170544 -0.0349016969731915
Ni 4.124755417198707 7.14153822911984 12.641875627401175 -0.8976829281511571 1.0844113521220744 -0.6201858208360996
Ni 0.7721844537095498 0.627298736322783 2.4575995418330936 1.0910501975948308 0.8535738536470847 -1.613787351963453
Ni 8.940320199799078 3.7626249157544396 1.8784207020733172 0.015275952322464011 -0.22617326023010081 -0.12345717471609705
Ni 8.576727993070804 8.197615641702782 12.28899111014511 -1.1401340996056752 -0.921476173916013 0.5167863361018261
Ni 7.075929075384811 5.14780015240803 8.446562672018713 -0.6339671908909081 -0.9180913166041801 -1.300611046079231
Ni 3.4727417582840387 2.2195296470796215 7.395717605739033 -0.12891177007276508 -0.3119676302881014 -1.0065467784341116
Ni 8.381734646139275 2.974914731270299 9.586878998039225 -0.2914520268332529 1.7938566187466396 0.2472110547370065
Ni 3.1386722742028175 5.203903566684644 5.003743045023025 -0.5812891437709021 -0.2574921249480404 0.3542777039102221
P 7.468308497005765 4.703860706183046 6.258821856287593 -0.785578459443718 0.46127287641555403 0.7310088517279539
P 2.9731271681204308 0.918591461818653 1.1366462354284375 -1.2126381803126727 -0.844714603484242 0.5890356204855405
P 4.948579963445041 1.8549505565290234 9.412963999916567 -1.8784163450665905 -0.5979388365124413 -0.7335352176942335
P 6.456380170134688 8.446906219311577 10.345423041483812 -0.740048593332719 0.7101266089623061 2.900712930135791
P 9.138553504939745 2.2886580657659565 4.548987910718861 -0.16807069966041377 -0.638639656665913 -0.8101101260364951
P 1.4078083929938576 2.0402705799568346 11.18120098527242 0.9435064142431752 -1.2818203957352892 0.20677840064325678
P 8.447120354480573 6.715520965517239 2.857944791740651 4.782573267886924 -0.46395993632941385 -0.42904075585472556
P 6.203142057236598 7.539010343672974 5.060238419761147 -0.4326616404367645 -2.970975265996464 2.363747805093245
