# total energy = -340891.42712444154 ev
CRYSTAL
PRIMVEC
9.05307710796073 0.00000000000000 0.00000000000000

0.00000000000000 9.05307710796073 0.00000000000000

0.00000000000000 0.00000000000000 13.25009344655805

PRIMCOORD
 96 1
Ni 6.315598450727083 2.00088389620172 11.358642094568312 0.3306672635801337 -0.3190592470275602 0.46747000636520136
Ni 4.341221963675242 0.5418664857310354 6.06336162226605 0.6850447262930137 -0.8308481299147948 0.045889049222630644
Ni 2.545797647615764 1.648628674199752 4.607004005787248 0.8781042346882812 -1.6304164758797015 0.8767348651445804
Ni 3.2136340771162306 4.019303602349927 4.643203639061395 0.15306882693494284 1.0181041442544079 -0.030642150365889166
Ni 5.198077585675813 4.4596995810059985 3.02351221985026 0.11250144703554174 0.42525686333226115 -0.725332627278783
Ni 7.245738730196325 6.216666426413604 2.6932007509351736 0.2683897456971507 -1.0831566537793669 -0.5793237925144152
Ni 5.143016771997686 4.346563279043557 11.676975437443028 1.469294182512663 1.130484492331053 -0.24556297761062224
Ni 5.848631691382866 8.015449434001292 12.233188334130281 -1.4585022341034817 -0.19312070065050613 -0.4993714830594883
Ni 1.954830894034565 6.353440312150065 0.49339812264817395 0.2704054905755988 -0.5893518661743785 -0.594901335237698
Ni 2.8590974797366098 1.5663724175276916 0.432862913371367 -0.6050373952304354 -0.2543006145939362 1.0145377670593883
Ni 0.3064339786033361 0.24665017470885153 4.529941499330107 1.5357410012819872 -1.0409406825329492 1.7616592080784887
Ni 8.860382153730557 2.440410779475828 1.37770448441113 -0.36031773945671497 -0.9939722842032107 -1.0617105680904488
Ni 6.952491463398902 0.60604736907364 4.83367403978784 -1.318799801173116 0.31178251086048886 0.19628727130394583
Ni 0.7527760181643389 7.359382004464911 2.4273906442847912 -0.3793025080893338 -0.4683783771120837 0.9303541931319332
Ni 7.647514282816405 3.9359971887579945 3.845786898725591 -0.4797992173545156 -0.7938712955801295 -0.6573963684481258
Ni 7.7338082117838365 3.9454214418061575 12.6081260402938 0.32805116611352536 -1.0540355680436944 -0.14081906303331232
Ni 8.079011086884249 8.835395661499113 6.968197646504818 0.03316260279489772 -0.10299196488320972 0.057156137496017695
Ni 6.916396845816741 0.5374694062829152 0.2646639871154184 0.8930037775079329 1.6544424064806542 0.40866939128722524
Ni 1.8331484874828186 6.579676703767366 9.230902863676786 0.753260978257935 0.10431094080494939 0.37224482991160407
Ni 0.07421893500427994 4.733844855554022 1.5193217662866576 -0.4697994258293264 0.7647856910680829 -0.21049878691763746
Ni 6.408157108906166 1.762941876158602 7.1345126274588235 0.07180859730186988 0.7934779167964529 -1.3718154341381987
Ni 3.6504359842448078 4.600900421344336 0.4598763895197009 0.4252908018939901 -1.0774719446897638 0.718106541843989
Ni 5.956381412592513 5.7728212254603655 5.057533998720086 -0.07773216187515646 0.7685762684587667 -0.749626209718825
Ni 5.656262860431444 3.044567866093698 9.075929577457398 -0.5148076151089005 -1.2311853471872412 0.043493809517576705
P 0.2491089903936558 5.45189870259355 12.635235479057226 0.39105039265388136 0.319916709931849 -0.5256589560011076
P 4.1687246365093324 6.414376572733341 12.475598952928994 -0.23902389094052381 -0.6818488450635354 0.2155674596897965
P 2.514709381556788 8.20050337882119 1.4572982311682388 0.10596056059323042 1.2023483683508907 1.1053694424309803
P 6.278372198532992 7.883926332864191 6.157132487441433 -0.5849635072986957 -0.024667935060325257 -0.716990683071991
P 4.493069222442628 1.0001205638710715 12.393447711948921 0.7600425199561426 -0.012578607995958982 0.13284170125479058
P 3.8729515612580787 6.018594157018048 8.189948396468786 -0.1373529588615828 1.5602461855122032 -0.0008741750748372042
P 5.003391167039156 0.9626317724470121 3.732962022608353 -0.9966796558320449 -0.32163112151979445 0.44789671221896415
P 0.10370933299120902 5.452423781053486 3.6839097360657354 0.8245155028285477 1.6123390495527004 -0.5211330431062962
Ni 1.3105143583084775 0.7943386941913508 2.474388787679832 0.9864808609221719 0.08540741903222711 -0.3724780289683327
Ni 1.8102442029373293 6.378969988995235 4.873530210820061 -0.8328636176829269 0.0707089364797879 -1.6912140667830486
Ni 5.678633013440102 5.271099703914515 9.23218749528825 0.6942053097463593 2.1230742943644403 0.5266711993157058
Ni 8.566709392319048 2.487061284718083 10.394962881124496 1.086684464426967 -0.17210758873394874 -0.8673043158592999
Ni 2.1982138132918485 5.091568136000842 6.9129974154425 0.21118938522675884 0.10264280907390709 0.2772747068916063
Ni 0.6011270217809628 9.033359293971923 8.940381478332581 -0.05064276185753214 0.17053561626113856 0.6348974160146613
Ni 1.691657948683827 1.3031723129462673 11.630865400891432 -1.2062294485728517 -1.367616822675819 -1.475492598013891
Ni 4.303307677637096 6.728726561774058 1.627350322264686 -0.6485165494599928 0.582782697597293 1.0238539022539916
Ni 5.173208783444012 7.902702414345355 8.203980665656733 1.477943373547229 -0.11228650281125821 -0.03788777618470894
Ni 5.096909451369157 2.7590881392725706 5.1048770643448425 1.247033112852775 -0.45120237955342934 -0.6653328496863832
Ni 0.9459107394211156 7.43244938808809 6.747384953255581 -0.4869013756169357 -0.026411914334625478 1.3815388320735495
Ni 5.014562663928142 4.579028187564927 6.977710619706557 0.3124219442167006 -0.04418775026080777 -0.0405349839995689
Ni 8.270954423221584 6.950155769559874 9.193656694713523 0.01846129202898111 1.050017962243869 0.7098281038852808
Ni 4.618264222829809 0.4883790968173363 10.301112348872431 -0.20790325827631936 -0.9650818264211056 -0.20825961317447358
Ni 8.123235367518523 7.302637318484229 4.887561574700319 -0.08364955580085594 -0.7189508921221553 -0.20555789797259438
Ni 7.149006603568439 6.209614079512047 7.211734468069324 0.08168651853721415 0.05224095958258745 -0.3000045443889543
Ni 2.172014208756415 5.261023629329878 2.7024357946762225 0.9648409140548933 0.015322746399999417 -0.02903289689724032
Ni 2.7900043968705335 5.124168265901358 11.393503683077311 -1.5778428155480437 0.935702344817724 -0.2968839964821016
Ni 1.2062500717035773 3.1008146328451303 3.542956044726644 -1.8399279591834055 0.7379929963552709 -0.8428456685963033
Ni 3.780619230001382 2.475428080907429 2.607989569964438 -0.0307593926700438 0.08035340154808741 -0.13402440870898208
Ni 1.1710969741185442 3.228055628610683 8.233382343490087 -1.6139447034769236 1.1849126893729465 0.0390177760240941
Ni 3.472262377865453 2.8411452282529317 6.879302768545323 -0.38273878746439244 -0.6042665785026818 0.5102467352110954
Ni 3.6393640712016726 6.927495918090563 6.164963398955997 1.6243229613874541 1.0289464862855504 0.3786425059078317
Ni 0.8853320753752106 7.322517875346637 11.721509333307127 -0.8374610072456222 -0.5789129302292417 -1.1183303734670222
P 0.40324848823097026 5.548884315374509 8.040368933463709 -1.5812353861693607 -0.5841032161809295 -0.7127090249775017
P 8.578016685361463 1.7219767032066897 7.908887476480327 -0.13216087313768207 -0.37084023625459356 1.581346200715612
P 1.655382269563758 3.3271415552313854 10.507642002703715 0.5784760998021392 0.18499652888147491 -0.8979449235632921
P 3.9069549180773895 6.01843120163393 4.109702196381756 0.5021865839107803 0.6357978163417437 -1.1555131531649065
P 7.011010552451091 3.965446847898894 10.537574190843145 -0.6871350331631392 1.0461163131966178 -1.2473213335171551
P 6.525729418547377 7.9380184673145076 10.13747436275641 -0.9292401341321479 -1.1116830433538336 -0.42879752949566796
P 2.3104629137185357 8.702080051136715 5.670443600080477 0.1363818531975651 -0.3834031605212687 -0.8100826152326693
P 6.710439346445249 3.9702721378841686 1.206915472855393 -0.12613086489351824 0.29780213742099676 2.5875746765783565
Ni 5.29896507459871 2.5438783953139286 0.37593535523739696 -0.5096576954768449 0.4499620793884251 0.5471202111986772
Ni 1.6045401897189098 1.209943727076921 6.96182428037042 -0.5906351037621763 -0.02694207580648263 -0.1106682504815449
Ni 6.9774507963996575 0.7735283863317794 9.183082700899638 -0.08648496836712202 -0.04994625001113979 -0.04599857821730143
Ni 2.761460045419179 1.9589138317144128 9.19066193687651 -0.12786944485117976 -2.1905523826117563 1.1660611038840822
Ni 6.4544364379957075 2.125191695053147 2.589214393790964 -0.2644716415896671 0.04355654443471208 -0.6147451094365025
Ni 3.994208473195739 6.977142991785212 10.31253461599142 0.6950722857323448 0.6792093505581592 0.0048038491465465655
Ni 8.278233097045526 7.050137950793228 0.35900338551983646 -0.6960858145985237 0.009379898553003202 0.2571180294380733
Ni 7.834976346090492 3.9749887909466985 7.915380343229744 -0.35660840892592777 -0.6491541830439916 0.7265045360996971
Ni 2.9464325125470174 8.33079526150051 12.585335824517195 1.5348696544206277 0.24248639556782753 -0.5646006273716275
Ni 0.14849218846993262 5.0500507253583065 10.452124008642368 0.3099058626630663 -1.0918009597179261 -0.3158600233639722
Ni 8.727573515674303 2.2126625240169866 5.832253769971307 -0.9400318254310133 1.0259493513304394 -1.033519964588846
Ni 3.491626909344821 2.932264447205638 11.642101174626374 0.14611245022176772 -2.1270152812900593 -0.20212650369354224
Ni 1.2121436247625157 3.3574059912928758 12.67166053394607 -0.797710981041194 1.0927831211255372 0.6975480009663471
Ni 2.9473378202365628 8.678913227361257 8.170404614066888 -0.13362151684360857 -0.3610978121558491 0.3819258046447938
Ni 5.777067118524331 7.851081769887498 3.546215152409006 -0.8301333632359574 0.07219194878321761 0.668599693363113
Ni 3.3424412551846965 8.334525129181436 3.5489048215546446 -0.6070310286216964 -0.20624463962697384 0.946179590199964
Ni 3.3161782791109955 4.204466184092571 9.090199942567697 0.1522563583359765 0.38765447959845495 0.6667343580196001
Ni 7.192271258051796 6.067182020715929 11.395239157918168 -0.008389509615275874 0.46785850005287166 -0.5534865197363371
Ni 0.6530907778531576 8.852406392985666 0.2924641756459669 -0.018200839278742848 1.574090290484147 0.07937483968490201
Ni 4.669405054212207 0.19460494094459782 1.5994324437344964 0.11172420254988501 0.2109728983405786 -0.5665682926209596
Ni 5.949881303381581 5.790148814638257 0.25933715667013546 1.4089457633315927 0.16385177648305976 0.512805239966891
Ni 8.142255882075863 9.007730033280904 11.133894028792623 0.6311346065381195 -0.8661714878064372 0.3149804489724962
Ni 8.875672800606973 4.8154130783820275 5.740960731942208 0.29055136939585446 0.6176386289342136 1.116487920941645
Ni 7.875289697505932 8.71587694032538 2.6669920933228455 0.36579264652835713 0.5945364956991116 -0.38641160833028937
P 8.405365455888333 1.7039610801847438 3.359773370901036 0.28350269007918916 0.5175877489571988 0.5084947855169953
P 2.0789123659636055 3.3957276657913162 1.4713567542791832 -0.24551901174656424 -0.30823798804234015 0.31446340012676166
P 4.516471426217366 1.3149322598334572 8.251853336279874 1.1489470699116147 -0.5077455660557966 -1.1823102187530927
P 8.545498033153008 1.57156888366568 12.404670811376212 0.5022796578452188 0.6315560103462543 1.567457615658978
P 6.466884418726952 7.830259693027963 1.3128527680705722 -1.3456639725538115 -1.444532659297267 0.42671930681040054
P 1.5305765514830814 3.330808051374043 5.825615148683872 0.8604890927096794 -0.9123767827179061 0.06422615696892164
P 6.822099996873732 3.933942140302727 5.914497352335713 0.007497079707993539 -0.5456346277920862 0.45432806966660466
P 2.2502599523637916 8.455428971120174 10.491742083752237 -0.22524252088571534 0.6496442353065328 -2.121598224039546
