# total energy = -340859.4135703831 ev
CRYSTAL
PRIMVEC
9.46772853112397 0.00000000000000 0.00000000000000

0.00000000000000 9.46772853112397 0.00000000000000

0.00000000000000 0.00000000000000 13.85697771796200

PRIMCOORD
 96 1
Ni 6.431607866413831 9.066959566019108 6.943648187318884 -0.6458012074113588 0.7179607602947442 0.891886118963722
Ni 3.5360356486007856 3.0325039753112804 5.878850632261395 -1.2988992055944466 -1.551104114001619 -1.4272723295549226
Ni 9.302166345492843 3.497312638978454 1.3742682502223258 1.7147409462603953 -0.8609392928732205 -0.05070498255403525
Ni 5.451537013828285 4.325256029800768 5.400355420254358 1.5518744165087404 2.633751175134419 2.6779857194727623
Ni 2.169520521258588 4.655537739012267 9.479433466779346 0.8566537781239891 -2.655321445106027 -0.1857506334386801
Ni 3.0657072992099397 9.070311141913068 9.384942695890897 -0.04592170223277898 -0.37002596788341435 -0.3153049221914505
Ni 2.5230171007864586 5.2976580222899585 6.349253776707502 1.7145848802985049 2.261991769499666 -1.0677290063703868
Ni 0.46033610871715164 0.5210261420377064 9.762864121439229 -1.282448002016959 -1.3136923047432214 -0.5236799778978658
Ni 3.2516156163111867 4.710554709407222 3.7901324400056886 -0.7588364154631835 1.1106430321250937 0.43456040012137415
Ni 6.82660150001864 0.47157430246329035 3.0225808490557386 0.23736758628402344 -0.010343548017853156 -0.43412511235616846
Ni 2.9193362163832295 6.614335026734368 10.364242875375401 0.8062519286326695 2.201436119403796 0.8820418791797906
Ni 8.858555925968554 7.375445721976232 3.2554197496281185 -2.2364411747240713 1.8500074549065946 -1.1443316826267904
Ni 4.78890963058923 6.940517209499298 6.582120133692572 -0.4831015422548712 -0.661089758139313 0.13691150044879002
Ni 1.534652518022633 8.54249474498511 11.4988526201767 0.09030228523068319 -0.010016246585421459 -0.8959718589973213
Ni 7.743702490257456 1.1861075605075941 8.143066427344335 1.9093523725238148 0.9794928596401131 -0.46298008891464776
Ni 4.140976162003931 1.2138669405106932 10.603262309121732 -1.3379118394122185 -0.6180536049844453 1.8978132615359637
Ni 5.552283112945945 2.143702025600863 7.298636880860562 0.08788930491381637 -0.07552615536277316 -0.196989439577293
Ni 5.364585395155548 8.036151156326941 2.1900957888652512 0.8707750480167196 0.09635851872709213 0.583890328839175
Ni 9.22698311336303 0.29009782907945497 6.298148871734538 -1.385774210311136 0.575832491531705 1.236844088134915
Ni 1.4194113265500126 9.2210184443992 7.663739948773768 0.6732729304690662 -0.6190133977945533 0.7601417645381683
Ni 7.5106259496993735 6.989247608160946 6.520816591564309 -0.23219349828225172 0.29873750475107264 0.2505092658723041
Ni 3.470197064514308 9.270032874916266 3.2886902943992276 -0.1455681476825235 0.4273687674689414 -0.31361185075974374
Ni 7.61751660462263 2.3884522754167286 13.294591953566137 0.6173686631022787 -0.23851404118364083 -0.35555399951948446
Ni 5.157137995684913 7.4681253163999495 8.909565206883526 0.33647872805558826 0.57653414558442 0.8179311647428107
P 7.132039889609357 6.454396688947072 4.172252803149988 -0.45771781207444395 1.6071384791883678 -0.5557269790310816
P 7.12507164142304 8.510853596291263 0.9738382469047683 -0.42403404666875366 1.7975412666870787 0.12549503108173227
P 8.937535717232487 7.819804092053128 7.92028793509095 1.2644402525856286 1.3018747432830031 0.11228547436999371
P 0.3409026070585241 5.460701775029854 5.694705206209458 1.395719494449306 0.7884858628985001 0.17485918333715691
P 1.3964804880890622 2.2401687114301865 6.095725995786291 0.6569184003704428 -0.916693664925705 -0.012693279196952333
P 7.319680801028669 3.2473835416654206 9.022929894564669 -1.6451298708304765 -0.1571183144139681 0.40446435206694215
P 0.47187632300288757 1.6804366016814742 11.86456635657906 -2.9392038871221384 0.2890534446940893 -0.45202101879998285
P 7.3152593718126235 2.455957179721673 1.6091417656523683 -0.1074425444553956 -0.41413169995337706 0.1775164184543459
Ni 5.926419340634372 8.16475131273284 4.97663669833802 0.41046119308032536 -0.09240621894756343 -2.6583170373992413
Ni 5.874640333391212 0.5341616685780542 9.108468928143115 -1.2309578045574672 -1.4809320238619075 1.2103303581151028
Ni 9.272835322556418 3.939285141469817 11.612978513230372 1.2705461083730507 -1.9241393010250023 0.2207873133278391
Ni 7.226452078351139 2.962433316579037 3.7343864545151537 -0.8756969107983693 -0.2080423549573449 0.33231739758904705
Ni 0.5020054754530453 5.970595761880778 10.39317625371424 -0.4045270869840775 0.04385479240142124 3.104267424525112
Ni 5.874867558875549 6.818137350727109 12.105040033425144 0.20939346966860065 2.239520070759711 -0.060498828716005475
Ni 7.341163077026975 4.579180508546716 0.9106695622592438 -1.6519556355030582 0.9323964203729426 -1.8760468163931496
Ni 0.9492249930868771 5.347827515685738 13.715372839324575 -0.08540947591475613 -0.13749745485924708 0.5970834304906814
Ni 3.2318754023594605 7.007586598292598 2.4748282561958126 0.2109929529452366 -1.2695230664251749 -0.6888137064171427
Ni 7.797999913285346 5.001744167584343 5.421667277139411 -0.23056110488515133 -2.145601014712047 -1.217993016866683
Ni 5.268800385779234 3.5188895922618997 1.581898376853283 0.0717386632958829 -0.9223027835823664 0.8588582419744757
Ni 7.161077412961849 5.179283012679199 10.3907515684418 2.0256343696477117 -0.13057270271495577 0.6693211449101698
Ni 8.137796689653433 3.8670747760934057 7.22955938684944 0.37754335930638205 -1.1367289305788681 0.22233820275472677
Ni 8.410817576812155 4.939626400803875 2.9369859558790608 0.2688155203806596 1.253525405445338 1.4875515860609543
Ni 9.015928509328553 1.0212649393500361 1.5216211364959393 -3.9064845209667753 -1.055570259520666 -0.6327598008463683
Ni 5.669929107461126 4.700992303608064 12.378022102896956 0.9439699841431549 -2.5427048126488594 1.154419662990412
Ni 5.322501341910741 2.828010507137017 9.89095870114248 1.6735364469976273 2.084487692340494 -1.4470104314137984
Ni -0.14015078519300056 3.6197209009361857 9.314784934056325 1.3241993749221324 -0.5875811474272009 0.4625301458614228
Ni 6.227133333696596 5.080411523807315 7.887349707590683 -0.624133749740254 -0.11173834361727207 0.21797324091781173
Ni 1.2736840492622559 7.7619752062895095 1.4167792980231158 -1.3674252754903031 -0.7368295721747892 -0.7746147613433627
Ni 8.884052518856803 2.5278551100571214 5.512458059724581 -1.0151077806302453 0.8982557699354916 -0.2156150250982803
Ni 0.700485989248056 0.2765656047143698 13.532170399032635 0.45548789430266073 -0.4738216596148421 -0.16645373288228105
Ni 2.0277223513041487 0.36293495808349413 5.294377454359853 0.7642257047995548 0.12907812044730027 -0.5273402003582724
Ni 1.2327739943531861 6.438055389531877 3.814396334641413 1.792614261699106 -2.0501063866471467 0.5966815670665724
P 5.923342328867318 2.3104949988323082 11.951490518839105 -0.5043884766581055 -0.2611145521919761 -0.22417217063967199
P 3.720684757809668 5.868088665259512 8.337092374873501 -0.31247490894182317 1.6063861744033754 -0.38338516279913976
P 1.4924169811216013 5.073679968833848 2.1745895431049935 -0.5954726343601358 -0.20201980291234883 -0.40158111698187615
P 1.171953306379138 8.690087164790128 3.2948982839858685 1.0095146028131838 1.52237794971152 1.5271247203678862
P 4.797544198994014 3.3235514175606915 3.891440922197081 0.05024501219848121 -2.9254266308323875 -2.8454478390148994
P 3.6931999419334756 1.449045316798887 1.6996276873793876 -0.18427070645904392 -0.04254738644390737 0.05287756472532183
P 3.982117145267232 0.43604665121443986 6.8669501186268285 0.08469188102244124 0.0362425272718021 0.2759780995673699
P 6.390489521477454 8.501859254202946 10.69126768597808 -0.7512519182477062 0.29795023296308687 0.11441974710417716
Ni 7.765705491324032 1.7208353992507865 10.597899787691395 -0.7578809935284496 1.7527333663437688 -0.28019650852409167
Ni 1.447852383006121 6.665706921651427 8.53607846537116 0.3074383749591802 1.369298581253616 -2.61903675174238
Ni 8.379129089475738 7.806464062576877 10.189271678253547 0.5101402915402182 -1.4516623283635126 -1.7103986101312993
Ni 3.9963755444093425 8.747849776454148 12.090615002261186 -0.18566398726214475 -0.5021464747014642 -1.5630695138936113
Ni 3.689649543740719 5.2185456828268295 -0.04192783572432635 -0.27424440470571476 -0.26263098883650254 -0.01121566621016133
Ni 5.126131184801505 1.033156406363642 4.9461790157084256 -0.09418799343833456 0.7359350853849778 -0.12490933378159134
Ni 8.23269173254943 6.766509827140171 0.7608976713502986 0.5994503880609612 -0.682747702728721 1.0552177612772538
Ni 0.9689652070386036 3.3536019878641823 3.732722974615241 0.16613954407597195 0.39500012133024875 0.14464100788256382
Ni 1.102535920914362 3.949576562364554 7.256968460897521 -1.408432056919968 -0.5008989754476082 1.007718687255026
Ni 8.385197903453223 9.377093948952776 11.673866422076868 0.7676882094268586 0.41499687616714975 2.1004465296625954
Ni 1.7510090500249602 2.2210344321033575 10.185737375199265 1.1613040488150708 1.5160376093157892 0.9328602473832386
Ni 1.5787531974409266 2.6998742694283044 13.684472067000526 -0.45318264320825175 -0.07049990579277536 -0.48615138482478853
Ni 4.980214552943468 5.268942401706944 10.169760583331861 -1.4779266613766804 0.2812879418160575 -0.5058918006765093
Ni 9.250018096837634 7.3975907389705196 12.72720423854099 0.23774528133841633 -0.4846552598952362 -0.7292764424178795
Ni 8.657726468729216 5.7300302480681085 8.542646228641333 -0.8335783843617643 1.1657898525005665 -0.9050401398471769
Ni 0.6625298656353601 7.83385420116793 5.638141208975312 -0.02112238380091201 -1.7032262607525765 0.21129660022858449
Ni 1.4438285983876635 1.5089192319215337 2.1606218032282634 3.1927426838493855 -0.05029206338633274 0.9697630339468589
Ni 4.017535917638171 9.017746313203244 0.44667038938001885 0.3738240014732659 0.873728731328405 1.778643401341311
Ni 5.550257019043945 5.621785707967347 2.964630776367141 -0.23522097225466584 -0.5088375135683947 0.6851066898792006
Ni 9.102946402100887 0.6694403606777414 3.988439694368893 0.7462349246490891 -0.2079179135643387 -1.1650406330393677
Ni 2.90434880214554 3.606835322428608 1.5556670882323462 -0.29090309630831834 -0.8317210194380514 0.3272096440488365
Ni 2.6613216789192258 2.0092318775162727 8.095218420980194 0.8399657759453469 -0.11643960574768332 -1.0045361757619862
Ni 6.280540790244169 9.388227997685261 12.858458199249368 -0.2359280256240195 0.19283942196466144 0.17578632313711662
Ni 3.5531911726681846 3.8109216782767685 11.554336349587397 0.01330083087396419 -1.4743260885096159 0.11200573834604581
P 2.4025686586311283 5.4884516873044396 12.077395212937065 -0.9659706567839622 -0.042037536687024375 -0.44353534992647486
P 2.3025515746090477 8.00989714515757 13.451467481179149 -0.2463741606580079 0.18107662500177849 -0.9248479186017233
P 2.611161653251961 1.540692928814576 12.174823819983411 2.344392540495085 -0.42336453140555474 -0.19933428566038575
P 7.377623299534457 0.8509537582027814 5.370659889770142 -1.592039161653084 0.2471470342682905 -0.6594169984225805
P 8.193088224175295 5.334875663078561 12.571244240275282 -1.7191617010359102 1.7555083579857442 1.212638694533305
P 4.114333973965486 7.018947872509418 4.4044961835988365 -0.03131320829098478 -0.4580883080399853 0.32816712286609934
P 5.24802818941948 6.305866964019165 0.8972632586833951 0.6177255322210652 -0.5469340633298 -0.6713008943443599
P 4.225267348964229 3.852986796064548 7.6484277914480465 0.3839790876293968 -0.2124466546726277 0.8061979354662825
