# total energy = -340860.47072298627 ev
CRYSTAL
PRIMVEC
9.41396296445424 0.00000000000000 0.00000000000000

0.00000000000000 9.41396296445424 0.00000000000000

0.00000000000000 0.00000000000000 13.77828637644155

PRIMCOORD
 96 1
Ni 1.457112029005439 2.996840997749037 9.894834873728579 0.052989921933470026 0.33206954324429905 0.7456965356471158
Ni 1.0808547537713071 -0.0432844607135462 4.706153096898651 0.5492100038481703 -0.24357962863200633 0.9783194081573021
Ni 8.687195689771356 4.138331087533731 9.564941366522072 -0.704513890761219 -0.11590713028298102 -0.6834989790724486
Ni 1.5321130726351009 4.978790880827186 8.573745196851293 -1.8808552935253866 1.1061153194580693 0.3076054966646638
Ni 1.1229916523889005 0.776730087625108 7.378864757017489 2.3373785710710973 -3.1098297491042377 1.4940176534012721
Ni 0.41106728640890283 3.6057078860176004 13.028196222251182 2.879569206178641 2.683611293189655 1.0993808289477132
Ni 5.3439396796607905 0.9850488517982847 10.44817067675017 -2.0118910519196898 0.0950472561148363 1.8854560255221915
Ni 1.6042993413124258 5.691682060812552 0.9149138856698369 -0.786220206792775 1.1795141440651946 0.025743941733323405
Ni 5.162513783736246 0.5124584926602581 0.7464604308299762 1.3075260280315095 0.5432774404138192 1.2524411712422236
Ni 1.2614992907625941 4.173228648564878 6.355179118064081 0.594861483138698 3.8410656292413337 0.5195464153454665
Ni 6.97858963785059 6.1055387044735525 5.659334742371999 -0.6608786705697715 1.3297717268035874 0.09266872858033072
Ni 3.1611993786615846 8.810320912519234 6.578525391456039 -0.41075841260577 0.546954117934458 0.19160349267503132
Ni 4.806882501547499 8.933323753747446 8.669669714758761 -0.741416163104207 -0.3546428005591247 -0.32780691131320316
Ni 6.460398041692093 6.995553599269021 8.581089029427607 1.9032385463165933 0.46064141347914217 1.1304394980257306
Ni 5.294120987193341 5.926993481242705 3.4264528499726845 0.877144184767857 1.0356010154875908 -1.3300704889909287
Ni 3.3169251554560955 1.4754880848815655 8.915998296147844 -0.11627145560093526 0.038319207295172714 1.0182054457189624
Ni 0.6324083856709352 0.8354562719316923 9.912512413546299 -0.47029359185692554 -0.5393307970612453 1.6580008132558737
Ni 2.783887739565708 7.2838938735671155 12.30118503908518 0.21297913013732997 -1.18899482986212 0.5312670462165044
Ni 3.9258767693921204 0.228503242351457 4.338795782333213 -0.4578381397023922 -0.3602560329808441 -0.02102545321173153
Ni 8.966743322579541 9.346370796586037 2.726516224542205 0.3254422677357685 0.4173381227058167 0.06574696448882224
Ni 2.671475606770202 9.184036417729518 11.023111524974476 1.267519919952217 1.4715611241699689 -0.28047110234171696
Ni 6.125571617846707 8.560276639913805 4.644205454435913 -0.9024914052833941 -0.2948055166865181 0.01532737438568973
Ni 6.78308986716436 8.428339947749917 1.693200101387324 -0.03486081643292705 -0.3853019202058784 0.9752669944842236
Ni 6.739456148421611 2.952906032188646 10.667617686646281 0.9738595726137357 0.6647396961870745 1.5103881243394954
P 8.637678244121547 6.561880563385046 9.626048342084328 -0.6289931347150846 -2.0249584266266094 0.13368939396706653
P 0.7713236486447497 8.089380794125011 6.434432448804012 0.3682112832721788 -1.1248951711687336 -1.1192587988185627
P 7.857288949058402 0.921023547690127 1.1244912967029717 -0.6568641500937397 -0.15909729251720986 -1.2805870375488204
P 7.7832198877708185 3.708367153091965 12.743991501921522 -1.9117625246272043 0.6506713910194666 -1.1912586861956322
P 4.568728064275857 6.427260891751537 10.077493998812844 2.5291422434730766 0.841183450402532 0.2678068766104872
P 8.93247649707283 1.4006188367346215 4.582850891645408 -0.8844294055753606 0.41738234568019084 -0.018545109992039028
P 4.6522110886147345 4.687419310426575 6.700422092025724 -1.4517417754511968 0.6900655765463728 -0.7313436093595533
P 2.1108835210286765 2.900818574625835 2.1219383378398113 -0.11937297734439442 0.0017756038431840388 1.6527907298098439
Ni 6.48161711440971 0.9552536587409383 12.633848134221378 0.055906581359632744 1.0245162184283387 -0.5662006248688959
Ni 5.399406749959017 4.850233801398711 8.599331407028405 -0.24047630711633422 0.651616014320923 1.4533366307421423
Ni 8.260423088803979 4.913222628174921 3.9023550413121564 -0.3419644337605078 -0.9296592239474377 -0.874304658436533
Ni 0.5638775588464278 6.101293007137419 5.044299825512228 0.5314354534735686 -0.2606800357577188 2.5295711034803787
Ni 4.350352363374982 6.917220012719201 7.705327816088103 -0.5410729765633326 -0.9942785025897201 -0.3506041117133768
Ni 0.4373501298518115 7.91066611955924 10.64584789709016 0.726989960376548 -0.04790813653518846 0.6055014793510475
Ni 0.18986080681850404 6.863023827432899 3.0286601928624117 0.17041143197844844 0.9617905572643437 -2.4079507248627046
Ni 5.647389364656211 4.29113853578234 4.923891472500953 0.7312135115395922 0.664044984112895 0.23341065851880446
Ni 6.395036896226956 2.960587826038503 8.326742575707737 1.5648996251238148 -1.831615068442336 -0.214232800038773
Ni 1.99119439479452 0.6693290073618063 2.7449374674409777 1.0351351315947657 1.2915687333713046 -0.3101298057484143
Ni 4.373350675109293 2.581035663736418 4.43151013884019 -1.5186138546833974 -0.8778805487132494 -0.580910934495877
Ni 8.467398480449736 6.435949979647882 12.515713253286991 1.297324147797843 -1.1169602325923733 -0.4759852429250641
Ni 4.288512040091029 8.097806291055921 2.16222633411413 -0.478318261933615 0.35725889802573313 0.37346713235447937
Ni 1.6134967832135403 8.20325209119347 1.4259282763980266 -0.474353363748596 -0.7140316004436671 0.3646456774081075
Ni 8.355908916033258 7.96804422435688 4.798922054391325 1.1562729141490669 0.5502975804853942 0.5858942466430813
Ni 8.757941622101832 1.9518440292401098 12.140805940354413 -0.503411714567133 -2.8401025155425863 -1.5096643587995935
Ni 2.9438121438810962 3.476830731845381 7.812178179512904 1.8407286007078298 -0.133302442941293 -0.9715124125377976
Ni 5.613941553934963 3.5571694925251265 13.27736311350023 1.3979082745705087 0.1770621045257467 0.9536342467057964
Ni 9.70212446029445 2.37769406182846 6.528441225230543 -4.466215736061244 1.4890770215665452 -1.2320829193008458
Ni 6.894937162176787 5.759980362749692 10.76482344492503 -0.7208990169874616 -1.8860116409153456 0.028822066438014878
Ni 7.600589004575708 8.494670731409336 13.121572380360664 0.2573622842383954 0.45314073422672285 0.7868493557363416
Ni 2.6259402674910914 6.918236720728741 9.562833580194889 -1.25359765344417 1.7872625104688897 -0.3141240145094719
Ni 6.603678559332793 7.976545032992198 11.042979693994234 -1.1054473468567672 1.2040198425160427 -0.4704028637412802
Ni 3.3126418022677564 4.704957523591136 10.075812665011881 -0.7888522450989833 -1.5847778521049805 -0.1904423824873946
P 8.255207753273561 4.327015148970823 6.040290526565031 0.33742849356336724 -0.610699221501903 -0.5308489848424793
P -0.17799638918495778 7.68780937224595 0.3800755786477368 1.662356519121408 -0.6434478766878338 0.5253517091733338
P 2.912463646920286 1.9073065700444365 6.101231816377585 0.14697505533237912 -0.7133991090659907 -0.07501604849557403
P 1.6453159783269153 1.8860686694007163 12.161363211469524 0.8090392615698196 -0.41928084825448436 -0.760365193402884
P 6.462996295494249 6.115837580051669 13.198041060830024 -1.4421456471223293 -0.06467815690467571 -1.132194018822992
P 4.663197183495595 2.984150975555892 10.241276245186652 -0.928070282193763 0.2794981969054864 -0.19850227667739362
P 8.894255807084575 2.0821991756113825 8.720842135112987 -1.4451306978925822 1.0855552359185305 -1.6398999898901045
P 7.386101270415018 6.819954946473228 3.135979371647167 -0.8653983570858386 0.6806599669617568 1.6283837617203891
Ni 9.16812682017283 8.278846214495362 8.26879021916397 -0.6401995449538651 -0.11063482614044819 0.6299755532330118
Ni 4.327617642606106 2.6173641471513625 1.5266482670838244 1.2374506113706623 -2.0133614658176295 1.145990558386452
Ni 2.965793747605868 3.7653781133306032 14.040211371209898 0.062273661228241135 -1.3511206247930088 -0.9950953420640605
Ni 6.722030902813665 2.2760985725788916 5.0879909694295895 1.2121689539857383 -0.7005423077079805 0.9199183425105899
Ni 1.4080558675451442 1.6337556316999258 0.5711357243589756 -0.6804902741531119 -0.1993373709841793 -0.5494059219090603
Ni 0.9808408103143562 9.162224265339669 12.588862570384462 -1.4003536507872076 0.1288788599523006 1.2398831320715549
Ni 7.52918409483164 2.2930154641820675 2.7487548294582775 -0.09896098934694571 -0.012389374803288342 0.8911057891542719
Ni 4.904034600236857 1.5265305925456834 7.196055008524403 -0.023984535840055467 -0.24098307154942367 -1.2244482855737235
Ni 8.52443768257753 5.809309529138474 7.537728207696995 0.6947190161579841 0.5130973172860132 0.41037788933789965
Ni 1.4742077859065892 2.855349133088083 4.5640709767543814 0.6732078815590858 -1.9141940168868326 -1.93038888147914
Ni 2.9168693816282913 4.818273396839566 4.658741554783417 1.2146909490766435 0.1058209496915726 1.6617070584628673
Ni 4.168860569709079 1.8387070212896546 12.630100435530657 -1.3040324130559542 -0.19262550618164245 -0.4861143609392661
Ni 8.085765832313315 0.46543009884121217 6.688558615788483 -0.6433733146961564 -0.03828089785806956 -0.4742561760490994
Ni 3.55152111469435 4.701182524407567 2.3200702525951824 0.3208952717950344 0.41850694620293727 0.8146272971805583
Ni 8.048222947664753 3.8629350124311665 1.0941576249590912 -0.3155023829142373 -0.6782672983598641 -0.0818011897382075
Ni 3.0548592520341638 9.338736072551438 13.959883907285814 -0.1234648880255809 0.26412171444941607 -1.0071342755064656
Ni 4.543310364037361 6.039142023072774 0.5680102886259459 0.44512017791509145 0.30336369066917435 -0.08337676175544351
Ni 4.379328541646866 5.109560241572716 12.057654287514941 0.33563257800520907 0.7594000012761374 0.4149017453501822
Ni 6.888780430341241 0.3313667924240348 9.16595031191537 3.197200462510423 0.01842323970219408 -1.7768834812274108
Ni 1.2942692961441495 4.810619844878865 3.121801943291918 -1.1797440006878133 -1.0805834937355518 -0.6506369382371052
Ni 2.2237757659397976 6.4895907411141565 6.872374716931751 -0.7835526872629408 -0.030600498494676328 -0.29688502492336616
Ni 7.824961399940257 6.09344176195264 1.1366428402095825 0.37997767977948754 1.0726914925819846 0.27966197617686034
Ni 4.158646419798424 6.668399555310441 5.383190257206857 0.4971022274093374 0.47052910490649935 -0.35692902549014016
Ni 0.7657534067072987 5.2048483755779165 10.992124524194837 1.0195601599746442 0.9161884431545124 0.39625739077611755
P 2.1392572056652774 9.120463925244126 8.953199453937644 1.1934423241105123 -2.6260152399427423 -0.3617151340248738
P 8.225186625102983 9.546229232165015 11.029807676892863 -0.9201152890127443 -0.6985080508867711 0.43287375644757065
P 5.8407709936559 4.1465306493514085 1.885462410180213 0.12905986561485513 0.23869119019145343 -0.05532114116980795
P 5.867553718536833 1.0351687910833758 3.4736855267899434 -1.5070976265136817 -0.5386911065947175 -0.0037939198247934664
P 6.455907581316625 8.30653267982922 6.91749866602552 -0.029345285931336555 0.4793857839661808 -0.5504266498640908
P 2.707691122628532 6.742976970602794 2.817246117637969 -0.06306273278843978 -0.6823062443159281 0.01874514181798707
P 2.229894841923139 5.07693144563693 12.758927695698706 -0.9022744041765816 2.320572812367668 -3.3045062242776377
P 4.79197078407425 8.505637998364094 12.983526967572791 0.048013294654485054 -0.33499108776646824 -0.8979431237910793
