# total energy = -381163.2885517186 ev
CRYSTAL
PRIMVEC
9.29814310371417 0.00000000000000 0.00000000000000

0.00000000000000 9.29814310371417 0.00000000000000

0.00000000000000 0.00000000000000 13.60877230300196

PRIMCOORD
 96 1
Ni 3.9423661811644464 5.088287932362146 8.120775952728918 1.076374597860527 -0.7736953348528869 -0.6471098989204533
Ni 5.395814717054968 3.512243379776491 2.9964744525348723 0.7175393564866094 -0.25561059165461136 -0.9759902458034933
Ni 7.506297938400796 4.636993259149024 1.4071196081100759 -0.9907710036570936 -0.8180628052246685 -0.29310756015880485
Ni 5.5924425490649785 8.28047992869812 13.210837970793408 -0.5068809040626561 -0.601881366099957 -2.5475711396022254
Ni 3.1048266438242216 7.658369068704089 10.442351197481871 -2.1704939212989847 0.4355908982684176 1.94700463565895
Ni 0.6172358435698183 6.973402761394236 12.94094913953102 -1.2203129232491112 0.2329864264971923 -0.7430891799312558
Ni 5.341281107808327 6.224967329324353 0.46609359776162196 -0.4490004868061042 -2.4566042242043498 1.77238739312927
Ni 9.060659221291111 0.5672016057663913 7.2535846370617465 2.0898091045534075 -0.35742062041457795 -1.9457882467533456
Ni 1.8003715528728599 5.320936770718531 11.370346790098315 0.5435772310424251 -0.3156731041641467 0.8564961695002024
Ni 7.372878883144181 0.36279122798665525 12.488253236153623 -0.1437652901458298 0.018539196454768075 3.7827182996506914
Ni 0.7315183905245561 5.579713391169215 1.9313024250375057 -0.5671591321274232 -0.3904541538307792 -0.09407820733334767
Ni 3.935318188699151 1.984707239712528 7.931083605652764 -0.9283309920543173 1.0678020257001675 -0.3443151933808715
Ni 7.248981126415879 3.311831203527199 5.187460066974733 1.1233113716213814 0.6735994605705495 -0.06930639970530644
Ni 5.065126257914851 4.860622898704174 4.801093397173098 0.9307303455244292 1.5633122260320367 0.7221984525251756
Ni 8.893971410043964 3.47189873689138 3.2643502358173997 0.03464021578168873 -0.5668462288726948 -0.8738554867142563
Ni 6.360255311342874 6.375848297311607 11.994077386619331 -0.0920740324191253 0.587033245343531 -0.9531984447199583
Ni 6.626312377836204 0.8305519828050415 10.670624329698194 -0.544886693882468 0.787493931298876 -3.8875303484617754
Ni 1.7227413561805829 4.259070233091101 3.9476187021982785 0.47574664455169674 -0.5726690062020589 -0.8138240845529726
Ni 2.3481809514022873 6.199230069240006 9.12982624813918 -2.0046150870835673 -0.7669855269328791 -1.3035475029997357
Ni 1.910164026527478 1.023809237943457 6.755952667739395 0.5573071790340078 -0.9207413526325176 0.31313413979237686
Ni 3.8002719584010762 6.584582311630079 6.363624958400161 0.30080672857527546 0.6102893876579941 0.0993566821234676
Ni 6.768118358163658 2.424528004347584 0.4180891445956275 0.8205650028212321 -0.7046756131500639 0.7340895475358067
Ni 9.28850091966787 4.277155121409041 9.73519859093529 1.021403640941286 1.2645312696375381 -1.1219851966107903
Ni 7.341804488923845 5.94209922011697 5.682057122391185 0.43747114601026593 -2.5002741542884745 2.143832095737082
P 8.75145877084136 8.669402658036311 0.04415595173936447 1.4396529626074628 0.2027492248792057 0.6689503918343124
Ni 8.054414175652328 6.492065787844218 8.925299643570767 -1.0328730750334665 -0.5891394930532563 -1.367359198139058
P 6.147439412206111 5.836211966561855 7.722924216577503 -0.7556096809957696 0.08694776693615348 0.4312822435907347
Ni 8.104149943062435 7.887196370248817 10.765083235576403 -0.08877325018066647 0.14088539749487347 2.2865607170882813
P 7.794131256020407 2.861559326054423 9.430430565298474 -1.1082601337152138 -1.4123288208712128 0.04440320870572353
P 3.327173139632392 3.7869570174903875 12.239920290026184 1.6670960906889225 1.5816979276280758 -0.9443469078665994
P 7.613830963283559 8.734787200273717 5.433900840982531 1.6088217804280616 -0.2958964357578517 1.0450459629505744
Ni 9.23967637028098 0.6841499303461951 11.152253264941367 -0.9600638043812239 0.1834664653901937 0.10731373218701518
Ni 4.020005675999817 6.3173536791068985 12.26498808380776 0.31175654271855985 -1.1788104331299505 -1.4445665978589959
Ni 4.973883579732876 7.237702478842789 9.430035394216977 1.9263743610031079 -0.9675575416551078 -0.9299317608825339
Ni 9.123012568879854 4.626774599888656 13.290708090157043 0.027154706037920976 -0.43455937168010966 2.197814977711441
Ni 5.433035183860476 0.463175840458707 1.0547515985318578 1.1606041945345689 4.681128335775861 0.9050895050278734
Ni 6.901965128002601 9.1320131713949 2.946694054037913 2.383496705585398 0.8397901695994311 1.3867211476054375
Ni 2.073857835698341 0.8241743864568282 10.678068423059296 1.3269039183374889 -0.018552566191206758 -0.2754001155767128
Ni 5.605543632684504 8.135503281575593 7.145680616269532 0.754128725574869 0.2681416342420866 0.11387004524829421
Ni 7.554043903188775 6.979241995257303 0.704449636349139 1.0005064857773027 0.06461310799469518 -0.20802538567648043
Ni 0.5029133145997758 3.1110842941265213 5.742847452125816 0.4516425524146415 0.43231634128220375 -0.6406867690029289
Ni 1.7534531228202512 0.1735926123087955 13.477515223431112 -2.3720725229088564 -2.1078291952799115 0.38651573800832145
Ni 8.880712257991838 0.7806302525330526 1.737363616010296 -0.07801266923005275 0.48537105501533834 1.0492371182137865
Ni 8.318658104242317 5.422184250869711 11.508843561298594 -0.37609402845436524 0.6756892532200427 -0.6143216487458387
Ni 4.983125933968369 2.0684835089899765 12.283631790525652 0.5939466846339125 -0.14375474862286858 0.8925674613014628
Ni 3.7386624622598585 9.048013746683196 5.783510091504743 -0.27634396754722085 -0.14197940189000063 -0.37006402021020135
Ni 0.04577010938049266 1.92600806235975 13.438513232408784 -0.521678888307437 0.02325562809383092 0.5918676906176968
Ni 1.9914204990264368 3.90778638699765 0.3711753636145659 0.6375654497651277 2.2085130808552353 -0.8159889534147754
Ni 1.8888247881266182 6.324150621708653 5.071527099620799 -0.12212714305076387 0.23583572302052933 -1.2309300366433251
Ni 8.365018645709283 3.4049800010434566 7.3968578643694425 -0.7360736678453711 0.5779685640381014 1.1259398103831642
Ni 5.953052432681767 4.221608014565148 12.857200764682853 2.249417275268765 1.7654477285866432 -3.131123625486007
Ni 5.330011758378331 2.804050311017684 6.199462522817356 -1.0479947611662532 -0.8289185169922497 -1.9932950340850573
Ni 6.531592194137052 4.59283637759535 10.025881789413228 1.3472835104351055 0.7316842805284237 0.2770553917919487
Ni 9.233493105123433 7.050261212209707 6.591599620223164 -1.3308068529363208 0.6873024119789389 -0.07531558201386385
Ni 7.08550117453618 1.3488072335100105 7.5733766023099385 -2.587405240880028 1.534872739744421 -0.558947028630276
Ni 7.818036781915226 6.087252531958284 3.191801474326025 0.32449738732399597 0.008826082932062218 0.5784264775111264
P 1.7333691337370893 7.965644803533372 7.088415212581857 1.9409481450522252 0.40580081149017855 -0.5678759556887898
Ni 4.498395138189019 0.6399874699066649 3.251734515267384 0.668003711650327 -5.133633236190797 -2.5956890781553748
P 3.244019845942246 8.222068993781258 12.506326036885541 -0.10926134283168926 1.1847414539024048 0.4428776617378179
Ni 4.321572350969348 4.710941391176055 10.494854092276771 -0.42583510443323436 1.0285248253670995 0.812039224738408
P 1.9073001984545086 2.979162239908049 7.478877714416424 -0.09443841888624381 1.5897238832563458 0.8382459650407628
P 1.317909504008461 2.687256335613242 1.7865870557359211 -2.0525052258966263 -2.0201828596148372 2.3246534101949448
P 5.409994385273404 0.603683800010231 8.757585317326035 0.16467452949467123 -1.0502550179553396 0.2712218158293071
Ni 0.6474706154687614 3.130536009479287 11.75566555917325 1.8942741380344537 0.057635134014965256 -2.241951820129655
Ni 7.01868471826229 2.0626628714130972 3.221019029370478 0.6374142688992441 -0.4506490781531207 -1.0215409378500988
Ni 3.5245355249468333 8.66724548883849 1.0160945686183183 0.5876299983872654 -1.851477868804534 0.1522455597026991
Ni 8.706344180549 1.182900466282762 4.968998335351259 -0.7864354081273746 0.11751098443499117 -1.0764175352833203
Ni 8.004204202944424 8.982313067580593 8.811366706796367 -1.961142617722229 -1.1582164110286828 1.6102142899002139
Ni 1.0814112344111364 8.51987921894079 4.782571496129737 0.08249924424649663 0.6145754166278576 0.45551771909933164
Ni 3.434176170358793 2.4526548872071046 2.262403721730998 -1.7429289786588371 -0.5079782508918929 -0.2714120774632422
Ni 6.2241862853044525 7.406928683154615 4.712813107380888 -1.918807604399444 1.2371577627205919 -1.2910709677992798
Ni 3.2455168469803892 4.101122676352365 5.783156762067169 -1.2449518048437138 -1.0050722507711143 0.9927939476243934
Ni 4.592399364869929 3.6144392705232646 0.6277250787942232 -2.2259826983949083 -0.6315788931643898 1.458096771134947
Ni 3.4124743043772656 9.053257899388242 8.474100741231513 -0.5504821856923746 -1.1934608360532735 -0.42940816649647334
Ni 1.2668719965651856 5.128976606541737 6.971502220945811 0.38224102189236747 -0.8363158378975856 0.8373653622080224
Ni 2.46635105198465 3.6261177382494 9.623320543784676 -0.20057458582539006 -0.5582592585346321 -0.7102415372736155
Ni 7.660721498906885 2.9476415348191978 11.699461073612607 -0.7353838408671981 -0.5234583488053629 -0.050212616298649
Ni 4.074120868807226 7.412963178022658 3.871981097571058 -1.7564064443199816 -0.5113913903385 -0.5180454053199078
Ni 2.5388300774028196 6.3836959300829905 0.3593695113280425 0.25607853242996537 -0.05519335734269205 1.519854411958718
Ni 2.5455619330029164 1.9850512710070083 12.69294255822618 0.5455235561355185 -0.48547158514894456 -0.4277924852699213
Ni 5.044688939394115 2.4769509351118746 10.028154255585417 -0.45051280968557245 -0.2853988786606375 0.25354342471293756
Ni 3.5369113534050225 4.895416550162134 2.442856504014588 -0.3331275521951682 1.6490348623118376 -0.36975394516895027
Ni 5.717065560954616 3.5683948659214972 8.128996441038373 1.722602608396659 1.0959224380854675 0.38657693026356005
Ni 1.7189012230827376 1.5362577982861878 4.530224541628593 1.5535525755421113 0.6928022587512456 -1.3612029487296753
Ni 9.085652629927935 7.982204796383886 2.736574616398427 1.1696161682251922 -0.1445271080125188 -0.12378858991358682
Ni 4.246210901192021 0.17956759906103614 10.919828511833547 1.7763013834716956 0.770058509431248 0.2598932781903653
Ni 0.6644648316017684 2.01765056069477 9.310019612230445 -0.7656719503277781 -0.2665354660972313 -1.2808189510539685
Ni 5.966748597459313 0.77717692218792 5.087789551892304 0.470794442752744 -0.0435881690035959 0.9854264515157286
P 4.243291284260488 2.1486428006038367 4.3197099329076085 -1.3405446490493753 4.348804253318594 3.8126873352089565
Ni 5.610192704231531 7.797924898402782 2.064886057426886 -1.1569419151916331 -2.5241615024290334 0.37820773236325833
P 2.2625357553629333 6.974565029280993 2.513921281868152 0.05607241751353569 0.9882009289370723 0.6375011721860957
Ni 2.2095642341560944 0.17058745246079646 2.620042848629237 -1.5936903241032616 -0.3010101028353332 0.625015123903943
P 5.72165884364308 5.67480550059213 2.903825895117076 -0.7047864276963153 0.7838861593429597 -0.7850896927327575
P 0.42115753181666615 6.536659682123313 10.268226731388095 0.789998957108917 0.5525840625267258 -0.032879781447156274
P 9.094727617587735 5.099594474364518 4.747842001859127 1.0427173148173978 -0.1495782972831811 0.6549275951926591
Ni 0.9831670544793363 8.464025273374794 9.13924340746484 0.08181533080559458 0.03366936722798717 0.2010075595977506
