# total energy = -340895.2113582614 ev
CRYSTAL
PRIMVEC
9.05016415327025 0.00000000000000 0.00000000000000

0.00000000000000 9.05016415327025 0.00000000000000

0.00000000000000 0.00000000000000 13.24583004292679

PRIMCOORD
 96 1
Ni 6.604158297298956 2.148807661214292 11.63079240993177 -1.2605964533595062 -0.7527745255398197 -1.1507136748937343
Ni 4.674771869637457 0.21799583267489886 6.1120628533952095 -0.22790926908460107 0.23619336347026418 -1.0765239789541974
Ni 2.61175976602599 1.4869238948342722 4.726893575897603 0.4683333828067612 -0.42083713699801073 0.08431392885773221
Ni 3.5635926963806193 4.0565098952031775 4.979240212205127 -1.02863306881019 1.1477617913542622 -0.1868667493209943
Ni 4.895460126192824 4.4790982672186095 2.42434443853463 0.4000340842097304 0.3073897811094319 1.2290528742252702
Ni 7.531646285675568 6.167180164040012 2.570433095747769 -0.6844862826863826 -0.5400854158390828 -0.6770797058096661
Ni 5.07974862191712 4.639286175401099 11.50342039751593 -0.22418451193484618 -0.28048627185036856 -0.050454814216442136
Ni 5.439239248404399 7.987258707236644 12.57524674132927 0.5471950303006705 -0.12746218211043212 -0.39466279259548803
Ni 1.7740856082032204 6.473998834277455 0.4236436211732899 0.5702457414725469 0.17219423491048408 -1.3779814537395947
Ni 2.7369144881873257 1.5135766287098333 0.2955702210238833 -0.2328247041083474 0.07092593758660043 0.7254097603736217
Ni 0.384667278564842 9.182930214436517 4.659670765479643 1.4978534822075946 0.4696235623730944 0.29212514164087755
Ni 8.77489450662207 2.374111501564748 1.2861016539428247 -0.8178668871637784 0.2615197580501948 0.9349672664239124
Ni 6.941385519598159 0.760362224238604 4.956245554741281 -0.30719874814454834 -0.808264331077008 -0.9286307826829233
Ni 0.8398905430608425 7.263544218331045 2.526204942793654 -0.6784146225710059 0.012295015317269148 0.6854663872114647
Ni 7.693770929019134 3.7706242550011067 3.7921491657819675 -0.021184861607731253 0.1241410881569991 -0.0256575526671042
Ni 7.552896071461585 3.983330266640262 12.762635823344148 0.6453970299944047 0.5132760089557225 0.12330599385021344
Ni 7.750443057891379 8.758160752823798 7.206512797935926 0.9161802156243962 -0.7269254256871996 -0.579261571817912
Ni 6.813588149460028 0.8408118497869994 0.4940430392619875 -0.004668866230579056 -0.8419249565542467 -0.23123216281024692
Ni 2.0519166021746464 6.616511771574046 8.997905940354299 -0.18365081348685788 0.0652707961833521 0.4009313992130192
Ni 0.15022458230011057 4.741543981873074 1.4286688922252402 -0.32739373503518454 0.8234004153874981 0.038697416570197866
Ni 6.408204139786681 2.0549484072165183 6.920190939814399 0.010628683358439759 -0.031186967125765644 0.9619247688493628
Ni 3.453370745321041 4.321127649290624 0.5063775081920392 -0.626298875712373 1.466820781271506 -1.5615016551858591
Ni 6.198647585325351 5.747514995094802 4.420133731728137 -0.5528776825077446 -1.0208487968790807 1.9906565680209458
Ni 5.351389303504544 2.6836814217506366 9.394009006533796 -0.15042624710577318 0.7337000254068718 0.05063016345204183
P 0.0170025436781041 5.781525512549592 12.37824185974129 1.3956619017384932 -0.8353272487320711 0.8251870749742756
P 3.8898058687217394 6.272976584754887 12.455796337728806 -0.1070028858148157 -0.19834312539171003 1.4012792479252705
P 2.234177861094824 8.500086267528213 1.2565112367341544 1.6138120345538012 -0.2441316444807344 0.9112586099530628
P 6.393986331664947 7.781666124740508 5.866312881848941 -0.7497755908124958 -0.4266288039791233 -0.6873751741984033
P 4.72111776103873 1.063502907702863 12.603195458733177 0.7054312603691657 -0.5800401018551494 0.039206494996132484
P 4.1137974352481015 6.153912623170207 8.284220843530498 -0.6293039810872839 -0.6759486775290166 -0.8871010388702527
P 4.469188337305625 0.9649918692527842 3.6898642088170805 0.9001653282533787 -0.5322234965925027 0.3070503954921422
P 0.120980786384287 5.517993778178638 3.834389902654902 1.0950742311525592 0.47844810264325993 -0.2784880104734171
Ni 1.3822315941644963 1.0946354729089514 2.5925933280627764 0.1003486137230917 -0.0014033081054298413 -0.22129304931966406
Ni 2.0901444961951454 6.143441583070369 4.8286744387107525 -0.5995426906644512 0.5650449139978978 -0.11410324430502283
Ni 6.018712218631326 5.647863635942407 9.23928468254169 -0.17967100290350346 0.6125568435359321 -0.2902901453146678
Ni 8.75988933420588 2.3765097951053336 10.258471650696688 -1.5321396570839743 1.2315933812589368 -0.9350672823368863
Ni 2.478432745498056 5.1899615228123945 6.994010414993613 -0.23062461113323507 -0.9884644670111041 0.5561812929596809
Ni 0.5692118939389433 0.2032856956150221 9.137079367022679 -0.204127593283971 -0.4657527665637785 -0.2486850681793717
Ni 1.2037714042520382 1.1041200450996433 11.40012996729686 2.1557265331818227 -0.6356767173828471 0.32782516614564833
Ni 4.1948235562626675 6.928534286286344 1.6221903655725738 -0.7399748026719901 -0.14320247566382435 -0.3254206704692138
Ni 5.557859751938178 8.027115630831881 8.101467255672176 -0.3421690935721462 -1.1010155363376586 0.36882423426582933
Ni 5.244552113894698 2.6451186716508857 4.781201801853619 0.9112917771838435 -0.24920648790048047 0.3692222410351964
Ni 0.7351176959287601 7.233859679413611 6.746869433193806 0.39490859005770695 0.7193712674890257 0.06457274167506298
Ni 4.994640876801407 4.33187924448389 7.167874931472452 0.49595808650256523 0.41247719506908964 -0.12796894654352153
Ni 8.128839477609914 7.218601102396907 9.155107294316437 0.715367031425639 -0.07060994900807839 0.02688628286788273
Ni 4.658499674218694 0.31624260632729806 10.38054479191248 0.6542663074595764 0.126336296036105 0.31228104776346216
Ni 8.186470923898392 7.391902698656031 4.704269975170226 -0.6683520961286812 -1.614230610148459 -0.029975463316167728
Ni 7.441135592470309 6.131051908138063 6.949941544931252 -0.7953098277988689 0.641116914561812 -0.2997044966500322
Ni 2.4527755296959453 5.348719505034836 2.450492173242022 -0.18843126559463677 -0.4568189544092584 0.954779158943517
Ni 2.307737596558512 5.291015657431924 11.305343071457916 -0.32996252420362526 -0.43928505929055306 0.6762723794170223
Ni 1.28719581880719 3.5384694402724506 3.8210780159800084 -0.5882311223063741 -0.190775083236465 -0.08684235170654075
Ni 3.4409086690743016 2.579323977160112 2.549544411517486 1.009792539064919 0.03317828652418157 0.6635575029535153
Ni 1.2640454985173137 3.1028307313305126 8.391220031081387 -1.3433013858589058 0.742699914912637 -1.2950209535859631
Ni 3.5643710105107713 2.3717675090099872 7.084161816676 0.11802983305293867 0.6502888108690671 -0.5600454039007774
Ni 4.33402413342396 6.727285782656174 6.094313671162017 0.2595855171419594 0.23054362138365453 -0.10147758512121233
Ni 0.9734175722198971 7.315546462422377 11.064824999895844 -0.6810967973888592 0.7488235113118717 0.40008859159674964
P 0.4880717408541453 5.489757265549859 8.090368134169635 -1.0876272879562108 -0.1944792715609296 -0.4731819691483141
P 8.446111087618586 1.5761132640511328 7.858485729386532 0.1452868689966788 1.5538703638928464 0.9514896895589678
P 1.7365455266698324 3.206237908669107 10.585087555349341 0.5908965849536791 0.5238846377095042 -0.6462514075749
P 4.085633323933757 6.038151971556522 3.881650765667319 -0.22171753845159234 -0.19249643680294592 -0.8238773550239166
P 6.8377249376590505 4.004399049140196 10.376465882860623 1.4275507800272897 -0.4060034144192879 0.18102186050444308
P 6.3417306829730995 7.710893839882482 10.268591544421527 -0.4604853475172521 1.1042764664771174 0.19471504172081952
P 2.5664908441769043 8.439794072934328 5.657664963883742 -1.3696071136329704 -0.7153716594113293 1.1017364736640831
P 6.847643917736339 4.011793033376642 1.6734387309773748 0.5913393289180525 0.0825601793914191 -0.5617479884141809
Ni 5.146937041710724 2.8844593168369936 0.4351590502338209 1.3712428494641804 -0.3970541756458001 0.2659374275019162
Ni 1.2981284172865373 0.9366377044880532 6.7897726420938005 -0.16577213343422417 0.14966391501845192 0.4249341898855198
Ni 7.04173374140197 0.6790537380977496 9.35296017629971 -0.7171881437947777 0.2511425285809287 -0.1396399551235466
Ni 2.8799975858350746 1.7250427678393272 9.297049166245438 0.2755772645845254 -0.46646984723546114 0.720815713245036
Ni 6.317430991816604 1.949007183872777 2.6522393409253477 0.23371199180930716 0.25107567989873536 -0.29163766048149775
Ni 3.998733646285832 6.996482919881493 10.345284446767293 0.8510945388686568 0.17219089247637442 0.2633519261629271
Ni 8.280456880196423 7.265824859735677 0.48963108416374096 -0.42840775025641703 -0.19692953287363502 -0.3854921818398135
Ni 7.674113972150638 4.103027739726228 8.095466996738562 0.5656573507709162 -1.3803802929890743 0.9757603891808743
Ni 3.0063197791916387 8.495506884390341 12.293839122424865 -0.009408437798093474 -0.6547928693870078 0.033270846237987865
Ni -0.017599854522174396 5.009157340345175 10.23825810872349 -0.19675984006499017 -0.6203159186560607 -0.21923719523189983
Ni 8.677243233780882 2.3467800053663797 5.7721748827906 -0.25328194352143474 0.19500789037088997 -0.4219442540192604
Ni 3.703372484057373 2.648186677349974 11.562086277584369 -0.3107833801720131 0.5214181784468827 -0.7110496349972077
Ni 1.1813088964492735 3.368480204148626 12.708102248296962 -0.9151551167939916 0.5804728185171938 -1.2241379534221564
Ni 2.8754996541759392 8.678184450868507 7.929125881845718 1.0817122080233563 -0.4750578460147883 -0.3556352463793811
Ni 5.516971109612275 7.882629757716997 3.61583386480958 0.07328826717118991 1.0284039835185192 0.11966968264920681
Ni 2.898541372494166 8.156379127587275 3.57499680842021 0.7265914393865487 0.4749830269127949 -0.9076287265099595
Ni 3.36904131433548 4.206335365257478 9.396168375736753 0.5927902024319662 0.4624730673712422 -0.5772185732459543
Ni 7.1779930151644304 6.183868667016763 11.486744564769204 -0.5200678350665753 -0.2560749328855396 0.1437802025441653
Ni 0.48274209909546345 9.223927458734071 0.37849325647658816 -0.536288667800812 -0.37932924756221126 -0.09398050541321878
Ni 4.530611802437521 0.28307103910349707 1.6453443059281716 0.08852822404939592 0.07509472425230938 -0.6997378095288143
Ni 5.861076456782591 5.677050415823115 0.4013177708515168 0.4624674109442874 0.05410578070546811 0.10652003264112622
Ni 8.025794306843483 8.877641021966465 11.433801103590246 -0.1800643816871802 -0.6473217578209433 0.33577193179655074
Ni 0.055042194281078045 4.684862802836523 5.943046509934075 0.9007057741378811 0.5573858547907433 -0.12967821592514442
Ni 7.939790595461664 8.803583527466053 2.5868709091732973 -0.2397286303170323 0.1576415339072898 -0.23384028985705532
P 8.452527654110192 1.6997656589379888 3.490687287796118 -0.12011294083421249 -0.1319202178817857 0.3220674377262647
P 1.824024414833219 3.295526829693313 1.4539016553214887 -0.5758198931262147 -0.05409472496187458 1.3982258058109274
P 4.794885650281412 1.0175823740238827 8.18633336140097 0.6177615276653232 -0.13981119059408822 0.4173828599008231
P 8.547997837354094 1.7317308392600537 12.492195193543447 -1.3789962681573542 0.2969117643962435 -0.20001357111559748
P 6.339766797319111 7.700232746332258 1.4242578421434242 -0.5020194622052967 0.5826050343688483 0.08903138893805958
P 1.8014714053874132 3.0518330554769344 6.054815134073222 -0.49769589512927825 0.9395065490551627 -0.3488935567801733
P 6.864739678106775 4.027386466472598 5.95671587809898 -0.2645870841216088 0.3705666708782328 -0.30443686912869505
P 2.456739501661139 8.79606284092935 10.103111100154004 0.011719859540089493 -1.2744500714131473 0.711250181043788
