# total energy = -340889.1595573743 ev
CRYSTAL
PRIMVEC
9.05906641831944 0.00000000000000 0.00000000000000

0.00000000000000 9.05906641831944 0.00000000000000

0.00000000000000 0.00000000000000 13.25885940767648

PRIMCOORD
 96 1
Ni 6.5968119508373135 1.7381901942364841 11.540511021026571 -0.8630118591315331 0.7962742485946674 1.6724265017629003
Ni 4.464289667328655 0.22231220038057256 5.958159565945122 0.27769045427278627 -0.15495498821406214 0.01254055566917195
Ni 2.599797973203989 1.522539125176223 4.7642398761973705 0.34797284473811685 1.8305084656417183 0.7037477020191557
Ni 3.285795755375309 4.3240462646770315 4.822220617105012 1.0024127016610802 -0.8059603655341796 -1.012065908480128
Ni 5.389908807521945 4.631429437299746 2.786574174903499 -0.24828397608621114 0.02904883773684029 -1.1813041460860816
Ni 7.243864807745451 6.237176084816591 2.7262598185625495 0.6549026554919947 -0.48892766201834503 -0.1989563334956767
Ni 4.975701127175701 4.40938266755658 11.661391575746693 1.2023774218166132 0.5578036590544522 0.034932550211126935
Ni 5.729044006906105 7.767216116742736 12.669728142803343 -0.8237557418443877 0.5323469095442446 -1.1045790853192008
Ni 1.8577879851935761 6.7404977986157135 0.2100471307565151 -0.3723741564006168 -2.1976779379129443 0.8713867134587895
Ni 2.6832682084621804 1.7968838836480128 0.21524794061778357 0.48994607598053036 -0.6091545027226025 1.4171054163242498
Ni 0.6306921834898295 0.11685470573501877 4.747958016654334 -0.4260837301089307 -0.7554117060523505 -0.4569068861373744
Ni 8.800964270181279 2.6037839622981505 1.4256986142269565 0.2767836261878007 -1.057597831473656 0.2605257695680417
Ni 7.0811277439101845 0.8681484247083788 4.914912981676514 -1.0535511722081081 -0.3521076928420968 0.153367074901652
Ni 0.40827761566206594 7.6229867249969505 2.372778682065857 1.1978026579617371 -1.0713871719482646 -0.06680728743253656
Ni 7.624934424213415 3.6681789364311226 3.876783863860841 0.049860118055236706 1.0262116038528908 -0.7307843944219737
Ni 7.578425178737449 3.771705944085845 12.53869056314601 0.8624253905004438 0.13152503932589607 -0.2963152684628252
Ni 7.677785015975548 8.768713994783063 7.257859253092407 0.3375074264304187 0.40172715564143713 -0.23273600104928302
Ni 6.889175191827937 0.5743764989356134 0.49800132426502935 -0.7127905289477143 0.8833122612517819 -0.16669310258659678
Ni 1.9979317381178459 6.049762124862014 9.259655588818365 -1.0333178758803687 0.5637272236277389 -1.2350895673376536
Ni -0.20499398367305305 4.909533708212619 1.4549738923103483 1.7843916166789981 0.9198160126047707 0.11859187620399576
Ni 6.50546032805203 1.9073682540852717 7.183252408129051 0.9464379860676733 0.5903522824144349 -0.8821789189782873
Ni 3.6016672729553636 4.3138185790240575 0.5216989353364319 0.390631817059224 1.103365524627074 -0.5860649678929907
Ni 6.170166172704062 5.399130936835254 4.83721608925857 -0.31621997780655214 2.4670079360361767 0.40020094880489787
Ni 5.123092132998447 2.893311715592246 9.704450300022623 0.690575683413572 -0.5472670211891865 -1.0402513697754086
P 0.26197369777409196 5.520295946231641 12.284253102479719 0.35977369402778686 -0.8688886296272842 0.08339784480136606
P 3.955043324285029 6.223632780962564 12.561827418024393 0.5658622676928706 -0.6551548807121168 2.7764337737390314
P 2.402210681993178 8.721199192967434 1.4428691681566699 0.506068949684322 -0.26994089223435447 0.699741151962924
P 6.292218970580512 7.880490679545908 5.709887705682209 -0.8103214707163529 -0.009883834772615237 1.6302889491629018
P 4.733597585036004 1.0734087449254508 12.69814190369843 0.1662570434904427 -0.5985605292568401 -0.8969432217716553
P 4.125308472068586 6.00481103875922 8.39272470259693 -0.19535987439366997 0.03917152799313899 -0.6190627629752499
P 4.626936140502691 1.17364731157749 3.9187092218785216 0.2612564770864791 -0.16552196509663106 0.23741952256788143
P 0.47302638487027054 5.942176655584146 3.708078687263679 -3.305815430007365 -1.2652905164010662 -1.1878265205856318
Ni 1.345198846750528 1.2287989061348885 2.593167642708496 1.1946003489743555 0.3309832521586558 -0.3855340908213425
Ni 2.0643256337340046 6.36660296251724 4.813641681486441 0.7039868146131553 1.2903487449212745 0.6003680147792241
Ni 6.081468856292846 5.656354060334396 9.417542428651329 -1.3904297068052764 1.0129336557970618 -1.3780171920735365
Ni 8.594435680706974 2.2670494154366096 10.312050923964687 0.6615571846940349 0.82260465895908 -0.63590631689515
Ni 2.6610100829977377 5.3634382163102625 6.841518162674175 -0.8016661090342 -0.634340772180243 1.6536803315036486
Ni 0.6546751551441093 8.976338731258263 9.305425614498688 -0.16386154667507263 0.21820206909916615 -0.46322845748002806
Ni 1.4363874063455957 1.0353516081423315 11.36696558539984 0.2690230084057754 -0.39726269211218035 0.13275891173299717
Ni 3.842584077432935 6.939896903051143 1.5284945552455453 1.5286959215097478 1.2366114032988185 -0.5350447680913818
Ni 5.423644769764348 8.133899936207225 8.067618373010994 -0.17478487845579574 -0.7195497020484188 0.3796912588873203
Ni 5.46882233252022 3.133322613457508 4.676465678624097 -1.0492574299287607 -1.2905696026828288 1.286722461022597
Ni 0.4928947286914411 7.379243491888974 6.643814915416988 0.18630984837625977 -0.4355546457138435 0.4768195659009013
Ni 5.207975582571841 4.487544290066638 7.052890634804499 -0.8176195470396629 0.34200480008014006 0.22619151506254592
Ni 8.09081501772579 7.333594857694701 9.297999897997588 0.22913954194727634 -0.9586347852441812 -0.43174169972565646
Ni 4.652600474829417 0.3629333660895294 10.483474726305388 -0.6554001639537036 -0.57111554567201 0.3722990801883072
Ni 7.963861265076745 7.567835130439552 4.532859550627581 0.9530855732911779 -0.7145782169757564 -0.08056603177952576
Ni 7.013519933433531 6.345486279384307 7.0944835250954625 0.42945804589780234 -0.6301858694716049 -0.21791796219984405
Ni 2.3362787987492974 5.47195676939881 2.614792539450935 -0.5820854144199523 -0.6986728585994096 -1.1312607083754453
Ni 2.5957304525147196 5.154228143263521 11.249438696958489 -1.9690932400278731 -2.1729616661131868 1.555261330703102
Ni 0.8857882382632681 3.685246217007032 3.5916787466480398 1.5053639316520266 -0.056659143254941126 -0.008652790578991551
Ni 3.990708867611651 2.7796838492102736 2.5727358249744694 -2.0299134566390395 0.3871883385953138 -0.1494134895705427
Ni 0.7821688281340903 3.311595975693882 7.933385660732044 0.6057151380237504 0.782783156086768 1.274919811960714
Ni 3.9262626712119575 2.4603517683711975 6.900413869260249 -0.4193389551859295 0.7089914669165983 -1.3421551880696048
Ni 4.206541117994374 6.729654096466369 5.709118590968359 1.513302212662497 1.1088088071298323 0.5706728017076365
Ni 1.1556288290586554 7.314199397125156 11.281578451750002 -0.9950122954319509 -0.11963471564621332 -0.2828992521672354
P -0.02422575462637894 5.594707115366739 7.89078449638158 0.3965975477243557 0.8553859671551591 1.2105247335140958
P 8.700209336760224 1.4758034030471792 8.137491855925033 -1.5894606022926303 -0.23059375789529962 0.24749130498158667
P 1.6286570257421504 3.167448115543205 10.26834998898688 0.0028536673987112145 0.0882770272705383 -0.7453075277388131
P 4.127582297665484 6.264905886219383 3.5467974153543933 0.2431263431446716 -0.3715922839292697 1.328031347073713
P 6.892862231740037 3.890696777612689 10.338382911464686 0.45154562182546104 -0.7622472409169453 1.7467465526327144
P 6.337876663840908 7.748663149322639 10.421290578716633 -0.5639287981155836 0.6321514778384081 0.14647548998814128
P 2.3511628443895414 8.258552686061005 5.876300032643616 0.7763407428955339 0.3302512590886377 -0.20251448316058024
P 7.008845455314015 3.8228715495490815 1.4065133239914673 -0.9375535390938499 0.8056554326992512 1.1535174628911167
Ni 5.445468060054882 2.8295630672840315 0.31546657732435185 -0.37492880450167043 0.28372097673758234 0.3838991263210808
Ni 1.3573561134877203 0.8236421387522286 6.916867851059625 0.5719244147265505 0.6769128412144987 0.8988679495981939
Ni 6.850665101738663 0.7351314391031474 9.60797939897118 0.6484268179596638 -0.9899577637271789 -2.713605782669217
Ni 2.8293003543664614 1.409445743695513 8.933169563461881 -0.48138275979155165 -0.11286242991938628 0.7343535998304708
Ni 6.25754992452743 2.037420207348414 2.667669402504824 1.4995383261091852 -0.13548788062838601 -0.42005217920287014
Ni 4.0823141442483815 6.735605902909242 10.597726762343243 1.3987055736608236 2.36201873821728 -2.3337705420048644
Ni 8.093722977951302 6.797533678926716 0.26236595533722196 1.089333729124356 1.9459155163598296 0.062981228818227
Ni 7.314878827084388 3.992493503637901 8.19982185447837 1.4952957487827474 -0.21062297120032758 -0.01636712850411375
Ni 3.2719625614053442 8.44107475030911 12.629898146779936 0.3319618140218412 0.6616942244925313 -0.7055811556834687
Ni -0.08024701953159447 4.966868537705683 10.049433126589243 0.06678774704851079 -0.7916030683712432 0.38753389486019063
Ni 8.757381103063071 2.408597323609959 5.931695316079726 0.1102815565660875 0.42095077975773953 0.6036911656151861
Ni 3.447690326061129 2.663773098165281 11.30992608146239 -0.24124815228535224 -0.6631404700207547 0.38486071890340173
Ni 1.004994677563842 3.150589193488126 12.375062993110843 -0.6681921735120493 1.5880917469695617 0.8450208218707511
Ni 2.7944773041892867 7.900058262371791 8.023333128268247 0.6722077224293456 0.46692493249500877 -0.20943846397392316
Ni 5.610451772288676 8.065241274060293 3.647074935990762 -0.5878593407892521 0.08686729140720523 -0.6574675880056935
Ni 2.991321751978004 8.553189752648526 3.7280195036138344 0.6586814058081366 -1.1618609497598054 -1.266733676605496
Ni 3.183953734019483 3.9407390588766624 8.854014161398121 -0.26067617910297686 0.0055168160531711445 0.046344648702810506
Ni 7.125707408301932 5.957395886670945 11.44632028691831 0.6940795828017724 0.20182825572683305 0.8403334436974109
Ni 0.6841288968301261 -0.29778871569174553 0.21032162046004485 -0.08316053197957936 -0.17897680504995628 0.14843287082482823
Ni 4.615938434229255 0.5596138447814187 1.7497984815666174 -0.6947017897668036 -1.536358323151012 -0.8672624068777709
Ni 6.0950302782791175 5.685035063680113 0.5145458967256367 -1.4590622203720098 -1.213370430493007 0.1485125750228281
Ni 8.212831579337747 -0.29401199102502745 11.558715214400928 -0.6968283491915032 -0.5203380580088265 -0.5792296901387121
Ni 0.178952792195606 4.933766710091898 5.843298760663796 -0.043581227025060426 -0.21160590393888717 -0.6767272075662538
Ni 8.082399145297435 0.3000788476076638 2.5357829883517553 -0.8522186251707711 -0.10502133660841269 0.16247572207113953
P 8.708407791601624 1.8538835276945222 3.862915339532996 0.4222376168899631 -0.46118468757712183 -1.1758593209214265
P 2.0216936685587226 3.5120821680640835 1.6003972689711576 -1.6404147247429939 -1.2169159817524202 0.41086408494569887
P 4.873632629166797 1.2120305747410407 8.237729516670461 -0.009800273919873445 -1.6087698441442035 1.4853157547519003
P 8.677308017601042 1.351349952648109 12.91455302840642 -0.19976803076369465 2.3406965797007366 -2.0960016065173646
P 6.471488830090426 7.794121543128326 1.4866362343171755 -0.5567981006080733 -0.192976461763158 0.9277969739277183
P 2.044794287172613 3.193973061151625 6.177090016941943 -1.0370115226818721 0.17005533419061036 -0.48865872462767457
P 7.111077016513135 3.9384108788830274 6.000694599112887 -0.27696103230592944 -0.4400975278895195 0.542541333578743
P 2.5571025945658454 8.527697540578139 10.234499882511326 0.7837840865474566 0.3524175107730318 -0.3566233213242632
