# total energy = -381169.7123499106 ev
CRYSTAL
PRIMVEC
9.25769564655297 0.00000000000000 0.00000000000000
0.00000000000000 9.25769564655297 0.00000000000000
0.00000000000000 0.00000000000000 13.54957336094649
PRIMCOORD
 96 1
Ni 9.332682767152406 0.08151956291482712 1.366338640276401 -1.7817197262737896 0.5344971231180278 -0.05823394394122874
Ni 3.405545100096668 1.1167372848289459 3.3495897373536634 0.5067952863273854 0.919582813548042 -0.9927767212332128
Ni 6.515732685062664 3.805283131247222 3.5766939671266247 -1.6757360257521077 -2.2974542240723337 -1.4357867947838368
Ni 2.1222803897984854 1.408299144831622 0.9498423288509741 0.04831282817277486 0.11173705806569144 0.2663439189117155
Ni 5.097287106035228 7.137359160378588 8.484607506900257 -0.19045549511351714 0.16358386753365375 0.2923169459367095
Ni 4.8881372507872305 0.936980612584329 13.096258128929758 0.9478942588982255 -0.5776106664780504 -0.31634390497892617
Ni 3.927679122581933 6.1673841212669975 6.028706620972272 0.05660412164728961 2.025293698478841 2.097290243421801
Ni 5.149602342933531 5.455393280818473 4.257276224275756 -0.22567009534143717 0.7684772809870571 0.014910855673561416
Ni 0.7184184583884446 4.7529286089716765 3.5417230226241765 0.5446028440934622 -1.6754300644759148 0.7836812424210051
Ni 8.41162539071479 4.459663333009119 12.651886896552147 -0.4090406585837149 -0.06470232527439179 -0.9880358641141178
Ni -0.12872084885531243 1.0794935760974171 6.168645945154671 0.5168657831895099 0.004843958355862625 0.19848170785210334
Ni 8.207863514209459 4.955718427456422 10.131747787776238 -0.34623400767013923 -0.5733048400138449 0.7046607007517284
Ni 2.284799233144741 -0.054288977564859765 4.954956519122193 -0.7543315856142945 -0.24877608523128122 2.340020379569318
Ni 4.8057993075960255 4.852615473406451 2.092582628615321 -0.40410619739657494 -0.3756530842622047 -1.2109960167235598
Ni 0.9226247042746144 6.386745214578848 8.942636617351848 0.5413632541102419 1.2868908682796611 0.3378432125032827
Ni 7.510777563409894 8.099057819772058 2.6288068635513406 -0.7892924179601954 0.47191801483422596 0.161398944067193
Ni 7.789767473013013 4.666906102997684 5.148106299351374 1.62125897775015 -0.15278729113878203 1.1915533346179157
Ni 3.7781025374525994 5.563680544311562 12.28989619276474 1.1046837292178653 -1.2073905587604883 -1.8885027827683152
Ni 2.086240181473394 8.558702398076907 9.643732076043937 -0.9990990639068149 -0.9112264711635468 -0.21593384189027973
Ni 0.25532724007346824 6.447429408149609 4.896314573164203 -0.031137859055385086 1.8443070620877076 0.009576330834525444
Ni 3.4563698480300737 5.260389184193835 8.2302273290697 -0.5167683383796972 0.36479351583988145 0.4915139346882826
Ni 3.60404860559541 -0.02251008644810145 11.40598994810431 0.12711559740429076 0.17173529299619456 -0.06737987210655491
Ni 2.050514734793064 1.1854479003411025 7.903994473896642 0.5433972538211351 -0.5047335187023502 -2.04089669512342
Ni 4.540649652666939 8.651547825585856 4.385454572178628 0.41148680613136235 -0.6944814462258813 0.12725957918132277
P 6.383690175085584 7.3485734817083985 4.516153790548215 0.27682244984553617 0.04008452672571161 -0.1465161134180896
Ni 1.1271984806695194 5.215470845947408 10.997510800924847 0.9908743620041773 0.385189305887414 2.680476861325732
P 0.04071071567161264 3.1610308482902703 5.495761461759023 0.3533479930071011 0.14152380240982076 0.19278620012922282
Ni 3.3694123148172355 3.5615835566390284 10.848831286483081 0.03314331952118808 1.629201629635994 -0.3527841500838311
P 1.0409815630914119 3.5709153136366374 13.216809061564446 2.1775999362161467 1.1941462921560724 -0.22261793877867467
P 1.1985938278575756 3.9525360348225878 9.434608142343155 0.9823565543411532 -0.08664103432901207 -1.3966042110471046
P 4.218833643985507 1.4418953215621013 6.724883466080205 -1.276835540926188 -0.3567500767101146 1.7411857707154852
Ni 6.820125710937052 3.60463184040776 7.36828496682676 -0.08812533218402242 0.2462137238207437 -0.41347966819167503
Ni 3.999833600795588 6.9452064339476625 0.4828295507500976 -0.8056641744499995 0.6137007273323882 0.35553677312830384
Ni 3.260745485811348 3.9974914038507516 0.377557518659908 -1.894412463384531 1.0078940364906255 0.15806396615668908
Ni 6.393188570601007 5.52132658770039 11.534169221776727 0.32402096190820967 -1.282882004230584 0.7188336498180007
Ni 5.901790096957073 1.8131566815572533 5.489013527557082 -1.0094312990707581 2.0071753916115758 -0.2713827668872036
Ni 1.2871251692942172 0.07413840234519056 12.376491750086103 -0.9600542912995272 1.5702606323254118 -0.8421630407069819
Ni 2.248305397743377 1.5848433967605937 10.080584208189942 0.28743930612943397 -0.005836147065802852 1.141515553334234
Ni 1.6003407789173372 5.899586765443749 6.756535526769516 0.2978335048795645 0.8677100359381508 -0.5654768593289939
Ni 4.534604377548448 2.379561003608556 1.3236088212306032 0.8833274307604336 -0.5835709978265433 1.2041273146281843
Ni 6.507678490034966 2.3709143160730735 9.36931269067665 0.5310425889105241 0.5161165637283112 -0.5776847142490955
Ni 7.434346029905667 0.038100045559186314 12.353429904990127 0.8353814990087742 -0.9807097627663497 -1.3357102037752093
Ni 8.938638218693844 8.792838773301638 8.29129571700098 1.125869619266861 -0.12165920227540983 -0.6802043674815769
Ni 7.9026650688323 2.0267224575273346 3.9577897769814596 1.1744243882471128 0.6459261630249973 0.5587544530034958
Ni 5.431619518943612 3.3872796670051177 12.863273411017033 -1.2650580886752858 0.42082685258536556 -1.1757233095641946
Ni 7.138720041607406 1.0335939221349713 7.521597957833311 -0.477374667073423 -0.11349723528990777 -0.12767301256965755
Ni 9.183846797657802 2.4654353864556007 8.589155587207497 -1.251425842603832 -1.602210188648815 -1.8386940867763046
Ni 4.118730183256195 2.5034659992990314 8.953382024442249 0.20154286327593032 1.1390969165904126 -2.117357189375005
Ni 4.28811823661458 0.19436809294831356 9.074433798399923 -0.03641581962487277 -0.3621270247513118 -1.014852984306962
Ni 7.373606290162301 7.314921758805314 9.638610718929773 0.7895438718493691 -0.3072226594039483 0.5163430779168204
Ni 5.546914857880342 7.522997721382953 11.510362132198303 -1.0642742150525673 1.196048908495424 0.10286135284261638
Ni 2.4084635287539284 5.766674032095859 2.041622718328576 0.04131094293364498 -0.0580213137097904 -0.002905860792885318
Ni 0.9897865073406401 5.979786180989668 0.006907166563408798 0.6740342341151231 -0.16392479581284028 -0.6892721341107999
Ni 7.811124976379565 6.213348579097482 0.6892956000917398 -1.5985810765366597 2.6688842713921264 -1.1954022760503606
Ni 2.7714022205537927 3.3263177425713324 2.739696465230964 -0.511327369869784 1.5494460095729057 -0.8546591162914635
Ni 1.9678435145662303 3.6101031384093347 7.439297971193387 -0.1578968444512055 -0.4575200942413411 -0.6431280314545699
P 5.737058664402059 5.647120153259428 0.13233412738325567 -0.30318885565420683 0.0264579370812125 -0.48175531263962185
Ni 1.9698709498663058 8.763445590298257 2.749452224679456 0.13604760978659794 -0.7639053453456586 0.13158931690492823
P 3.88404760400085 9.28602398216436 1.3949560284024018 0.8015972034694776 -0.573956871775547 -0.4270684626197032
Ni 5.110349714292795 7.179926043984744 2.511657208219155 0.3266694552746503 0.756916058512019 0.9096539844701044
P 4.394970557315377 2.858905957797245 3.986311810844489 1.6945253905444686 1.370880066808123 1.003742219105781
P 5.014097454864084 1.6558776938267186 10.808548276340524 -0.519281334609538 0.3844125756223895 0.7427130275387596
P 3.633293665471845 7.119121500373339 10.298379825203881 1.22999595486483 -0.14128031894044701 -0.9207979169020657
Ni 7.125944421908297 2.4204800174274372 11.555617450558533 0.05940893808593639 -0.062059231224589895 0.5469852282827096
Ni 0.279563886720036 6.926626239211352 2.4155234472920006 0.9610300249492352 0.5622845776439412 -0.25553988631767605
Ni 5.317138857205088 8.748383319826917 6.499716871961609 0.7333040755200338 0.06735724639873561 1.1533125459691622
Ni 2.335466600255767 7.262532460343539 11.949531465511471 -0.9433873721668075 0.14071750445844153 0.022131798902032852
Ni 7.591884233108358 5.717839688680793 3.019536231274937 -0.8503741157628645 0.7218739793062213 0.9847919032555232
Ni 3.1481071054642165 8.222898011594495 7.320604132262787 -1.352195345914426 -0.5633708687295846 -0.19642919619844879
Ni 6.024389757591335 8.209520641692169 0.44170686763166594 0.5637686183886356 -0.03370047757623873 0.3133866221228151
Ni 5.37444399194239 4.82311119805786 9.422712003710291 -0.2841146126315752 -1.3883116320210092 0.9718679961050036
Ni 7.152495492413399 9.443867689316377 4.876003189381709 0.06939484565405468 -3.5302346836608365 0.2312020809032599
Ni -0.2267839135109404 4.681727673387737 1.543405026227858 1.9853678088181805 -3.244476364778251 -0.12637280570099527
Ni 0.02969868695270798 7.490179191068941 10.968853604708478 -0.06101613467205621 0.5857042421194623 0.5536053047023886
Ni 5.777653658880745 0.6132908463470276 2.7050236185214946 0.04161741843047027 0.007275450615490696 -0.31236692260904914
Ni 7.12077862785605 1.3237115816499223 0.6432135695292416 -5.071072639849757 -1.7982856010522708 -0.09168322473860983
Ni 2.8189497443035143 4.768925906681862 4.789313203566917 -1.2377725134864555 -1.1763532298387096 -0.8779754224199009
Ni 8.151113841198205 6.987338205868415 6.840813882923716 0.9760843481791963 0.6032792748887481 0.7612128861151599
Ni 8.814372172881438 2.1287052304297758 13.22928843500966 2.2900247643774816 -0.2967418144772825 -1.0977849452155028
Ni 2.938262923058658 2.1886673237566736 12.535170501366279 -0.5826880810009578 -0.7304673774021871 -0.7462734911965083
Ni 0.9361844507769934 1.8922914621282472 2.980852025133857 -0.8517113465170493 -0.17098350243183458 0.10880008692455456
Ni 6.435190734785682 0.0014969693516997758 10.006237507697483 -1.115690364741014 1.0981263877153218 0.2605149709347642
Ni 8.940998931029549 4.81308511390269 7.932218409966692 -0.4103650338220933 -0.93257125538791 -2.4206329483160633
Ni 2.06346625070542 2.467286925542428 4.96656844650523 0.12091743901337884 -0.23039783983440965 1.199134232288967
Ni 0.31714179825673705 2.5107795786919986 10.788684965017042 -1.1643988856903107 -0.19152378847703147 2.863513181157043
Ni 2.902528218682894 6.9287462514657685 4.039168622925688 -0.36729931298087065 0.37971594147766863 -0.18674513614146546
Ni 1.899382856830795 8.161038090703599 0.6690443913295676 1.0804785927265714 -1.5352890013462333 -0.8037659289860222
Ni 6.253850996621827 5.928276363594136 6.27161003377313 -0.9429178887295566 0.012153347533082294 1.0082015404287152
P 0.9112405161992575 8.165361434471341 6.485747009551497 0.3399900836429564 -0.34279669985381606 -0.37447834722781315
Ni 4.523920997017456 3.8465354221017316 6.145286928035259 0.1847461034335657 -1.171701589999311 0.5068194546971013
P 8.45567350559041 0.4695604958843506 10.083781816192893 1.0744449849379818 1.4085878657715418 1.447185780649398
Ni 0.03144653985067284 9.121431415040858 3.9562039337535926 -0.1624916629107395 -0.664284868037843 0.37412327788123956
P 8.307013432309054 2.1508218648219266 1.9042024130738062 2.060152715139555 1.928627418703343 1.7812774965300486
P 8.953756035337788 7.863542047927642 13.210277757435664 0.3558581610234645 0.13396373067437575 -0.03676754653733668
P 6.963610732470725 5.693408630430108 8.485433293332981 0.39157772591226114 -0.7712227049426782 -2.3842436110537517
Ni 6.868737869661699 3.910256139774889 0.9915047356132158 0.31313413979237686 -0.6154020262942111 1.1567583384259175
