# total energy = -381173.3470581285 ev
CRYSTAL
PRIMVEC
9.17990002343304 0.00000000000000 0.00000000000000
0.00000000000000 9.17990002343304 0.00000000000000
0.00000000000000 0.00000000000000 13.43571160280437
PRIMCOORD
 96 1
Ni 2.787550084640197 7.5935123295399425 0.5720675024025615 0.22001675371040172 0.005929221000241401 -0.8878505154417677
Ni 5.027867968430848 3.00113881874015 9.487143944612153 0.7886514419420868 -0.7787915184288717 -0.8791984961937244
Ni 3.548471998490074 7.586994600515532 5.433710430960848 -0.375679823735082 -2.526863731851545 0.2768471324358845
Ni 7.893456383263322 7.43831693955869 3.0805936075077316 -0.896000912463044 0.01737114428859589 -0.07710121315937689
Ni 6.204244618136726 0.45271044215553413 3.8524350124485056 3.0887148215024935 0.19072957471051022 -0.33300645323627165
Ni 8.148685143919229 2.1116340451086923 9.700596816191595 0.4711559398572208 1.9040211901188886 0.2490085129570615
Ni 3.082325854644219 8.130619100651566 9.443129077917302 -0.23793862829614504 0.9152386776467335 0.7219020043306793
Ni 4.452829850377161 7.134728465521662 7.6847834856317805 0.6583528188241242 -0.19499554907571578 -0.1193737486753428
Ni 0.8219911988285994 7.349868602727426 1.7175271667826457 -0.6638297827782955 0.6756841110137203 -0.06389217066827062
Ni 2.943654284724853 3.478447721027812 8.916112852923472 -2.4581294025996248 -0.6441276763636777 1.2413810567733201
Ni 1.5259747827152255 6.325520277490939 5.404299867230697 -1.2372125272179273 0.8233857600994787 -0.39130801719064223
Ni 4.398209445172592 4.749175383287063 10.7124540514513 -1.5356530695538715 1.050705732339513 0.7885588822282806
Ni 4.203228368442329 0.2839967313836515 4.694759689853259 -0.2623738785203739 2.193665217209125 -0.3413216579701864
Ni 4.686338967551721 1.2985702990635286 2.4390113120948165 -0.7950347197606114 0.8669795855300295 -1.3248238958800087
Ni 5.33777221369153 7.429513415425719 3.6773807447228757 0.3453750021039536 -1.2403580148254445 -0.5642015921609961
Ni 1.8306373050562768 3.8923418738779683 12.168804800345763 -0.2673008835083461 0.2378990333074613 -1.18469594537645
Ni 1.399053484839868 4.076591647468038 4.770671955197573 0.5503801128968715 -0.5856034548755399 -0.4953603050175663
Ni 6.259581055543977 5.590540761138224 11.98143018878399 -0.33781621592008915 0.9206019988411759 0.41974133283067067
Ni 5.316502385311869 7.1759829362761725 10.255156413248585 0.23607072184947084 -1.1021974724609018 -1.3870744171797982
Ni 1.7297777433785277 1.7702519226301157 12.773505929380546 -0.7460359212644054 -1.4874420570662834 0.24496339635341036
Ni 8.909809015569863 4.615883234787844 6.475394997412264 -0.5131199429938323 -0.36044140951877285 -1.2066853051633477
Ni 1.9826472697255988 7.412135864660635 7.4714646405928375 1.1538956721661418 0.16397930319985954 0.7727465977863723
Ni 4.9498938975388125 2.654166137140635 4.369508487715097 0.7782996663941176 0.08530406068514342 0.9423293632159384
Ni 7.213813304317859 3.404861642352211 7.980987648081152 -0.7892368821319118 1.3581821596254802 1.2607700028228932
P 8.863790176697508 3.95524254891355 0.5248442606456966 1.0945551254242956 0.08731414913663672 -0.41341950437770086
Ni 2.5605127969898756 6.204299697536932 11.990391607197553 -1.277581160842961 -0.4888636415496291 -0.9168525591010726
P 4.893373253027126 2.6296282643487334 13.318054845450042 0.22606398834574618 0.3860776220296383 0.5791687549937896
Ni 9.30401228284627 1.630267627005833 0.8445039856729165 -2.8001455155336745 2.0321423459695582 -0.5486083657084294
P 7.759741959362522 9.451533276398779 10.37770348875756 -2.6213862258111624 -2.3557946116844395 0.1714126195494532
P 1.1509116070105034 2.3880041155437794 6.233995756158152 -1.643961047333356 -0.169868672101101 1.0317595302543134
P 3.5424591639675542 6.045037611840448 9.272091934446717 -0.5196392321695888 -0.8083358077448917 -0.06803216097857316
Ni 6.730243710206747 6.196175486006505 7.681948732501164 0.4629096406880286 -1.6271164649721912 -0.7255899947052278
Ni 9.400217635206587 5.570482679563101 3.103743479414435 -0.5151117766128805 -0.5797104864298726 0.4945912880620257
Ni 4.180820232458404 7.67681074245192 12.111165126019884 1.7796942112033285 -0.1483613941569445 1.6170176859752925
Ni 3.4338793063608906 2.1838064191789988 11.45700728554987 2.290900996334848 1.0956550433566936 -0.7716420518682839
Ni 4.105581771776615 0.29322712086822206 7.168059764556498 0.14341227768178527 -0.37113437045624464 1.108234165573285
Ni 0.8969193788892276 7.460972932843544 10.773452651199756 -0.40286769700378355 -1.963748687886508 0.08252315550589659
Ni 4.877253348566752 0.2829318629796633 10.895153339925562 -0.07616815982214624 0.7118479625287869 -1.2875020195010987
Ni 6.936011169477408 1.3923246181146662 1.101540268645593 -0.7822928467139109 0.5614078314659429 0.6313264108339515
Ni 6.088210681702145 1.1945253120738495 8.774057571851433 -0.18601751394682156 0.2871192037858539 0.5166667798048263
Ni 6.41691536223324 0.7388341563771518 6.5184560724935405 -1.5541804389340976 0.21285237475147858 -0.6066844439155551
Ni 7.730274480252158 2.460598765015668 6.001987552639213 2.215515480314997 -0.19885400358985755 -2.0816473946782215
Ni 3.581418659713469 8.404831894578574 2.5189673234042753 -0.25286696747120324 0.9499352005876543 0.5584176384893673
Ni 2.550901441653878 6.453818560371454 3.2596512296383553 -2.4554207454192096 0.6087366984588936 0.7565902997414841
Ni 4.351263436396764 4.5283528879600174 7.574382335858296 2.2999085991500974 0.6430056469440927 -0.9603373697575848
Ni 8.332329044107029 8.864763246101152 0.44373892585193314 -0.4914679119416955 -2.8658778247344774 -0.1765831080067991
Ni 3.9539665428087707 4.786152020625551 13.241673487213973 1.9861165140587471 -0.4126484305396313 -0.3920775483668151
Ni 0.14364156779798 5.932060582117317 8.255425349559003 -0.42666685630591034 1.1115326338188987 0.2635617281808881
Ni 0.5256153722485846 3.4383223779775314 8.382123575863526 0.08093498508317029 -1.0667869541720918 -0.8514889460935979
Ni 1.3204460008454597 2.0930539274391045 10.44226205373935 -0.14983155094456777 0.09484928117141729 -0.9529256506745458
Ni 6.455067026776129 5.322460140434182 2.560107963398359 0.5205280625324454 0.9217224855988643 1.3093561392617128
Ni 4.195553972013587 6.0610198178003065 1.961909875547931 1.9472514615624332 0.7036127191031882 -1.90320486486518
Ni 6.159299827568394 3.297869907451495 11.446043730938808 0.3687599566867971 0.38951184452216786 0.1477193896975714
Ni 2.3361927597497307 9.022501468391928 11.586057402243203 0.5879141052865875 0.42890217339433234 0.5010457854381178
Ni 3.856576983344018 0.6948771230525197 0.07822651814298137 -0.22908580589120545 0.4365609754911708 -0.25809890529410395
Ni 1.7459619071391423 0.817366365191278 7.975317223829915 -0.19926615142661167 0.5629800610490691 0.5045715392031891
P 5.836084727257859 6.712811080041457 0.4626063743925973 -0.13654768935146805 -2.10820920432715 -0.8530706887584212
Ni 2.045235828160011 0.17539851397691916 5.697426927188544 -0.7698471647513904 0.9437498977125489 1.0486449931557424
P 5.359262359672018 2.5858952205849404 6.726642435423259 0.18574163457761558 0.7053446141926304 0.05565127081571706
Ni 0.012611346667233214 0.441796459004658 11.867683883437975 -0.04209770050099846 -0.38341935847118486 -0.25621428667688134
P 8.496144360220566 3.778859949652945 4.058955223521984 -0.9809241927700009 0.21781614651465714 0.623449836299352
P 5.078394138220084 5.980199977897613 5.884196583338051 0.7440661991325443 0.4196909392087094 0.34298361905364155
P 2.7258703363091885 4.319840638579077 2.654775682502918 -0.9355629910263823 -0.03823410378053416 0.6105508688494969
Ni 3.2348223540153636 2.232294651160602 6.162235559599389 0.7853658292122797 1.2327364937244447 -0.09850667541834648
Ni 1.7889238393000473 5.139210975947861 0.5916252794258111 -1.987079135082333 2.0951670264312114 1.879346570190344
Ni 0.3275434231767467 1.6505735658818848 4.269277749189704 -0.6433794853437436 0.3867052283113082 -0.1526710772758919
Ni 2.60822991736859 2.1430109434262077 3.7346844347074946 0.7742992869854729 -0.4845678423877525 -0.6171501193335694
Ni 6.831975362387762 8.008755927695152 12.12934408205797 -0.07102132551388414 -0.1767674561034633 -0.5223517460047455
Ni 6.464375445410993 1.2211653819736246 12.304210161832895 0.347993156453091 -0.849217119340286 -0.08831430826637694
Ni 0.7908887795221118 3.1707558316754154 2.3322913022351184 -0.7094162131588427 1.2803255563573177 1.1392509256697734
Ni -0.02516118800423607 8.501900157542124 9.086692837372345 0.46472818195400606 -0.7320784306430489 -0.9206721899574789
Ni 7.923676614176506 6.048002719551555 0.8838921827504369 1.2720239784701577 1.074162934921189 -0.4411190271754984
Ni 7.771519771106633 6.4794488412674465 5.243407431288107 1.0259794332374266 -0.5451998542475126 0.2651115891665111
Ni 4.762036423235231 3.848599650214141 2.1606776610423752 0.025931889374413403 -2.009311978338604 -0.6850025602011687
Ni 8.637000746348114 5.57731252518868 11.908366446420343 1.3782506482405812 -0.5373914139466874 1.5339463712754098
Ni 6.069740722832969 7.933177810712091 5.786814367793326 -0.5586132994399411 -0.7803483213930303 0.40025134242685906
Ni 6.747694700172107 4.091279487523049 0.4686348147451756 -1.4491891842326718 -1.3719709858794567 -0.2706070650634437
Ni 1.7907414595068547 0.6104853840464478 1.5792062690445932 2.1029132460355333 -1.1797002919340716 1.4092645801235921
Ni 8.47195532362997 2.7212069470917224 12.139138117404652 0.6123799516384356 1.0986717186958304 0.22064924508807804
Ni 6.527762655148396 4.3454433797749665 5.752042742443097 -1.1143328222718552 0.8121078731928143 -0.7812502643820093
Ni 7.733937260365876 6.625234833713458 10.049375184127873 -0.4893197552504412 -0.0032671007870459863 -0.4127355909367988
Ni 3.8639300832715575 4.945377386721897 4.445621792870164 0.5890389629196501 -0.36380004157836054 0.739118625319282
Ni 1.025541712240956 4.837770598518878 10.182375411805998 0.18290853600419466 0.2887012035609931 0.0715507156547929
Ni 5.579488161496828 8.62668253870947 1.0867110581300534 0.3117611707042502 0.24571775802093168 0.44938306695650343
Ni 8.2970506882749 9.021693637188903 5.244576032562484 -0.24087277122380452 -0.5076908015584612 0.042858489926422966
Ni 2.611883517582274 3.0520597242308636 0.9389467972266327 2.235443586697492 -1.8586993262536378 0.2595742042880497
Ni 2.144387928431365 4.781809927909289 7.07853737942121 -0.6946357124155585 -0.07146124126478015 0.029499809231329843
Ni 6.600752040321763 8.23861144465603 8.564406096876226 0.6780464405983097 0.3714675854259474 -0.01044999168873039
P 8.582490499943958 0.12235154363824262 2.520580231840316 0.8544498284941349 1.3517885973943107 0.8681070142662534
Ni 1.2108838939351172 8.519727523408893 3.8762430831876733 -0.48858236286378437 -0.8729566290490708 -1.8357280621694447
P 3.3738244003359674 1.3023524178776937 9.370280145214462 0.4372009230680148 -0.2317816075558137 0.5343575122163701
Ni 8.34324394524791 0.7993104198136533 7.609892943161293 1.1348499683886004 0.6116299608462886 -0.2619686726621553
P 0.8472001223130142 7.534522291919008 12.924375750465599 -0.32983808281061905 -0.006531116250298429 0.12171319544179683
P 0.16846677146095773 7.681033496467736 6.609362786554013 -1.759622380154118 0.08481503686386684 -0.5039753003800869
P 7.753270129838283 4.38620213592762 10.229064383380862 0.3676440979147991 -0.1477273601173714 -0.30923660451018353
Ni 6.92625293574086 2.8988563725570717 2.7882459210628032 0.2938061288877262 0.3822114542060127 1.354136785911513
