# total energy = -340865.4459997582 ev
CRYSTAL
PRIMVEC
9.31049198893087 0.00000000000000 0.00000000000000
0.00000000000000 9.31049198893087 0.00000000000000
0.00000000000000 0.00000000000000 13.62684614475557
PRIMCOORD
 96 1
Ni 8.878503766809171 8.410381540879069 10.008972529627885 0.7952851452085207 -0.5488652189142418 0.08937206010692994
Ni 1.3122114282376902 2.855537198730854 1.564443828387208 -0.8468283073931351 -0.9365238122777548 -0.767795167318368
Ni 6.360928116220421 8.36290734230675 4.5630860818966665 -1.1262126044285765 -0.22021884241887882 -0.7509032766590359
Ni 3.2394274037776927 1.0726245382864312 12.374225738384373 1.6438116662396849 -0.8391785041573611 -0.23781932910946138
Ni 6.651210634966791 9.160397532287517 7.430555607140617 -0.3570416398086044 0.3453462057485472 -1.3835625473717978
Ni 8.08858300680277 5.289392905494877 4.2461522798764655 -1.4644286268902458 0.6035582395817476 0.4229824654757877
Ni 8.435948151837998 6.173284460988708 8.646369925682611 -1.5191393881695643 0.9707529086639539 0.17702199531643062
Ni 3.554848250852218 3.2997500812732903 1.1555223656699087 -0.1934040362188798 0.16907522966552815 0.4467219751845726
Ni 6.301285104638881 2.1613841591627483 7.190722920201261 0.15220673604496368 0.87753782066185 -1.7810499539002747
Ni 2.8746143967843314 5.922664638048982 11.795615904206043 -0.08435558072894504 0.4410730044289113 1.0763038925235915
Ni 1.4424559004534505 1.8366993725746998 7.419395120412114 0.6816626971946583 0.1590533266531519 1.0571980249320763
Ni 8.050139985444641 1.3956892992711099 5.931466777160624 1.5488132610849132 -0.345269843984657 -1.2253669407332508
Ni 5.009128476111874 3.1332877952810407 8.905716472748997 -0.06405183617458646 2.640141652041795 1.942265835422384
Ni 9.087310170296401 3.051504433786778 3.920689136159442 0.21976787092438926 -0.5864853432598609 0.45776563459324393
Ni 6.5595674624727085 6.279098202266291 2.248374878817728 -2.129220002250862 0.7663430082528737 1.0242195131235263
Ni 6.8066399879705735 1.8278544051999788 1.55941523167238 0.8533128866762142 0.04476316314830355 -0.7277348089623725
Ni 7.338185285223412 5.9505681824932335 13.289104473264041 -1.7394464194268753 -0.6531257660972299 -1.8595758153213202
Ni 2.0996369763952223 3.625486953454332 6.035153071022289 -0.19121525609767714 0.26268035401719925 -1.2745063785723791
Ni 8.72014160883377 2.766566137433134 10.481360822980195 0.03443581308036651 -0.2107607823297725 -0.14241211855204505
Ni 2.4305411716214955 2.7877568171645706 3.6073529082377593 0.8276756457240841 1.3300895151543224 1.6783426101370191
Ni 3.9508979584163044 8.067001286408452 10.340336663157641 -1.9874858836024483 -1.8848153066143993 -1.2463448285364989
Ni 4.247539543180501 8.610035730756454 3.5498615513512695 0.4695801107296687 0.8582458052014573 -1.9048866234429775
Ni 4.885196517454073 7.507766586026748 7.860509471225806 0.11151311498034341 -0.3124399419388296 0.8309905690299301
Ni 7.940918604104796 0.7344330209925851 3.471221411947224 3.8166717737780016 -1.1830339842929947 -0.7798657253296569
P 5.106991057244183 9.250104122451134 11.404144165545272 1.7000398926047946 0.4970870579006858 1.443780354512275
P 5.57844643930076 7.279510564807106 13.56343998135839 -0.48933081099403475 -0.3486680710329286 1.09216528503588
P 2.811554434648557 7.008277312638292 7.672718710220914 0.07193715245993418 0.9312137129187511 -1.7693833161956238
P 8.368102596827901 2.111815099896417 12.648779111990896 0.33709219326987105 -1.5667330787881275 -0.16386283222665327
P 0.8213511188101725 4.971067184924653 4.434802399290502 1.5494429242491123 0.4259047813289052 0.6126853986939964
P 0.1566890625677815 4.282891481203465 8.612152936631205 0.12212431483728646 -0.6705398478086194 0.016482056815423227
P 8.435156760020261 8.234245653726466 7.782305062846116 2.4085320512874713 -0.17616170419866437 0.03428463221448289
P 7.554710086556583 6.805550660409686 11.196947546120242 1.1187486919513634 -1.534960157251905 0.6640336712589855
Ni 9.137577516460736 0.46704965725476866 0.9620214799377356 0.6723607030674421 2.1747660663117774 0.700389069959568
Ni 2.1912801488893052 4.895056328453894 2.630607816293304 -1.9885138106463303 1.394545785856179 -0.8585563944633406
Ni 5.166485100954148 0.6004308342163642 8.93572232628084 -0.8253770794978946 0.06793214506559914 2.001534391275714
Ni 5.034527498215284 2.0132263003901847 11.282810765197244 0.7602206974052198 1.7676467931204911 -1.7358856986588107
Ni 2.991246929734994 1.0408478291812493 5.456121471557564 0.02160060898891119 -0.5891960573228046 -0.6463323973244803
Ni 2.718356409994917 3.2780473244833166 11.018326688659942 -0.04308988921093869 0.4167943343872048 0.01661215463538429
Ni 5.9898025956691 1.3263540655452704 3.6193448218994857 -3.154636363895967 0.3026604939545626 1.563992539928513
Ni 3.441707152391576 8.123069069072208 12.966311578644987 0.7597776963305303 -0.7744191003927888 -0.8291720277639526
Ni 1.3707930437342635 2.0298920810225534 12.482368033704502 -3.4470404702298443 1.6375967956782251 1.410071135185288
Ni 8.877852032371035 4.165867907589919 13.316985672527558 -1.387698166806726 -0.8915647310685614 1.4884193333778883
Ni 5.310360133418952 5.776908886205552 11.191946880881334 0.5884604647083607 0.25667888501812564 2.0200391349481213
Ni 6.6131958962394375 7.828885454188988 9.628484378348121 -1.2941172108247712 0.33939333059922194 -0.5213217620783344
Ni 3.454583562790775 5.253491648445482 9.816616834408437 2.1085917844775492 1.7916755519349208 -0.3959815114069116
Ni 6.086845853507749 4.175718408097766 1.2611778285839443 0.6399928282596978 -0.47864196382162083 -0.47485318620314987
Ni 7.064233369398369 4.53933036162656 10.038706516794104 0.6961907156075042 -0.3221697676320839 0.7340368399210003
Ni 2.1127554595857294 0.7794548359791124 2.840120886121314 -0.13361328931349245 -1.9361543232080074 -1.1271168614104008
Ni 1.5915448084233534 4.454846957460015 13.178658762229697 3.593640658721308 0.5161996103604206 0.3798223851485458
Ni 4.102500699219023 7.779828471981193 5.65779883134077 -0.9250021847914005 -0.2738479405982445 1.3039935893982186
Ni 4.80234244938287 2.8856007773129315 5.328164587219667 -0.05964702223867147 -0.03919286814937766 -1.2728886404632982
Ni 2.824440155539729 9.295083109174584 8.146387196219566 0.5327066068765084 -0.7697977995706936 0.7941759713047419
Ni 8.609318822874505 5.743298010181613 1.5860283419291195 0.9727061757355827 -1.2580675162900656 0.8509073625585152
Ni 3.989806504373104 5.5476100898848895 0.5884566104893867 0.17275344984806376 1.3534436164992305 -0.7662841299904802
Ni 4.215949043914787 0.8403128667631796 1.3318891530234511 -0.6147685064752701 -1.1398330234254888 1.5676301366811003
Ni 6.146377139185609 8.608769503848073 1.8618228041156968 0.51242343114744 -0.13222026562070777 1.5760060194496213
P 8.561416341671409 3.1804640581102106 1.8374162804566507 -1.4364228857059391 0.31770838942662055 -0.7617119372387655
P 4.588778384497238 2.7520138384787245 3.0490613606929604 -0.6101348643580008 -0.13415527785989154 -1.029865398555394
P 5.583408931522576 5.7732033104001435 9.080017261933644 -0.5640565819426996 0.2584274922781162 -0.6187028085326699
P 8.278926704706766 7.934289533819742 2.6068427855312244 -2.1089561097955034 0.9995896303899882 -0.36725791821997394
P 2.182742427749706 0.4576581640012096 0.5241611460687436 -1.2091201398570852 -0.30030742034135377 0.3859619223873805
P 1.191007443728092 6.428103315808434 1.0232956897130134 2.512639617832363 -0.12318566622226526 -0.21958917925467988
P 5.168105126557518 0.38972881456335223 5.783315435732442 0.08879433322658901 1.659799557027509 0.48819155518326884
P 6.864309175253754 2.056818023809599 9.146079857730838 1.3176209503736662 0.3131642216993639 2.5747857523438045
Ni 3.9664744114877872 2.0131797479303177 7.338765328873355 -1.7448832741717302 -0.3872670143520492 -0.7289445129997575
Ni 3.0400990811193744 7.802825387155468 1.608663078965629 -1.0596104910283106 -0.26784004384126775 0.3476056912066852
Ni 4.417726025962106 4.871780098520417 2.9337509176025183 1.145644230790627 0.9123937519987706 0.6397835404623691
Ni 7.1490705722599035 7.033127015715271 6.45259735809203 -0.4259261214851439 -1.4435170735485592 0.5689187951310072
Ni 8.213678776957245 7.912158494398993 0.2554826928974286 -0.4606840937916195 -0.04952407487205664 0.3872315331284234
Ni 5.604748579125587 5.185711266879199 5.803605790890052 2.1623257836658953 0.451239660549268 -1.111759148007408
Ni 8.453535671175734 8.122389403158152 4.9334630388933265 3.0396856839889845 -0.16826404661814248 -0.17815070960423512
Ni 5.172602094180665 2.240784034711823 13.580419525570262 1.2010952126700798 1.5272735872409244 -1.485185399821623
Ni 1.2851272070870972 6.619499099305424 8.981508532658383 1.2514734080123155 0.16691653145131255 1.23199961555842
Ni 2.7893675322759672 5.761537263957484 5.084203628139308 0.9197134255886356 0.1381767403144588 -0.19107950185076125
Ni 7.031506990111902 3.7134245501430057 12.17591412144955 -2.1338523588165508 -0.3159932065077267 0.028652630739686137
Ni 0.35558444734933703 5.102745472904316 10.767920075986407 -0.12885469158258456 -0.15723555671812278 -0.08077429113558993
Ni 0.8255752890184997 7.253804296468575 3.105081659847654 1.848044931863585 -0.7581951823347588 0.9696905288377106
Ni 7.297973270390339 0.7117284552662749 11.118021574612614 -0.29122319865189844 0.45388609703317956 -0.18704235566691013
Ni 6.194251688912783 0.10000678743377987 13.442161512913003 0.1946754467321357 0.31412170051662675 -2.2095474356570204
Ni 0.7051887657041653 6.708833269790105 12.547722101062517 -1.6225162471960184 -1.3233817641168433 2.021538088091151
Ni 0.5970008489733672 9.073567884143676 12.300531332316591 -0.07291648565406797 0.39827467831646246 0.4558295939127956
Ni 8.807371608132467 3.821807987205245 6.444462781254877 0.6057681027488728 -0.48748373048296695 0.26441379176853813
Ni 8.861986954048376 1.3696944056814033 8.444297801039735 -1.9455424492911266 -1.180182887997445 0.2521894817882044
Ni 6.967599773206549 4.645209276347957 7.759276491999131 -0.9766134812097891 -0.710950390415182 -1.3220244787580007
Ni 1.2202610095084852 8.723251313152883 6.492156707437769 -0.8712679284927383 -0.3304386925090954 -0.4158381411215225
Ni 0.7931058793104976 5.912674480161534 6.586359334175336 0.11736545999606239 0.26993472158676735 -0.0075029932452644965
Ni 2.4557632943774106 4.206908556208624 8.345380341166843 -1.7788819997146783 -1.8362911337617664 -1.5520993880353526
Ni 1.1096058124047385 0.9236948397292734 10.28617008295485 1.4073241685677698 0.518597678278952 -0.8169703434914382
P 4.109539431150906 3.9558045876862815 12.575685232655399 0.2315224403571561 0.4866715189943167 0.2077063117741649
P 0.9490929307834854 1.7539756513911247 5.3759134453052 -0.9647470687895062 -0.2670538004945466 -0.7727483975585853
P 5.152286600694727 6.519429931575421 4.199480645712254 0.21280480934299478 0.2968294890950824 -1.317698340578821
P 3.9999921825919933 4.500393884193842 6.756054222980747 -2.3572794237600823 -1.8288300494980312 1.1973920527868798
P 1.5499641512701912 7.595611077795688 10.946173169013758 1.611195679976877 1.1095323155594183 -1.5686477793123372
P 7.050733156036953 3.3246742682860564 5.154763191559649 -0.026369491132464264 0.22527620233712817 0.4068292527546929
P 3.010501027135966 1.955147451460174 9.354052972186448 -0.03855600589632715 -0.4403430682414222 -0.7167590266771592
P 2.3112272169824957 8.507080310514702 4.364637600729834 -1.4676936707947625 -1.026688286378993 0.4003942957626266
