# total energy = -340874.7862245474 ev
CRYSTAL
PRIMVEC
9.24200509584531 0.00000000000000 0.00000000000000

0.00000000000000 9.24200509584531 0.00000000000000

0.00000000000000 0.00000000000000 13.52660865396268

PRIMCOORD
 96 1
Ni 1.0963050934723142 8.183758283028107 0.37448048932274014 0.031860339043706415 0.10224814473864971 0.2959188043553549
Ni 5.044803772507827 8.281963826040675 6.783607494524081 -0.954573213580298 -1.2061101493861681 0.10138965339309636
Ni 3.8731670979047546 9.203105202524736 8.824840112236096 -1.1942473365103112 -1.9519100433803673 0.8429690815480451
Ni 8.577504655558453 2.7590988712054356 12.732704468764235 0.5536487563458142 -1.156319451116286 0.5666503108118047
Ni 1.5974712878015547 8.839506249654375 11.505368079628118 -0.46635569025510004 0.0834459244304821 -0.10387976680480174
Ni 4.639467925957367 6.26473916419952 2.0307771376809476 0.8070176031541004 0.10632514302150076 -0.21541962125802255
Ni 3.0223204099350554 5.375408768239577 4.224671039092398 0.19569103248084363 0.9630542544681155 0.029225729634336766
Ni 1.5751888142269923 2.245844134596839 11.5309333133079 -1.0809506472669834 0.35585353303777423 0.40174335359135327
Ni 0.5837767784410548 7.054949058671623 6.854189609387744 -1.0316451161636362 0.5482191006898107 0.6917172532171829
Ni 2.7740524349730182 6.91356486923004 7.923576439677449 0.29274786282654097 0.0933528991315489 -0.7838738180477854
Ni 7.315083767797798 7.185289052376333 8.218605262129264 -0.7029969398960603 0.73949863436652 1.291723513781614
Ni 0.7140511539116791 7.691640011398783 9.393025628578316 -1.0248879999454608 -0.26310587159039206 -0.19869948028986426
Ni 2.933098095588798 4.940461538307574 12.170240677594146 1.6747484650278577 -1.0281833828672808 -0.8667057630433525
Ni 6.6548072188191725 1.8744079616554594 10.97278461417927 -0.7458232910329672 -1.0034509131176075 1.2760495546897832
Ni 3.417157339031886 1.1650840931993545 11.045070954728189 1.7472173216215459 -1.9406925773979933 -0.8500686687073038
Ni 5.247277613682242 3.7657380341010573 2.746712736371496 -0.4090337166051794 -0.2715483459307904 -1.279710548481138
Ni 5.510110988210232 4.093690574454997 11.109497894394565 0.1574983234612062 0.01821138080170412 0.09157883795026164
Ni 5.848885916185827 2.249134288305899 4.86113833530338 -1.127768636061787 -0.29338703907243663 0.14384370879224906
Ni 1.423573725471 3.6177458112269516 9.54844657491125 0.8170004253984252 0.19121654164925778 -0.17353403676783016
Ni 7.731778038248358 1.201894998320666 4.0369076969593065 1.126305678363015 0.4989629347671601 -1.2614999390103823
Ni 1.2485024285307522 7.273744280324129 2.739922635444399 -0.861278164269878 0.27681319387415554 0.8877723539056646
Ni 3.2559305652831334 7.284649845988992 10.321816612435942 -0.41611479182167693 -0.295095280012795 -0.7251109981862802
Ni 7.446015249809755 6.928546159012025 10.756345179550472 2.2696053201808652 1.0901798791747355 -1.0651010818292366
Ni 9.345145574307171 4.1648078013966225 1.279723769148582 -3.004740792482683 1.2694209936296719 1.7288604163809127
P 5.086263406043907 4.317513446719101 4.700117658261684 -0.3276498169100486 0.9197705040788159 1.8518126264361336
P 7.875389550846918 -0.23489664241633954 9.31835854759273 -0.5326320448848311 -0.042822494482164956 0.7507934905540489
P 2.2564724401176797 6.963711987278806 5.5919138211024615 0.9097884531654397 0.2726122684189305 0.020503776380306624
P 0.385136520857983 4.850851059759686 3.472821009746209 0.2661587994841029 0.45130573790051304 -2.5939031898995455
P 7.607168087520101 3.2802924899378603 9.856095354918464 0.7743041720814794 1.9230396402029204 -0.946053349034745
P 0.7453676871789561 0.9861773642668034 -0.21557715558089144 -0.32562481606021987 1.2441673612692057 -0.1959175466693529
P 5.369743419296729 5.22372898544998 13.094135247308342 -1.2628474541772123 3.185302939741889 -0.6160365745544165
P 6.231144476748863 7.731944394334771 2.629491768481424 0.7130026449585204 -0.28366724068151145 -0.9887663145222392
Ni 4.543110783904945 3.418331073641579 6.852769113249872 -0.0034015694823812384 -1.4132094237039532 0.16896004424390257
Ni 8.886631232133302 3.2201455226947027 7.808680760195241 1.188492436304405 0.7050882752074502 -0.9486285659610889
Ni 9.138475862953223 1.5878503608039936 9.741930718015995 0.3478450609110009 1.3291004117681755 -0.45288953744786525
Ni 6.842558546346024 4.20143386642192 6.157961661734274 -0.11366744231918488 -0.6980658211430301 -1.6602227606078568
Ni 7.04771256891265 5.3276645714390005 1.523528779992346 -2.3424063633029917 -1.009582994157274 0.9461227688200996
Ni 1.2221165048246652 6.354090866612988 11.73260125166369 -1.0459877580385535 0.6336458029957475 -1.5982306351757765
Ni 1.7051498857348717 5.86218516109408 0.7631871966352456 1.0334708565184654 -0.10431376901842679 0.134842019514271
Ni 6.959728683209692 6.958887660772826 5.9273329771349115 1.030153362109458 0.2918703453175941 -0.4290842074981514
Ni 8.036902826744493 6.7594914071970535 3.5539131324692628 0.2117488572746547 -0.17843404517260883 -0.574740801129423
Ni 1.8586780694846154 3.367952905472794 0.1048791946791756 1.1430574439000574 -2.0443363169325885 -0.024447848629719188
Ni 3.8516239847142506 4.42142130669372 0.9127866041441984 0.4094353229189723 0.1762612058910061 -0.7188629603940393
Ni 6.799888210181049 9.684419570542007 6.550544465860206 -0.9918141002096273 -2.6352974365756165 -0.06601307366601535
Ni 3.5600202492415858 7.840630370791368 3.6406863155433262 -0.20644878521797994 -0.07637076275125557 1.9855197610150126
Ni 2.703489728319437 -0.17429127173506587 6.654293363352252 -0.16670004456513227 -0.7258154804524727 -0.20923766081702674
Ni 6.473405148590425 0.9593663083398827 13.4741387587 0.7583198808380811 0.9219194321010187 -1.2464913814166918
Ni 8.522644115061313 0.55198243352558 11.614216715369205 -0.46620733760269384 -1.1092569504108445 1.273180974892736
Ni 0.09921384573632748 0.4216350462170299 7.744767675995786 0.20355115195521073 -0.7395068618966361 -1.2759084011262283
Ni 2.8402991253846586 1.9228915188400943 8.087761579162915 -1.2538344520453246 0.5558766172350684 -0.13725191450734425
Ni 6.842355222240407 2.1917691645077615 8.038430530138053 0.07407631029012404 0.48291488016536194 0.31553400748312105
Ni 8.476868465283292 6.593726809091142 0.6804398308523806 2.3372950102183556 1.316486579658907 -0.7135438621739711
Ni 2.1358827614777414 3.823971906350464 2.597920155881647 0.3889557149083817 -0.2483701080421142 -0.38353300123091366
Ni 5.923773881086151 8.984910711184277 4.346139632388885 -0.750229904741095 -0.1821156077892541 0.5055012501063101
Ni 1.6160846854702269 0.8021524130756076 4.87149954688548 0.5943066390764926 0.4629890877757123 -0.4681464636069356
Ni 4.892209031242957 2.4065256300623483 9.32454052460394 1.1280141764136895 -0.19701952148428004 -0.30427540385016627
P 0.3044260929331991 0.19500260449350407 3.1957420090183724 0.3181709308853359 -1.0505704923132293 0.04582862829834043
P 8.268045366810775 1.6578400631599297 6.096645580883824 2.216539293593821 2.5185413280287783 -0.30162356804961604
P 8.834931457278014 7.728589546592106 12.224604922433485 -0.7595576098999242 -0.3187154905348963 0.738231080508006
P 7.474933482831242 2.654904509081994 1.5905397842010065 -0.1402999573050487 -1.1672947191808671 -1.4477948749883065
P 3.961668535876555 0.8074379156211456 4.5224863259916335 -0.15936417302535133 -0.20559877851285882 0.22078937021036818
P 4.880878333357261 6.74794814320094 8.571581454681663 1.5907500105280152 1.7824848865745884 0.45333382407413536
P 1.764890204766797 2.825068301473053 6.456642000282859 -0.3675193994114767 -1.3691373730854033 -0.41318270577654653
P 4.914546956846324 1.1778288178195624 7.592201584945798 1.0073407350903165 0.9349312709796543 -2.1526754050603247
Ni 9.229990194490062 5.220143087587296 5.413551446252674 0.23669935657240526 0.3299206152220963 0.7849734788698675
Ni 5.357775023079783 6.541324641870998 11.195946683100122 -1.987436261311435 -1.0130670960511328 0.5085418367048468
Ni 7.755557716600639 4.679411870706126 11.571485381972545 0.4841119857972565 0.6358749494365823 0.21065999508585012
Ni 5.371370012141657 6.569078382287592 4.361749378497319 0.37737083828425977 -1.3136331693705117 -0.3474917913366402
Ni 7.5818634783757 3.5645950416179475 3.4000078749236495 0.6971075709948187 1.3262272039854386 1.3035197350855936
Ni 2.4947035978661227 4.724133931936864 6.594248982362383 -0.5510863949352768 1.2699858649942064 0.28022916153423993
Ni 6.4529063819424035 3.610481595453577 13.405680456539544 0.9218754662369607 -2.506361241022819 0.6311991412274678
Ni 5.005987352344757 8.702743062613159 0.8386333786255331 -1.0320320671894097 -1.6482195654993939 0.6993004648810796
Ni 8.849275048728748 5.331564697464908 9.431373479097989 -0.76996672104839 -0.22665225674904835 -0.616203439149584
Ni 4.393066835965077 2.428854313660914 12.867375265918566 0.08997369824667086 0.3396956923309892 -0.4144286623685056
Ni 0.515165983201388 2.923782154749661 4.6528688329184265 -0.4457012472295421 -0.2983690656680604 -0.05151359449825967
Ni 8.831169961324116 8.721060716128207 5.30945042837772 -0.06982524832325394 -0.4364740722043193 -0.12151830582217137
Ni 8.046440575698847 9.007110006715633 1.5280065313183002 -0.10631948659454592 -0.10674628971931939 0.770834211255008
Ni 2.7791540216230217 0.5077908633704046 2.6476439901105397 -0.4896421715868664 1.6132818730819443 -1.2991701998676464
Ni 3.2482227332793236 2.9994372060484453 4.60157663047485 0.10602946615795288 -1.1134157097742243 0.5510275166728833
Ni 5.566755235633912 1.2769215932930003 2.1795697181707965 0.05358024721930127 0.7774887404570481 1.0206893884830808
Ni 6.196939816981357 4.7602794127125225 8.274388154705516 1.5280153505029554 0.1294540157294803 1.25923274024276
Ni 3.221716663510827 7.311895276141546 12.633540529853832 1.33849882226394 0.8429397709720062 1.8414935038983122
Ni 6.610334691718056 7.495312103416854 13.003912948042647 0.29402492976675165 0.31823777956752936 0.22493707383015454
Ni 5.6401922057805205 8.748685068477592 10.216890283532281 1.5106817443205145 -0.07153374637392841 -0.6702387716284328
Ni 2.9371276096819168 0.6070832661475384 13.503654025231615 -0.11527129647119502 -0.04413401420473689 0.19406995193765286
Ni 4.133588309179753 4.887578786837791 9.206250256758425 -2.3856626028884658 -0.4292628991678607 0.18399122754541217
Ni 0.6225959712055653 2.0317068833639014 1.880658329502194 -0.8512932851430243 -2.367130862632865 0.275382632075216
Ni 4.627554981769224 5.7455972705328575 6.592909815866757 0.4068382516157574 1.0334834549239555 -0.7053564412671723
P 8.152853018974463 5.5177633681852365 7.173106241648009 0.3410442359390836 -0.033426140868929526 1.8928525750965788
P 1.7595298419823728 5.760236606137216 9.438136778211165 0.16272511907778428 -0.4284116069111589 0.597952463359196
P 4.873577149564684 -0.19259506224291362 12.120422574916285 -0.2102910417822056 -0.05548080667612381 1.5484299096035654
P 3.079620839699588 7.662204226108455 1.569952294306898 -0.9241814886623181 0.4148624074718145 -1.6990808711256349
P 0.4552639290854499 4.676334283107482 12.775165011420233 -0.7682181137883995 0.3923192320639759 -0.9407915864151734
P 1.7477000758374373 0.29638185195464284 9.357613038783358 0.8188999564139832 0.9812113849931164 0.1031850547306223
P 3.5892989204503016 3.252270731382044 10.609500813672616 -3.0161927430733666 0.9605057770146491 1.9303670271022688
P 3.56259876858099 2.3310461768547777 1.409567467195492 0.27413436149041176 -0.5089773815803685 0.6835920530068872
