# total energy = -340887.70827114163 ev
CRYSTAL
PRIMVEC
9.11128503392943 0.00000000000000 0.00000000000000
0.00000000000000 9.11128503392943 0.00000000000000
0.00000000000000 0.00000000000000 13.33528662996597
PRIMCOORD
 96 1
Ni 6.703810017912192 1.9517374284721973 11.02780164678356 0.1482112417323254 0.29464970783494415 1.5077823112855324
Ni 4.733676905427104 0.8550813227598764 5.903624186077362 0.8738768268704951 -1.2935556818943463 0.3614852774022549
Ni 2.929660737430885 1.718597872988368 4.515447967519845 0.3566613736510503 -0.04735380669361522 -0.055011580349189126
Ni 3.6571603836385544 4.3291449715547206 4.346502880228796 0.5442732286681853 -0.6488739327994116 1.5752398307075581
Ni 3.6598846577940045 2.6958287243021917 2.4280890647871822 0.4491871488956135 0.8641919954825632 -0.3467592840459899
Ni 5.154645597080198 4.991407818588393 2.635346193537272 0.6580448006654022 -0.8721842696594205 -0.9030832732311221
Ni 5.35789102713248 3.1333070640144034 13.447969360564894 0.5422939934546274 -0.5186663267333583 0.35447696440522175
Ni 5.647675440223116 8.179774376654258 12.399895536539118 0.138754981415432 -0.029279208580091514 0.25295207098584177
Ni 2.325026766762509 6.731362543149924 0.24868431848253827 -2.2526841189454947 0.10699491539501572 -0.5307451122747633
Ni 0.6854310220252425 -0.029178889574682027 0.13909469602654514 -0.1833073141045101 0.015100345976548187 -0.7093393371743203
Ni 8.378327495034108 9.249867442658218 6.699660738813892 0.287629310653053 -0.8040798606820152 0.2748681543326427
Ni 8.829381649099568 2.3012189795779205 0.8422863455140601 0.6169827405177697 1.1087589277285035 0.5746862937424038
Ni 7.065910698467075 1.085636917874188 4.705969488347757 0.4521670574595439 -0.9195735575766615 -0.526247738625042
Ni 0.9991343799750372 8.080643598021146 2.3993384055981393 0.0020347710418416568 -2.251037841591323 0.40029865072502674
Ni 7.906782061451566 4.106082497060617 3.577457597586268 0.8574060829089815 -0.8899379940984157 0.3788253113425992
Ni 7.792790777308288 4.003416539924781 12.56485352560132 -0.6587171441420785 0.22117323591234814 0.04180768006440541
Ni 8.580816688447921 7.349626995880354 9.179557480107116 -1.2139674406470575 -0.5218154138853014 -0.43859266120921886
Ni 6.925715359236589 1.1465094116285834 0.19322119451440026 -0.5072395729536555 -1.435095425143767 -1.3440925143016336
Ni 1.8769428915421222 6.631120187771111 9.122522659510834 2.2360876480393936 1.0545611015298613 0.5075463055607968
Ni 0.12884541175408307 4.9773308835711 1.3689067623322253 0.3412974896004703 -0.2634023197848883 -0.21423871357604393
Ni 6.891475150955042 2.353645312321939 6.83085412866115 -0.9278175427530085 -1.1403323316594103 1.4209738981407203
Ni 3.7485101250517507 4.823696399259378 0.4888650748604549 -0.023229917062218056 -1.214879668048682 -0.1307529370465619
Ni 6.304271068110667 5.933387109007778 4.772765228351177 0.4648600795461801 0.3757731547798367 -0.18353434251365164
Ni 5.73083413660036 2.9997538514037276 9.117788435928317 -0.3264866498398829 1.3651657900321648 -0.716566965271011
P 0.20688083268781582 6.14024060784119 12.580549535927723 -0.07463321123485855 -0.5328112507751727 -0.2959776826177483
P 4.246678732822341 6.44637066586453 12.524474133620968 0.1839302924004897 0.33983993121833733 -0.4689391347115602
P 2.613900051373061 8.813017781597264 1.0252810339680005 0.5045900511459503 0.8613686671011553 0.609197440145396
P 6.714488443698774 8.152121627283716 5.717770376452918 0.22120614603281258 0.45488522772165535 -1.0700748808947442
P 4.9355191976200565 1.161880149087596 12.334553046461432 0.6620490367287888 -0.3795079392319206 1.4197243420043355
P 4.06595639879773 6.503698869831398 7.886074844484702 1.196816639899384 -0.5692970044060325 1.5649536182902017
P 5.121535188113954 1.5947572899753848 3.9109725332070036 -0.8638664938223445 -0.3165066558090356 -2.3135580716127317
P 0.6952903433082288 5.9199661864961435 3.3134453646832807 -1.3696536506001895 0.5798637241782852 0.9593436383857477
Ni 1.0056489486076359 0.3361080072750539 4.799222577155849 -1.0266805730695092 -0.5516736348973144 -0.5950196059831172
Ni 2.0956046154774213 6.63763475640371 4.957979425782601 0.7916650319574302 -0.2916723703741751 -1.5299580760516232
Ni 6.107859101659015 5.881361672794996 9.039044157037079 0.11102589093127976 -0.03321736729223311 0.34806669000350376
Ni 8.946379657227123 2.6475753599969565 10.276664594417078 0.08202281883071035 0.392313318526705 -0.017661164725188937
Ni 2.9596095305712375 5.019352129072562 6.885341434027118 -1.2494733468631514 0.312538672300223 -0.25645082816771964
Ni 0.8518367942422981 9.140258686504142 8.823278910539967 0.6185994501855864 0.4055560424692241 0.5216752887630112
Ni 1.7399638358463319 1.1649050956414742 11.379120032905131 0.6199631633023323 0.8422376026986592 -1.0894502000975623
Ni 4.020518421495953 7.326812338739056 1.7088907101615556 2.3326636820939313 -0.28204538880737234 -0.6794649182123911
Ni 6.016290689410598 8.220192036030772 7.840948473123115 -0.6643257485781074 0.761714765452243 0.35210949261430974
Ni 5.897944211132519 3.3417094812639587 4.885688669915797 -1.7923350398957905 0.07505487215330946 -1.3253255181067758
Ni 1.3087813939314987 7.485175579862413 6.964299828111176 -1.0167448020130363 0.3196161479722947 -0.07758612321559541
Ni 5.574639381259603 4.826657566819651 6.945044038813085 -0.3027116589074722 0.36031902500829555 0.36970972219457615
Ni 0.9667164286536574 7.648358690645412 11.189585264221149 -0.3533888735473656 -0.1447191694186669 0.022129484909187695
Ni 4.9131965498580055 0.2621152634074528 10.150019557942397 -1.005545847973423 1.8587116675488118 -0.572043456802918
Ni 8.394846254378026 7.703463741120877 4.3317143538685565 0.34983252365467493 -0.0338323751684127 0.5953422794298585
Ni 7.706260905554735 6.672549199760518 6.889035148885378 0.8086844493335621 -1.4630641424425512 0.04081549135446519
Ni 2.7102336655723156 5.628222847173328 2.4602400554638972 -1.6149662027629028 -0.7667919228648342 0.7674745507541556
Ni 2.6300361367553444 5.70145935440246 11.211041428798643 -1.0042045034541802 -0.8557940012268553 1.6315271924453774
Ni 1.4906061934170116 3.7638717512259627 3.7851010448119142 -1.926668495204759 -0.21904153428132597 -1.6271604308362493
Ni 1.5067605013688965 1.2924266377139957 2.243955465733137 0.5298274855565004 1.1505056726479863 0.5711849654573646
Ni 1.2628787411048796 3.519087973766663 8.579002631644075 0.6432519586269437 0.3243552053191769 -0.36707254168204523
Ni 4.107549413913553 2.94309988251212 6.829853709590018 -0.2545968056781164 -0.25727563806186016 -0.09272760684272417
Ni 4.663237562631829 7.411119057001206 5.903091175916512 -0.4091064788246438 -0.6540459639186542 -0.03362951512898724
Ni 7.962133116616653 7.428020490306759 0.3938270853598793 1.0430569575450037 0.8121006741039626 -0.3100537010948402
P 0.5521374810313907 5.516600497078268 8.087197345178389 -1.469178482870405 0.5609710010388402 -1.248186509730928
P 9.04383395945688 1.8668840331219978 7.88627529275032 -1.2371803884284114 0.23166050859691714 1.355880250965181
P 2.164276369021333 3.348333385314168 10.86115078100536 0.3713919949930055 0.5177211892112696 -1.4961856075868682
P 4.239827046652111 6.340834654016429 4.010253648039329 -0.6525668082699664 0.8576534230330971 -0.4917841576305337
P 7.086247086142545 4.19684911624656 10.427873654714816 0.14628548546452227 0.14139807546523392 -0.2272217560992732
P 6.365416900409088 7.906782061451566 10.022174565259444 1.3695505493634221 -2.2056856387087693 0.8200998902593554
P 2.879694451583092 8.688102066977782 5.609834452188277 -1.570025119275838 0.8026356720363209 0.3122535369596364
P 6.964155869811322 4.331140342926104 1.4637880377342267 0.8605929652773953 -1.3292557063991173 -0.01320055785067404
Ni 3.017211073082132 1.8642235379601535 0.14405305721516087 0.3479026536218137 -0.715423081474555 -0.6577678928549318
Ni 1.8208720448777687 1.2078283583382194 7.027975864198789 0.6363935409442136 1.3857729247595554 -1.2911100485673312
Ni 7.615831403906423 0.38680410703539375 9.507605644847347 0.015603510865211835 2.2736532649979937 -3.259565912121522
Ni 3.1941522239143962 2.1201777505852797 9.000077925329338 -0.11158947674423363 -1.197870020864563 -0.20427080373005463
Ni 6.637598311264506 2.2128212944401953 2.2540234354380626 -0.05608578724997437 0.8377451141449442 1.1536478178213938
Ni 4.260600775998021 7.067213612193595 10.215829456930365 -0.022116886503697395 -0.12931928992382888 -0.6330955869192322
Ni 7.26113819789462 6.377780913883825 11.317950511266227 -0.7683232719076961 -0.3224983546160962 1.0950714029390816
Ni 7.871029379893079 4.136650857567427 8.09865296355848 0.6844487445802276 0.38168514938889747 0.6168475004914861
Ni 3.040335513906658 8.442662277012822 11.974834055753488 2.050562500347959 -0.13345490935875728 2.585367898735025
Ni -0.018374728057848948 5.410900482103751 10.309083456866937 0.9715337526940364 -2.1617056335833933 0.3666333972620976
Ni 8.910854757788657 2.3753483927175343 5.743974431540127 1.4787015918694921 1.343703249283015 -1.2121195888050413
Ni 4.268354479363533 2.57015677304424 10.983621937912778 -1.118851793188131 0.5122282844174985 0.5284262343335996
Ni 1.133352716376174 4.090465754911982 12.624289169742623 0.4552775780640676 -0.024457361711415944 -0.15470327721457228
Ni 3.410508792795083 8.636313524169822 7.715343034244209 0.5418016271992412 0.03068483067836651 1.6364634534047302
Ni 5.528773173572187 8.17402515594493 3.6092486925133507 1.0794272686439215 0.3816018456464718 0.6086706211076485
Ni 3.102902706634009 8.461586415544161 3.483110243473596 -0.19672461595168056 0.5939438564204352 0.4118092224677875
Ni 3.448284179579355 4.693122576778577 9.308243444377183 0.928474459610717 -0.9108513472123153 -0.6692260140932023
Ni 5.098119186175802 4.670727038738117 11.492296768187213 0.662053407604163 0.8366925045107139 -0.28903467564101193
Ni 8.176585426973965 0.1580789690375701 2.2076032616347554 -1.2302011288971009 -0.06547417044340982 -0.09736304873220653
Ni 4.764518604477939 0.6091795906555137 1.69675538993532 -0.009144128393113283 0.0964960727462209 -0.20475879911006672
Ni 6.11575858558134 6.019279190825272 0.499886996084028 -1.464585207072768 -0.212881171106885 -1.3152434512804252
Ni 8.001894763487508 8.74411824593333 11.501964752489382 0.17736240937498485 0.10208950767359837 2.183460251651666
Ni 0.5643684697480349 4.980802283080219 5.943016825913782 -0.9597480729130181 -0.3413615100691863 -0.1322662883672948
Ni 7.552544419679806 6.2630698382412815 2.6119693701237634 -0.25056454459027167 0.7996699045397777 -0.6772738240983432
P 8.799059293282381 1.844907614182378 3.4290885247609504 -0.09405481029457995 0.4719933481568517 0.20446209380525435
P 1.9317199357647574 3.4580059204618485 1.247390468071936 0.02195182168074284 0.21047333299634075 0.8388288341274264
P 5.173751961307555 1.285000940601313 8.034856658511497 -0.31348715225642143 -0.27865898883364265 0.08115532862409248
P 8.984309935853009 1.5671409857440464 12.141511344257609 -2.786208336627292 0.07932701716610208 0.8213638445734434
P 6.166553998346009 7.984637990074721 1.4936584738252923 1.0095156312544487 0.6804411660827314 0.15384709986186407
P 2.1238313757904157 3.2872877771485567 5.763444336031037 0.001010700652701485 -0.31091476354355485 1.2027240065227545
P 7.405634063551101 4.351403840323167 5.853723501480135 1.9336832359596956 0.8182692648085197 0.7607459737810706
P 2.6460355528656145 8.747471198740039 9.998010526839144 -0.07949233909937277 0.3353150467647903 -2.0664593740838733
