# total energy = -340895.6443173656 ev
CRYSTAL
PRIMVEC
9.05103895009098 0.00000000000000 0.00000000000000
0.00000000000000 9.05103895009098 0.00000000000000
0.00000000000000 0.00000000000000 13.24711039650103
PRIMCOORD
 96 1
Ni 6.355295670206145 2.2120920419927628 11.580398957480947 -0.021149123273789382 -1.1952161281814837 -0.38885904142951744
Ni 4.526035426235362 0.030552687363240766 5.937129520899251 0.05200416098143302 2.0633334268603822 -0.026941304475534243
Ni 2.8327217885555718 1.5593130047811112 4.960751400415963 -0.03130472365055254 0.05976657853567125 -0.2282093168235231
Ni 3.272575132491883 4.3641666441509335 4.9010335499733975 0.8702803677684883 -0.4596744215801825 -0.7149780235173364
Ni 5.061096649770539 4.277892140078646 2.7169291308816335 0.5987700741644849 1.456067399409744 -0.04445308810705247
Ni 7.133178168946032 5.984501754099413 2.5353245581835218 0.1287122524674493 0.6351527265585771 -0.3332980163347614
Ni 4.962539885729085 4.5155995782291365 11.355727730851159 0.1820824405584735 0.5688416620361687 0.12992375627704722
Ni 5.949320365374175 7.787405372403128 12.357328381810554 -2.0442954363923245 0.43636428609933237 0.5441500728267596
Ni 1.764128967081969 6.6000719698422055 0.6158064478615797 1.078970126501845 -0.2396928919830904 -1.1712079381923441
Ni 2.7684322582969223 1.3912171078412763 0.46434998108188846 -0.32480591970335027 -0.2574345322372276 -0.2505892271806201
Ni 0.5277878085674372 9.115844473504437 4.935952458566649 0.015551574581353861 0.5747788534562102 -1.0058759776193322
Ni 8.764854230804142 2.282065624764778 1.2887819735737454 0.030706942165553572 0.2905698813386157 0.4312498476909024
Ni 6.948880912135301 0.8462630986419151 4.780987809057372 -1.3253278320996207 -0.21393686606490897 -0.8497935606690461
Ni 0.8242401104643355 7.398617990696762 2.689574175609112 0.08499835651926652 -0.4748799256760273 0.7082427616760318
Ni 7.67031208042 3.9378808077266196 3.7454883016038587 0.740516276997757 -0.25347811869264086 0.02101311191655736
Ni 7.692414717741079 3.9101574751654136 12.60764572754324 0.40897998054910856 0.36039178722775994 0.025408412770775598
Ni 8.03369319555787 9.240205749831881 6.856532255767282 -0.09523366109402953 -0.04416615299425297 0.6195664420845459
Ni 6.718685836383049 0.7953166101272185 0.45321177244662236 -0.29384289566293265 -0.5556133362713529 -0.2614241130125949
Ni 1.731146980841997 6.4262015099986645 9.24760949976171 0.940077076846652 0.8492960522073373 -0.7083155238954962
Ni 0.03932314418720696 4.861412626601971 1.3649690946426156 0.1349392072137676 -0.49351759538187273 0.7092912575452043
Ni 6.41552128393852 2.048096265735339 6.86878555241154 0.19673464325400955 0.23275914097773462 1.3753437590064315
Ni 3.487374390847266 4.505399057237795 0.4106193929603271 -0.7064689576050608 -0.6529972109391657 0.490615334133413
Ni 6.03241795474552 5.743952289692241 4.81050234224341 -0.38760948529313244 -0.18587456061105406 -0.36007219910481214
Ni 5.347661596626672 2.880013467508331 9.331661973751146 -0.3784368176549289 -0.3722175762180945 -0.4828454603800071
P 0.3059178785186774 5.537814875692416 12.535038292412326 0.16800153698537518 -0.2824619075195006 -1.170958026965067
P 3.904201891481028 6.290499281761591 12.508106925766596 0.28363381634041474 0.17811394282902873 0.8572710999930139
P 2.3434588225325412 8.507189251583636 1.5061173330664606 0.7113975052549296 0.08251441375514822 -0.11978409673988404
P 6.398822116920751 8.043540726026883 5.797518148903383 0.9401860916206906 -1.6421083103953331 -0.22765832941605954
P 4.717057605048372 0.9443854128097351 12.648923896161795 0.20773048014388096 -0.2204319868709494 0.7480341826413568
P 3.975098680234513 6.062901854212102 8.24435250865909 -0.1465927322922959 0.887612945509665 -0.30251111286089194
P 4.79579259360532 1.3180394572512177 3.914666702812163 0.40185442524792075 -1.1485269516550607 -0.43905391711635355
P 0.32439466960272756 5.450128409530823 3.6499627305348996 -0.19284867793604207 0.4369777513136152 -0.7552530689872993
Ni 1.4667570796192142 1.08110135741862 2.6683259563728448 -0.07970496933081113 -0.2746449825782431 -0.2055661255027105
Ni 1.8853766859817123 6.478281188600421 4.89239614342323 0.5374024696902809 0.9571443167415838 -0.5546106060384512
Ni 5.933616812650148 5.723035338484618 9.252497060840081 0.049619719909656475 -0.20895098281454333 -0.16865871095339985
Ni 8.722169530719698 2.4315797385677684 10.358008165429553 -0.2684619936959828 0.37405951452283964 0.6997591496850529
Ni 2.4147176528473873 5.206402030422709 6.914090528296331 -0.32659489328297303 0.1392262646248957 1.159648772599835
Ni 0.4893887754656037 -0.06409131250380501 9.12918027441716 -0.6450090505273665 0.3188047078145929 -0.2861054178093589
Ni 1.3212163719521588 0.9277767561823068 11.560488481813909 0.17088374362917666 0.7297078735283432 -0.9540034571197571
Ni 4.23155082022446 6.7982173163749895 1.7828492311160344 -0.9289742820652711 0.2443687001922049 -0.21167403817266126
Ni 5.701756345715635 7.859569306621376 7.865379168577314 -0.011441666178038361 0.1414096454294597 0.5268187806371637
Ni 5.345199714009419 3.1328723450017715 4.948418454628206 -0.4196603430810902 -0.24799678386309545 -0.6928194851424262
Ni 0.4966214607576898 7.518643819326913 6.780586797440621 0.8067324678135138 -0.8609873725023367 0.9026567272166648
Ni 5.191060519260044 4.534443841497968 7.1836956382105175 0.6353854113946735 0.6457739537178492 -0.3944157095816884
Ni 8.024207706650214 7.089543109763018 9.04217263618312 0.2201244829328596 0.6851838229740392 0.26075305508749935
Ni 4.530117444839705 0.4154390712459432 10.580149626649332 0.8191447254349375 -0.03497523052360428 -1.5950018438258335
Ni 8.164182025311348 7.251656269901366 4.699770120493393 -0.40805541185231015 -0.471170338034924 -0.572771078997562
Ni 7.328037988309467 6.044492040816904 6.877926196731997 -0.822708788637112 0.6913943226601253 0.20784026624886784
Ni 2.4172247906598114 5.074700361438671 2.5991624415943746 -0.31832802528849047 0.6531411927161977 0.14751190167245562
Ni 2.4153421745407346 5.01342482717835 11.5130501760288 -0.9473856946929233 1.3165171757865262 -0.10497634230309019
Ni 1.2694625307556278 3.2359908327163707 3.7977345193238405 -0.8962212560039662 0.38698959232094643 0.4887926791023775
Ni 3.5283574955933124 2.6217149155554442 2.590512363589561 0.1513724130691264 -0.5215906994690049 0.42981157258247915
Ni 0.932664317260678 3.6338111513786893 8.046308533763487 0.9619383956961175 -1.22818821223213 0.5654398354434713
Ni 3.9971289092433198 2.629064359251069 7.075029768671966 -1.5295574981790947 -0.8224979581778866 -0.0983701498404822
Ni 4.199627805551469 6.8004348209383245 6.140287332849077 -0.364352828758037 -0.7063967096062286 -0.44532843727115556
Ni 0.7533270298405891 7.358874878298377 11.364219415672878 0.41203213711187103 -0.5113448533712807 -0.1328321881730938
P 0.17382158423275673 5.637312947793407 7.899397498786682 0.4143286464555315 0.46065015522989045 0.30771939653470876
P 8.61839936819465 1.8892324286102051 8.283153407894035 -0.13977159560540445 -0.9888568173535163 -1.611690360225108
P 1.8201367966244901 3.2649632086642715 10.425051926866255 -0.6525786353445084 -1.3304633535539732 -0.29810758447655755
P 3.995336803514584 6.149809931016771 3.8827147248142624 0.222292694228772 0.3567019970809986 -0.21485732099664934
P 6.886021446044025 3.994431699611182 10.447174476473208 0.5526401125756418 0.7895317876645113 -0.045101006103696516
P 6.177831947866099 7.937534956860431 10.10498908454521 0.07140210589207058 -1.5129157758573557 0.30610782907321477
P 2.315065713082818 8.53412514374888 5.905097893757852 1.006565547487189 -0.4523704317196016 0.06571251170646102
P 6.914613678352498 4.029893670546476 1.43321845447865 -0.2550729739835865 -0.39312758689788424 0.5593054404109593
Ni 5.102269826336299 2.794146260192575 0.4630783100976085 0.4554876371923446 0.4414388724087623 0.6187346902118699
Ni 1.4792203603690608 1.175693766363172 7.161546840590365 -0.2642320147750353 0.38231635521499313 -0.4763914772245473
Ni 7.015324589684048 0.6284416983530727 9.069594569144492 -1.1016572836867158 0.5989652208944265 0.37765983027958827
Ni 2.698223348510022 1.5238781869629197 9.235382451130652 0.2748712396564363 0.6580553421883635 0.10218438138024982
Ni 6.503814169715393 2.1282794205377296 2.5508371339839306 -0.03238098743386681 -0.5098150469903155 0.23299568246857294
Ni 4.071691368805584 6.828963695973559 10.422866100939538 -0.09775257086114134 0.7796101576754251 -0.7140591112474928
Ni 8.053315848183626 6.996190693166127 0.29947896934987495 -0.9479261405774254 -0.3300429997325735 0.3402757332041753
Ni 7.627582125140387 3.97088089604466 8.33522765587237 -0.8010253901264075 -0.3851193718814271 -0.2903778199324677
Ni 3.110570584821944 8.391761350782767 12.148646720738265 -0.34566785075402406 -0.6518168174778194 1.59001981723021
Ni 0.09320035914111945 5.003848827880357 10.139642797694766 -0.22549526032646972 -0.8341851647078278 0.8768698480605479
Ni 8.61637193545103 2.3799345098396456 5.6550194954556625 0.8822151715328614 0.6354381190094799 0.8704742289468492
Ni 3.6562667792220953 2.5963539041821178 11.615423763230899 -0.7657693951375909 0.060077682018186855 -0.4118557594350068
Ni 1.083300759903887 3.250590158678247 12.53664123142525 -0.1536784354944837 -0.18597071986928618 0.6832480394039072
Ni 3.186472598161243 8.215990172742083 8.073186499278917 -0.2939699081591002 0.33636919906091745 -0.1316780199639926
Ni 5.738494513154727 7.8677333438300625 3.5229893243422348 -0.15375042638299974 0.1821904268912475 1.0306701538448766
Ni 3.239031981831802 8.60606280199128 3.700301894330413 -0.272593242255537 -1.2038444932804429 0.01906113039650911
Ni 3.27033952585048 4.335438646256951 9.266870110826108 0.7578511687317787 -0.7294101397822664 -0.414581385896286
Ni 7.2670701893763034 6.125960443162125 11.310542228681616 0.22289998879546774 -0.6686359459176872 0.14425251419489352
Ni 0.39843488421272827 -0.2991250737236447 0.16675362785108988 1.1724824340293938 0.9978186545324944 0.7958129926875327
Ni 4.669277169987776 0.343090495831401 1.8429381741589954 -0.3868720929064757 0.4256253024152734 -0.6460763154496164
Ni 5.714065758801905 5.537914437121791 0.27912951828968585 1.0142346339966726 0.3122422241057268 0.20884351070240162
Ni 7.854346857098745 8.64052915863283 11.26612425462216 0.8452388514188282 1.283613740190286 0.16843193965457443
Ni 0.12025300970990437 4.92691499609118 5.760293940668166 0.09299191624770436 -1.0665504126812535 0.02260025389801914
Ni 8.139698964724321 8.815540049394658 2.274528824561149 -1.0996196844313966 0.5950715422669751 0.5286028691207799
P 8.598496133358838 1.6191856279911592 3.5873702700951284 -0.3552920041073494 0.17585471448120682 -0.8627172107092497
P 1.817122800626161 3.231202833067374 1.500168990213302 -0.557815229018678 -0.18581233991455096 -0.6959289773056854
P 4.729339865017538 0.9548393628940292 8.252950090637507 0.6833637390461651 0.30416844595865683 -0.3192690490455211
P 8.430364032262865 1.459353329689385 12.524016842180599 -0.0543268955773387 0.438468991147161 -0.9416739890201266
P 6.183407387911055 7.777060034787242 1.370082026592934 1.2758729199026024 -0.2251533036060187 0.1849448497079331
P 1.9763939345078259 3.1111951065152916 6.123927579795084 -0.9778843775024126 0.5828534029342285 0.34618618515133925
P 7.02052893712861 4.027902441958991 5.893175865142239 0.40667935744038997 0.2952086656622077 0.7776201238285898
P 2.3023852073961546 8.60088560766382 10.07795091563888 0.5573254338664531 -1.253469869617054 1.126103589654538
