# total energy = -340890.34807415755 ev
CRYSTAL
PRIMVEC
9.04996896232345 0.00000000000000 0.00000000000000

0.00000000000000 9.04996896232345 0.00000000000000

0.00000000000000 0.00000000000000 13.24554436124265

PRIMCOORD
 96 1
Ni 6.399486505694654 1.8736603397213696 11.498377526064239 -0.7709349984989303 1.7849086655247322 -1.0370138366747172
Ni 4.748808353093311 0.46021264549301794 5.982641311830321 -0.18686160711467173 -0.49951443639525583 -1.0889807166603116
Ni 2.9305609737898126 1.6167045688337958 4.752210236454585 -0.7334660550191948 -0.3503398023083966 0.634860649239455
Ni 3.212467509314341 4.201828224454387 4.630152399046146 0.3779261965670975 0.3488511335780121 1.2336201818809787
Ni 4.775587211475882 4.441534754356095 2.6448172513932975 2.004646711652451 -0.35096895125196326 -0.7134741852783002
Ni 7.292320251078532 6.003785659490016 2.9484446176052224 -0.22390091925615632 0.36458705625603016 -1.8859892723178424
Ni 5.512480940371057 4.320853417238291 11.931334379806401 -0.35226093059050945 0.3818826101116843 -0.4921371700945782
Ni 5.658357391289832 7.5896931836885 12.3041044144633 -0.9362114232436586 1.1489010471650278 0.2922732371829676
Ni 1.8693163545832707 6.363349979327095 0.44875809968199404 1.147499795942127 0.5067991429821271 -0.48135679164962264
Ni 2.484126001159798 1.4691448236740068 0.46003798109059024 0.9742866328488253 -0.28077243563221965 -0.5821476351164554
Ni 0.34293228673958415 0.14089987294494155 4.789416469162401 0.5807720949251676 -0.5159265592046921 0.1012947796864449
Ni 8.603905113806086 2.2628090083427086 1.0896597119911298 0.7469388926946491 -0.6632165746743287 0.9916744893079694
Ni 6.7968887460783804 0.8338560021620559 4.86057185072136 -0.32570297759632294 -0.3079644226659793 -1.3062204218462083
Ni 0.7689984940564354 7.294465093740469 2.332076566360403 -0.172483998236761 -0.4554467566520801 1.273919652830974
Ni 7.747325544387254 3.9030434966745386 3.7943587985131177 -0.5456050601057313 -1.44609846112249 0.49925012699027566
Ni 7.750493033550453 3.864336779100272 12.931797596961903 -0.027190187261546723 0.2677459414655647 -1.8025626311610699
Ni 7.925365585266037 8.922147275017002 6.753771073595136 0.11927964629963973 -0.09348479672372287 0.6652732000930414
Ni 6.495968225605632 0.7148615792728807 0.2646790144643517 2.0078387362271872 -0.6419422386765847 1.434467304641465
Ni 1.8111431536088995 6.7617386663359325 9.060190977733644 1.7280762299167207 0.4380727841500068 0.46934356923883036
Ni 0.15348747487948622 4.9908859748828975 1.342674221362783 -0.38384616159595825 -1.0866636384913608 0.45558533911247345
Ni 6.342535050540373 1.9839161125077363 7.085001750368967 1.037197670550749 0.6979169542699916 -0.17644581109798643
Ni 3.3661088336674685 4.087771464672184 0.38301912459210086 -0.38833093684018927 1.5108884610146818 0.2816594662228633
Ni 5.877692440887665 5.720919827247491 5.041240907605594 0.352405940808806 -0.07593521787573373 -0.9994569614668658
Ni 5.271561714618297 3.0775234209931135 9.098033423264809 -0.36534090370291916 0.27710655674485823 1.0450953281312712
P 9.477308575666012 5.430578720579821 12.20661724299223 -1.046395277889617 0.7792445468058903 1.672375851030623
P 4.233792715095563 6.141797687315026 12.668131274032872 -1.7306645594691874 -1.8617964771217226 0.22926424045059868
P 2.4898093817154767 8.35665995969597 1.5226545756032484 -1.07676026333472 0.11754260900387499 -0.7870781839176961
P 6.42273587615252 7.844467912037986 5.588864489043099 -0.29637183273237344 -0.6536376727366421 0.8785505781970805
P 4.537582075753263 0.7965094949341565 12.588049003015119 0.2872387600828537 1.564108753791403 -1.3589642892071434
P 4.128541575187048 6.649871999060853 8.05890692838642 -0.6055675567022926 -0.9630167163619608 -0.02388349148581693
P 4.7605190130281025 1.0894081228518815 3.633862122613928 0.08596714819043905 -0.12538087410137116 0.2942599285956932
P 0.36781155662114046 5.238429777971257 3.6394124686247533 -0.5781410850602237 1.4825600463836337 -0.020654700135874105
Ni 1.3266892610514835 1.0028813688823788 2.629160804958067 -0.0033771440023490223 -0.4707594757497505 -0.3250211210379499
Ni 1.612550633045489 6.619147354177843 4.782807276774164 1.062316577105564 -0.3666971606204975 -0.1690420624347476
Ni 5.970988571697371 5.628646342939045 9.036693638124145 0.39389506119152806 1.138987901816374 0.38519984741037533
Ni 8.563967600442691 2.4135995924489584 10.273628021250376 0.6688727445188417 0.8171292376668057 -1.0157153323072572
Ni 2.1682277819296476 5.28456652012548 6.872875001109667 0.560302514216906 -0.09179018263011933 0.118234492864577
Ni 0.7020676380442763 0.04443806296584559 9.025977569786598 0.6252596358145812 0.43008745195168513 0.51486675048161
Ni 1.4276507156361267 1.0534706958031528 11.463171336513758 -0.48414823835183063 -0.5933543024655523 0.06912179449832612
Ni 4.326753997050875 6.759023675624619 1.747776175403789 -0.7041446803472583 0.18739048303494824 -1.1195246508854397
Ni 5.873746654387225 8.2187293815923 7.816990396045705 -1.3532114458837663 -0.5653362199860715 -0.09950143523144798
Ni 5.157197255888812 2.8795462983242666 4.989516714567492 0.6339517642719404 0.3960607013842791 -0.04505369780552886
Ni 0.6750109456122481 7.575756231370433 7.0469339606087615 0.8642899545130082 -0.18563519090673838 -0.759423141204589
Ni 4.844602275357425 4.6609150537991155 7.11110910104894 0.6484160193263866 0.0008255812250889008 -0.7935558212222397
Ni 8.443612062210246 7.185765915628588 9.45743755864992 -1.4695340664376113 0.39311601693365844 -0.5308099040744277
Ni 4.929047536448255 0.3923885575368375 10.375380443128915 -0.9836932708747058 -0.43740609710028533 -0.6138233689531816
Ni 8.318641039768568 7.015183049236875 4.789138635112942 -0.23448949340528003 0.10559854926812136 0.3220108734567164
Ni 7.450902858526248 6.114638730232871 6.997236960635106 -1.111207903489628 0.9142747710715674 0.3966695386128717
Ni 2.3305661265280095 5.155885010378345 2.6943423019552375 -0.4468896111106884 0.3766817826370351 -1.2007278020283323
Ni 2.4480256746683904 5.367952934838899 11.542114216429663 1.0330479100484338 0.14358916957928175 -1.2164452127635887
Ni 1.142078942651328 3.087867535603211 3.7488465042224965 -0.7878554284033528 0.46155106977760507 0.5996938715303349
Ni 3.3876296600391322 2.6470073439004227 2.616088124683101 0.27222043229715054 -1.1029767738290877 -0.0693105134703645
Ni 0.8629263127049737 3.397647975763872 8.124803372937569 1.635829933585789 -0.24165567213641606 0.20034935718846142
Ni 3.3277188650095213 2.7350725926063353 7.25998923669133 1.4000533459379694 0.99193545627884 0.7553764819390411
Ni 3.956637413315831 6.854310799622621 5.929076355089949 -0.394570747102314 0.8038705728846866 -0.8608739868529238
Ni 0.7694120776414585 7.638617316306337 11.500483453859314 0.06453674623080498 -0.7734012006512357 -0.15217588280702823
P 0.2686582858502309 5.616193585543162 7.942227487577089 0.026631229434283168 -0.020980973127041287 -0.05176093462237537
P 8.553623485832594 1.59168140444454 7.989938019346969 0.36790892154041155 0.4907166355979678 1.2730274800340073
P 2.31262003792624 3.476020707630402 10.191267873025833 -2.136619637149043 -0.10072219501242653 1.7098869606022036
P 4.093255745909034 6.061289162755597 3.7621581036800573 -0.6386134314136679 1.1409820494282674 1.226149070314914
P 6.9265205025744745 4.107961945595306 10.302238593366178 0.05824140014039647 -0.4563677258044527 1.6348421157512232
P 6.3311139896147886 7.698446661614607 10.013578970945714 0.28929050040555987 -1.226752508226868 1.037602876408968
P 2.2944296001604516 8.478092444243904 5.647463038562242 -0.25957703250152714 0.9632655991479733 0.0011186869854754927
P 6.807965908180532 3.826752257686681 1.6993905159436962 0.49145248532272784 0.9784387073439859 -0.24865652893428145
Ni 5.166075275514801 2.702628453606161 0.672498674207381 0.21660258582253017 -0.4551089136966871 0.027962546651197
Ni 1.5706130765247615 1.2170036363144923 6.888954986095862 -1.52889569622538 -0.2889364595002508 -0.07678445324990647
Ni 7.2432965688012825 0.4353976303916293 9.273377478367259 0.1856254207147255 1.0938652984461226 0.466585546877719
Ni 2.7398962261034323 1.6120076349032266 9.464670293904856 0.9400997025544714 -1.3751635246748253 -1.4227111925468015
Ni 6.558195812708896 1.950304527501698 2.6957468571498895 -1.6066689957511169 -0.21449273856837897 -1.1532140727180848
Ni 4.136261198776211 6.894166863264678 10.264303838150827 0.09009531142619968 0.7519060068919373 0.7316068903232691
Ni 8.140573848982674 7.0113549123339265 0.4184198884768937 1.1003686467822793 0.5424899115155174 -0.3388451714052358
Ni 7.648508932464548 3.791575028037119 8.373330002663424 -0.641740921299056 0.19507371061181888 -1.5795394865241765
Ni 2.983657142134031 8.264866123746522 12.425260874955583 0.9257372631852121 -0.47452022834376345 0.694384515636701
Ni 0.18374242636943966 5.096399563893506 10.045129878001868 0.21266854087544662 -1.9855444436053613 0.6364804442310651
Ni 8.400335110271937 2.1913595027900232 5.974124385968936 1.263964598500791 1.3039179989652767 -1.454138300707831
Ni 3.843078401830702 2.7322309023284954 11.680239368867646 -0.6811024538158141 -1.027204306783463 -0.5946511669001049
Ni 1.3314947946105054 3.2730299021146663 12.245055176486078 -0.8344497312231242 0.5541598916542778 0.27133005927239723
Ni 3.2293819014458127 8.765591860633734 7.564437435094975 -0.3945139257224496 -1.3627520383843499 2.1770502343602636
Ni 5.748838981728813 7.898993975490163 3.443524078809809 -0.7980935611915932 0.44708887160568805 1.249804504950325
Ni 3.171181550564328 8.475006404802045 3.6131195935795075 0.6326333025708331 -0.7517620251149053 -0.014212801165272298
Ni 3.396417179974744 4.806619555306175 9.165863846199315 0.9983696419399579 0.4958171900493268 -0.9498624383681901
Ni 7.394774950554397 6.0688639868401575 11.572327538062044 0.3061260839056598 -0.7047504322520572 -1.3941143547457153
Ni 0.49572834398458965 -0.004277015367219646 0.5137459273417576 -0.06767914851452861 -0.36119988495135213 -1.1090008685359805
Ni 4.523074975385821 0.15596083141749115 1.346807342222303 -0.5790643682054414 -0.3140810770866785 2.021834279175331
Ni 6.236550863139803 5.625352154209321 0.5293127790835149 -0.8779144872749783 -0.16881169159149637 0.6845204783584276
Ni 7.579584368273383 8.627597932746799 11.743844361258446 1.5236295627304342 -0.005658483837357997 -1.334957898990217
Ni -0.12915301313399974 4.628443764891827 5.902321026626876 1.8511472249379926 0.0588918892402018 -0.5034546519899266
Ni 7.9770137585642225 8.746659325406855 2.529435576143974 0.07941392045295355 0.3661729126859113 0.18963891274949277
P 8.411710921352332 1.644605623377042 3.5451434661434935 1.4849082349008362 0.1001886911064597 0.4988518631105925
P 1.6570583807729249 3.1844850050497557 1.4778979537272756 -0.8166952354531807 0.36051828550329523 -0.4478481183692158
P 4.71252702722115 1.2948605199458731 8.09338550042627 -0.8488422524993704 -1.7108567807146406 1.3517276622493881
P 8.378452285138765 1.544558215665207 12.168443568594286 1.1652843736190577 -0.1681221217236395 2.1203435256968386
P 6.426328713860489 7.703170745452289 1.4219754800525817 -0.4886237576246811 0.3233113374356948 -0.4953096542852889
P 1.7733776328145543 3.237490673703597 5.981529070635587 -1.1654802916799474 0.21714251748640023 -0.8749854865536415
P 6.902031286358443 4.060368158426011 6.015000381121541 -1.5686840318669113 -1.0450976421241163 0.49118329082174117
P 2.567394766275727 8.543261271284422 10.286873555933962 -0.8708467817949195 0.20384194372275216 -0.5388047493544462
