# total energy = -381171.67143526074 ev
CRYSTAL
PRIMVEC
9.23101074612121 0.00000000000000 0.00000000000000

0.00000000000000 9.23101074612121 0.00000000000000

0.00000000000000 0.00000000000000 13.51051731180786

PRIMCOORD
 96 1
Ni 0.9585573732774342 4.841000434829578 6.07886788109508 -0.5294762728646687 -0.17508826862882748 -0.0797965006033529
Ni 2.2399416497844062 2.7181449236864696 10.407394915114219 2.3530502161700833 1.968956714450009 -0.1341205679672142
Ni 7.024743691989558 7.4668075593337 13.19834297331947 0.15535248076279695 -0.39100745523108793 1.3255103804240722
Ni 3.004740110251935 0.7654630932318127 2.2879253660624985 -0.5512172640861862 -0.9020463473261755 -0.3316609949519707
Ni 0.2973797762670287 2.9008912408326197 7.279939595947931 -0.4641309146896394 -0.1813098240585071 -2.6059994589424473
Ni 7.940053780535481 7.052122869473797 3.394882312189604 2.1674849592693315 -1.0908396242459213 -1.8941062449980215
Ni 6.173469124080238 0.013589893827476994 12.295556596874983 -2.118314925302584 -0.4704334598688995 1.1385618700225488
Ni 3.1697259629747285 5.241672450575835 13.072574146093656 -1.5540531693276138 0.20930862326427824 -0.6859770082992961
Ni 8.239258527601105 9.098351761501373 4.893468576064462 -0.05718107719668217 -0.3466209586959127 0.14059357728606756
Ni 2.3546831117294804 2.0537890897213025 8.012898454602029 -0.08318290057708254 -0.3202661228514678 -0.057850335349564894
Ni 3.998476864983326 3.2278536368177 12.204942227374465 -0.02246012877572906 -0.18941496966414476 -0.5674532663290743
Ni 5.759125981613092 5.256118982188388 13.10293217070337 -1.535806307302284 -0.18137487296848764 -0.6085693196430939
Ni 4.082488292590898 7.60164493138774 10.321859447654104 -0.448412218402802 0.7999036178171386 -0.35672359434755335
Ni 6.286096684594467 2.146265354062876 11.46806480471428 0.448422245705131 1.8344975321964534 -1.3883098322487961
Ni 0.9135663506407407 8.069924868878624 7.455468185894173 -0.17685770182442445 3.0052210745532117 -1.3645842064970821
Ni 1.3199422078460368 0.2396250352529052 4.2414647574032935 1.6512478108027562 -1.7766430830818305 -0.3528607689580375
Ni 5.380285305971429 5.595247850164105 3.841539530415795 -0.5704943671482433 -1.7815574896643125 0.28343609850731183
Ni 6.602591114542079 3.5656809322966945 2.519428035075221 1.0930754555549758 0.5181474781154108 -0.6575632330432933
Ni 3.6515293310166617 0.8046995038510839 13.412619653423446 0.33469258268944296 -0.20460067626564762 0.23139028565466602
Ni 0.5493540575207481 5.334351797150939 3.7890113876119127 -0.9716972748550943 -0.12549863062615804 0.24264194730908534
Ni 6.017529661760194 7.86717495172966 8.897648359405766 0.25529717417925063 0.8637723914466414 -0.3925984538672916
Ni 6.014040339747705 1.1519562766733522 8.225716635028828 2.6251510921702335 -0.009612069168467317 1.1513857612600944
Ni 4.5673194321145685 7.307628012287774 12.935645027034246 0.035893628572815604 1.2634966577254367 -1.3579967830875515
Ni 5.4475701423445315 4.654635561522328 6.5767572082348 0.040016649602253665 0.5133837381781804 0.02040247491575196
P 1.4218064099831165 0.26694513426920796 13.447166710650272 -0.6489281830761148 -1.1708628961480996 0.3754661650623791
Ni 0.9303935598909159 6.081223635004041 8.154489234022037 -0.28470082415234843 -1.4601878493360207 1.342945288071068
P 5.277156455380088 6.826443121957048 6.917236573063498 0.4424606288050573 0.40316594497049274 0.5033821468807782
Ni 9.235718430463937 1.9354475336363581 4.898913949226281 -0.4740769701587577 2.0515914558331056 0.790815025252309
P 5.499236108756968 4.281425802355847 10.841487804792267 -0.6805671501376344 0.6268346936111849 -0.4796992014415416
P 8.000913833520508 2.508231742300227 9.709306199058476 0.5345922539349954 0.6427379951050028 0.05762947758801043
P 3.255048194089638 3.425231105788705 3.209707316150634 1.8394972994038898 0.14148215053860794 -0.44391741585624195
Ni 4.143514503766996 6.2193934018901125 1.313090028666485 0.9899762756699403 0.28079351867814223 1.8524641439772034
Ni 3.941733842732612 0.397993176465769 8.572288466863458 -0.9245044192193757 -0.6508513682407566 0.8265037369031702
Ni 7.326579277080471 2.0934362803129436 6.1506362193239115 -1.646110746686507 -0.3471086969656086 0.3690314651806289
Ni 6.4870927097265705 4.019246638867189 8.703340201464266 0.7578830504109787 -2.7212373310725457 0.30458522178110126
Ni 0.029373998878151435 2.624551707060475 0.7271627070889077 0.2849995863396898 0.06823990611400506 0.5821152392166233
Ni 5.425840343356702 3.334979515005358 4.638606834690355 -1.9305899417463526 -1.925234333861394 -0.3708127254507679
Ni 0.7977854769004112 1.19011727455597 10.326210022956976 -1.2689288844846018 -1.1925609499468237 1.1525730966999763
Ni 8.82219684794153 4.9638190310628225 1.4009055557485197 -0.07982683962065606 -0.5377161442759578 0.396944132430497
Ni 9.039688689042729 0.9490771253757776 2.576279983251193 -0.5081098913737507 0.25767235927964655 -0.469286747858966
Ni 7.613562166091769 0.38501806794525434 10.363647309607375 -0.2933039924403271 -0.9925643481120905 -1.4170812479545336
Ni 7.77616641807588 8.513087226485958 7.053787220687691 -1.0426185844560045 0.08994181656747091 0.9442432924091997
Ni 8.24628332667916 0.7460881250518837 12.543529235027078 3.513179785061079 0.3905873369745338 0.17567962235592324
Ni 5.997738375001527 6.50440085462979 11.149607861909907 0.935982337951988 -0.3816527534890653 -0.6493986949546299
Ni 2.9702899786365675 5.277110300327013 7.0703504230342755 0.8366557377355074 -1.5716891372418222 -0.14438106935295777
Ni 3.0484766385460436 0.5280793473562417 11.146162848748368 0.4280267127679145 0.09894556272797797 -0.5197657304451242
Ni 8.888429349104515 7.777043364084309 11.68962382909247 -0.0028762931065305303 0.5482720654149331 -1.4986063012132191
Ni 0.8901731235400803 3.866621109357948 9.051870853751412 0.1847669293691721 1.0089877837754364 1.7102464008241511
Ni 2.6426629498872036 2.892131011758937 0.9900018878365414 -1.5067870372517986 -0.415445019448162 0.5791885524881316
Ni 2.571141079641794 3.067317131211361 5.7133946319250715 0.04837736286212314 -0.745913022533296 -0.3731801972416799
Ni 6.638924372322918 7.251531160780113 5.023467052354093 -3.2320167988586594 0.3088604521176875 2.428250098541689
Ni 8.929258109054883 1.0313531229877206 8.367306491347776 -0.5930881932883593 -1.2002575472601331 -0.8311103824372461
Ni 4.605932749517323 2.159327234083172 6.8243652214676 -0.7328456478263765 0.6181464218085676 -0.6920347844576018
Ni 5.2904121866233 8.816805937742341 1.224745564676208 -0.42083713699801073 -0.6131764793978021 -0.20798836179095792
Ni 8.1805585311 4.9758285758730025 10.125159534862243 -0.2590507276844119 0.07275322060332631 0.16745877710802773
Ni 7.186258684721093 1.2697624341426237 0.884246814725218 -0.8115273180989958 0.12446890381006306 0.9912682550084863
P 1.0914562331023128 4.5379278943162475 13.008546933366604 -0.25186166613514044 -1.9063305549783556 0.5302882272430028
Ni 7.000872298539038 9.099847185221012 2.906572004765122 -0.9620888052310528 -0.8152078522743765 -1.004820282661308
P 7.854556160218886 4.137597425962748 6.824405837914306 -0.3025105986402597 1.211446731107733 -0.26430503410481576
Ni 1.7055215212366863 2.158810297488729 12.554485521526082 0.18879224847848128 -0.6952538056155316 -0.4433456025131719
P 5.312326605823429 0.3088659227753357 10.442143208372453 -1.1732807615609728 -0.3043862183964177 -2.327736162885327
P 8.576698120634267 7.24450636170206 9.462239123047716 0.7575650049499275 0.7228558836035164 0.8165970193124195
P 5.365211065637052 7.287790570476031 2.7800046951211064 0.699675331721995 2.3268388478820374 -0.2837140347590469
Ni 7.493540566074886 6.107799714564771 8.037474174162476 -0.4640270421219234 -0.22127762270069634 -0.9173320698406525
Ni 7.969953023917629 5.549637426715142 12.52715434529704 1.0052828241200236 -0.30100264663616544 -0.8676074489220155
Ni 0.9793271471612973 5.711124726414831 11.082433797664185 0.18281726184196903 -0.21861036028117836 -0.29420516409835784
Ni 1.6789269796547266 8.302841728717572 9.649765257490339 -0.2159829499606603 -0.8068260559685846 0.3497787875986041
Ni 1.5068701728008045 2.302601749839367 3.279273135246714 1.0940105657747352 1.7895541347165438 -0.8889152092608562
Ni 3.8343494962477322 7.211680887954941 5.324427537638699 1.4722568646854128 -0.2784443017196753 2.0375046387227362
Ni 5.198397472812479 1.6568464022635263 2.3849848271744447 -0.5346423904466404 0.9744851220128766 -0.5655545066444646
Ni 2.9397537955219812 5.116389174508373 4.451647484299496 -0.09495598195261067 0.1884592906190948 0.2596035148640884
Ni 4.480400236163255 3.978851736415729 1.2292179893192 2.1199300923085036 -0.5626697288975019 0.8875615234464391
Ni 3.022915970152969 9.27291940324259 6.106159363978477 -0.8476564597213854 -0.503787609849313 1.7924548533031066
Ni 7.400519672107024 4.489594322735845 4.685960996044502 1.5463984809958333 0.49771826372678146 0.2917731576180975
Ni 0.639787499213211 6.537263252419368 -0.1591832394501727 1.276883363444988 0.6645160102120427 1.1817414907338162
Ni 4.0540660109071585 3.410996887420297 9.009299278996922 0.5410380095603392 0.1445422775211704 -0.2573656266725051
Ni 2.4705046019165167 7.791600667824244 1.0997290648155207 -1.3754725712748117 1.0923632599792994 -1.3179415669378787
Ni 8.882743046565645 8.267330030881473 1.1171599821599203 0.32772566445330653 0.4529404452904587 0.20613151108787725
Ni 6.714535580270794 5.959392756906608 1.6260988290058553 -0.47275388047196 -0.17658336511711523 0.04802255062586568
Ni 9.004038526047404 3.1421621652781884 11.742287667752393 -0.7154624193529228 0.4118125649018972 -0.9601957019733979
Ni 1.4290896773583912 7.3491675600555 5.192739786406515 0.6369154748859547 -0.9467547459771437 -0.18891771831275206
Ni 7.253192742690823 3.5879184368683505 -0.1576573533955049 -0.4080034755684522 -1.5622567881843288 1.076956695616242
Ni 3.183914026290061 7.336077987003359 3.26338471977609 -0.6777199104968264 0.45383956006596027 -0.8021934422925797
Ni 2.470486139895286 7.505531648863836 11.935096709570008 -1.2726518418621435 0.2306822038440479 0.7748582448127366
Ni 5.534258563030468 0.05781474258312129 5.8894641590933565 0.7667351014849698 -0.5606478133714666 1.2799674016869502
Ni 5.001970797934824 5.686634855253103 8.964119943743682 -0.7165373975846563 0.8896559440816225 -0.5065098938764826
Ni 8.611665188844079 6.616603788655726 5.8812633292629455 0.13018703724076286 -0.9332166022813927 0.09248900846935686
Ni 4.0174742848291 0.9937090616995455 4.427936710433678 -0.35466645470820857 1.559897801033849 -1.058773854059628
P 5.4085045054216385 2.208002353056332 -0.06929996599036682 0.13909565258430237 -0.3575748866042551 1.8290989868887015
Ni 3.2889629270893326 5.196966666167146 10.596406319164807 0.19146182489084446 -0.1250314611817524 -0.052865737650779926
P 8.727274365786968 3.2287121208048997 3.100177682798817 -0.3521593720156386 1.0570951808056244 -0.7662746169087835
Ni 3.2570143993506435 7.293836882428888 7.900045657428792 0.5480262679527143 1.3454906802007407 0.5046383878853825
P 1.1133429592705968 0.9450431737370005 6.485507745203966 -0.2896278291403206 -0.27183759503643506 0.3292994366983297
P 6.223916597091487 1.2787995935347576 4.220213124765325 0.19581778786669501 0.6133893667395566 1.5327153270817861
P 0.7947687826314128 7.508162486889125 3.005617056260365 1.0098655583946996 0.1141703500975324 -0.5112111560068938
Ni 1.9289858262058228 5.223071964186509 1.9485952620553744 1.120078980727013 0.16854892484841294 -0.692975036883684
