# total energy = -340888.6102078343 ev
CRYSTAL
PRIMVEC
9.12475435189693 0.00000000000000 0.00000000000000
0.00000000000000 9.12475435189693 0.00000000000000
0.00000000000000 0.00000000000000 13.35500033831008
PRIMCOORD
 96 1
Ni 6.423745029368935 2.2876124465268863 11.331210445227473 0.44783963372878355 1.0203410040047265 -0.4310197339579674
Ni 5.04389965728155 0.6993877938632022 6.0695941461128 0.18924116309044184 -0.7708660929342078 0.5624455287018378
Ni 3.2656675047065624 1.5990128498824314 4.845875148086315 -1.1998999068103982 1.3230794023850763 -0.34808854438037473
Ni 3.6076906767866537 4.140494215482292 4.553013415704646 0.49851453437583176 1.1605915961290787 0.5300912807408484
Ni 3.9968523304975045 2.9115631576982617 2.485231816623319 -0.26717412812249475 0.002610955260285826 -0.4804813310232048
Ni 5.514527118967511 4.879781823249254 2.6465602132118433 -0.49357184565857587 -0.08316490285495354 -0.05893174133920173
Ni 5.6391986393935785 3.3457463500010927 0.14668499060303372 0.15698615971147803 -1.8864358729369575 0.5266120639429963
Ni 5.711192952221045 8.20074534008946 12.126941046765898 0.4876331115766375 -0.2434194489050582 1.1095891369392825
Ni 2.122153273586399 6.7262397650525 0.18745256865760335 0.6074622026218441 -0.9939812830642751 0.9079310882417267
Ni 0.3899098835780059 0.13062177282084464 0.3479761619012119 1.1691474561188897 -0.8474299455328761 -0.6979375230952819
Ni 8.351166917651028 0.1848273767944269 7.143616072083227 -0.7378616129837293 -0.5071159028915976 -1.5118140581527448
Ni 8.828026586645123 2.1380942196585893 1.1111815761045936 -0.293269796768282 1.8586355628952376 -0.13470497971577447
Ni 7.285778834367211 1.007546264650952 4.8100440622040725 -1.021367388386712 -1.351989400551207 0.2560983299243073
Ni 0.9420761512748974 7.579586803788199 2.2548846896424415 -0.11016251448971996 0.30172281263164163 0.24434170360901147
Ni 7.795140878810155 4.064621882001889 3.8540791221389745 0.7057606186841264 0.02622242403163871 -0.030733424528114815
Ni 8.187414073797834 4.009216372814516 12.735956359808505 -0.8516157014794494 -0.2517912179085212 -1.4885846553111588
Ni 8.592589671616695 7.746861802869709 9.113839446192925 -0.4523136103397371 -1.8860962302093516 -0.4403790636856803
Ni 6.860966764912773 0.7836831882017848 0.13349972038304778 1.7961006775858097 0.11367978361435904 -0.07183173723032145
Ni 2.0943592714479373 6.591083901731787 9.192313247174862 0.2872323323249505 0.6166109590006477 -1.5583078308389098
Ni 0.5502290823213185 4.920204485584574 1.1166491289875111 -0.09009299743335451 0.03359274835378086 1.2718396303734933
Ni 6.7246611825278935 2.1518908484285677 7.158921022768336 -0.2238199295065758 0.5215996983300694 -1.1987094860467227
Ni 3.5071723814625253 4.3104062686077995 0.2706283556217969 0.4916867128207209 1.1591792891625843 0.2741644433973988
Ni 6.489926873594234 6.039419495531158 4.647393488691759 -1.5991618887407943 -0.7899351937505169 0.005021621584307481
Ni 5.826465975535289 3.2464051480045617 9.004087811813017 -0.9587327442746263 -0.867612591128338 1.259241996214141
P 0.7349989731625372 5.558535809812488 12.333783718688188 -0.24395115303881215 -0.3780827767496198 -1.065765711996429
P 4.24473541063324 6.422613559813725 12.573652526966335 0.14177422785773003 -0.499472784524043 1.084474344149526
P 2.708993608297786 8.556099778461176 1.3239042398121825 -0.37252070928081005 1.4441824750466998 -0.15104999673270111
P 6.642374146649809 8.169246687633134 5.830846770159936 0.5508611662983481 -0.4390284631950568 -0.48327740571110317
P 4.944147841333531 1.4329331936374738 12.730440445726856 -1.6444377298594584 -0.6072850536140315 -0.7571333167291477
P 4.2121874114120015 6.395002052764814 8.064096666936226 0.06811237939720527 0.5625815400590699 0.44604731771505113
P 5.027703218083989 1.2786609696863998 3.553324477134267 0.32020853014065503 -0.4271931611230256 0.5261551789112358
P 0.5817386844830177 5.708409902105408 3.3160598737839977 -0.7472032020996293 0.39649290382569136 0.6785105247189218
Ni 0.9557450334821908 0.23706933360445143 4.509356027907051 -0.7821133837132531 -0.09973977649449918 0.46488964723253484
Ni 2.1734343937499427 7.073874661136255 4.546536664976516 0.35647882532659897 -0.43700963299281514 -0.3158911337122237
Ni 6.336804368707325 5.9939325944608255 9.101392368610169 -1.553661333205834 0.9848723787844716 0.3521534584783677
Ni 8.893040462297302 2.6947772408218427 10.23130615318162 0.0849029685919828 0.7277304380869982 -0.04106514547142605
Ni 2.582506261730696 5.778214273858274 6.619525761438151 -0.6382046260110235 -1.148719270171525 0.47828920846789236
Ni 0.8627008245505822 0.38877020174376625 9.072679503695822 -0.5824186293896549 0.1543276390427084 0.3029618272450653
Ni 1.2823747447587417 1.0623039162704229 11.505479568615986 0.43331212953656983 0.45415452020321784 0.13983433052253985
Ni 4.81456720299857 7.155048476968085 1.305376425845621 -0.9024741788922134 0.01244773884504953 0.4195796104418258
Ni 6.202113867864964 8.296318018486783 7.974725171681812 -1.5040431559580743 0.13172070027646993 -0.23952242784349717
Ni 5.7582219367980745 2.9065445427356376 4.7839217150858895 -0.6966756256637228 0.8699312119591857 0.7032098272378147
Ni 0.6934256792876043 7.768907209687346 6.333876234995495 0.6959269204231563 -0.3318443146073704 0.670379153861039
Ni 5.090691398242164 5.049803373428491 6.540478013399578 -0.08968316358944554 -0.6657714798856985 0.3504120503072288
Ni 1.125967328259933 7.489863093010952 11.279446625552069 -0.0037646092487548066 0.1881309607453986 -0.13474071804971632
Ni 4.717050951897539 0.6549365524260662 10.480150069963836 -0.23320445604526935 -0.2792624267455964 -0.27507821346091976
Ni 8.23667862322185 7.473593655777572 4.425646442805924 1.6402686860834332 0.8100972705206887 -0.08581185355949737
Ni 7.361870161955075 6.19118241200092 6.9049088450500635 1.0287192007660928 0.9008996353162421 0.42431146869985636
Ni 2.606759859131888 5.54181925960971 2.6490311967243496 1.1253775101217909 -0.4551310251838742 -1.0524815932930132
Ni 2.745665996542854 5.452305418185445 11.156593668693368 -1.9602941536790044 -1.4235306031243031 1.159798667914138
Ni 1.3648990242532417 3.5530060232030025 3.7220119882088945 -0.9327386342037097 -0.134538115120607 -0.25394220281325297
Ni 1.4985858021030782 1.2276718416661356 2.491428437388989 0.9062521578774069 0.2906709256928543 -0.6995483192258275
Ni 1.1336594962844646 4.13601396103384 8.313100266921799 0.7611426949988569 -1.1123337895639553 -3.14193742827206
Ni 3.9270205844812054 2.9041721065714876 7.125213267253007 -0.4462360366870896 -0.13368270909884716 -0.7896976238184142
Ni 4.39314954220976 7.325416767817467 5.92045824645711 0.4588802078136614 0.6869211173801202 -0.33071405765766915
Ni 8.696648371678092 7.078938899871266 13.288986741754414 -0.9251019435940583 0.2741616151839214 1.3279639841708872
P 0.4813663852305297 6.067706234411404 7.635614621230938 -0.683431616169623 0.7140118029493251 1.062879905808202
P 8.77312293895401 2.06968593534078 8.071989579559263 0.4671815285905051 1.3085305580366238 -0.3760420921705072
P 1.8323875703989434 3.620958069796937 10.128739350477293 1.5895176807828109 0.18290467934945273 3.009025021680334
P 4.359515697205699 6.639691468833424 3.6255624209062827 0.1364862399859133 -1.4116762748888785 0.20571576370669734
P 7.177750866108102 4.462999537735014 10.51953342276417 -1.20781350523052 -1.3898283257758517 0.5103686055009403
P 6.613430425447182 8.115237265880817 10.121340999546938 -0.47047022664410587 -0.8605016911151696 0.3129022262872289
P 2.6743195412832903 8.887474362066028 5.819815854472087 -1.4912398335458187e-05 -0.5382871862880794 0.11894051779266612
P 7.413990759530548 3.9401511061743264 1.4365976950356374 -0.29751108854313923 1.8172544288452899 -0.41175111553634247
Ni 2.768687752089584 1.7407932849538095 0.28613222595451526 1.138650058860981 -1.83333822178103 -0.046163643040255976
Ni 1.4450143685656822 1.360473518331655 7.002868559218701 1.087484077510127 0.7913400445178436 -1.036387258834312
Ni 7.350856583300733 0.9438189793800996 9.145704913779248 -1.2919202031734525 -0.2127256193656272 2.388476675298493
Ni 2.7485950427301313 1.9430617174565277 9.227316717825996 0.6531481346947332 -0.3482739209183034 -0.14768673668742308
Ni 6.650595550434035 2.326392653056257 2.4898927412104257 0.07467460599575526 -1.2981551283395707 0.1937508780353373
Ni 4.160723796158908 7.177951610706606 10.541542330563898 0.798342958198238 0.9627102408651356 -2.1332314374031003
Ni 7.478420650896169 6.338620194848347 11.413624315192793 -0.7089793827317402 0.4443606740412476 0.06772105749605756
Ni 7.826621281757527 4.247637082557085 8.495169230437678 1.0768433099668293 -0.9505075281513566 -2.5549268086363486
Ni 3.1967026103656253 8.398095529928806 12.428938483330443 0.45085039553064926 2.0716064655024513 -0.20119242191504702
Ni 0.08203245522816294 5.33846498132417 10.066051374741429 0.9917156269585501 0.34163173301143746 1.253569628419712
Ni 8.800971689619338 2.653724970427575 5.784878994528639 0.7178106078701251 1.04434893688355 0.4033019563277248
Ni 3.690725942531894 2.9199488070630832 11.47130462567141 -0.36777316729349563 -0.3588887203196722 -0.11956015365453602
Ni 1.46326387752068 3.4840685031254983 12.783179701655904 -0.7075066548409558 -0.12086601695015313 -1.9890565705236778
Ni 3.166928536505546 8.77721082895993 8.079053964475742 0.6492811955401593 -0.6362896683764977 -0.6390497476201381
Ni 6.12667952259948 8.118540427001673 3.4344115892589495 -0.7130034162894688 0.6685045625461454 -0.6212296887195817
Ni 3.6139228840947855 8.730546834562002 3.412136238628479 -0.4837813419307152 -0.08232235234900016 -0.2142929638527471
Ni 3.891780782689105 4.468830255846136 9.071304403196065 -1.3539035868547844 0.5611998292201948 0.14065862619604808
Ni 5.044392394023334 4.903451436363887 11.295846546774479 1.9094888981016789 -0.7211358155886162 -0.332987169962562
Ni 8.267118804158786 0.10256954013066974 2.5431530206201387 -0.4250020670089778 -0.3244829891462928 -0.1900482323727695
Ni 4.986559700144946 0.5361276867517917 1.4600620011745256 -1.2294503667740053 -0.23444295643806076 0.18727169806889682
Ni 6.163516156425143 5.476531641323206 0.18222134691565323 0.5770504230992062 2.222516851333495 -0.009068023739539221
Ni 8.234470432638295 8.713200676300275 11.417269654606557 -0.08192691668279438 1.196391379436507 0.4593864580261185
Ni 0.25605794767212664 5.431062989761828 5.443738186206522 -0.06661728290891752 -0.937243978273231 0.34076090037070994
Ni 7.7813624995491315 6.026179476784307 2.2207362084858495 -0.4219985042959636 0.6807301580780599 0.27612799488167283
P 8.749352953540127 1.9511736241870241 3.6371809707824827 1.004759861737018 0.26559315678861994 -0.8612236568828587
P 1.968401160640542 3.2940819901494938 1.5739133877411753 0.44806743346887346 -0.2199956706644792 0.25362158624904063
P 4.747992994330737 1.2272156039422608 8.341947265726963 1.436832719549848 1.0996538801034415 -0.7975700845879554
P 8.386634838305067 1.7275532662069584 12.105840964512131 0.6917036263704281 -0.4449024054773305 1.5647849539228214
P 6.884380884902034 7.916408865816116 1.1866642825688078 0.40960527283793324 -0.0028786070993756874 -0.10084715062606503
P 1.994187716793954 3.46979738712269 5.845977438034524 0.296572892999586 -0.09049794618125705 0.9645341814477517
P 7.0575139763580985 4.202250553786006 6.120009327076428 0.2838767855891563 -0.19396299404614337 -0.5307492260398214
P 2.5515642192974974 8.946776141415294 10.178593359040557 0.769108743923469 -1.1368114629903454 1.3920988669775831
