# total energy = -340868.72826980584 ev
CRYSTAL
PRIMVEC
9.23023449612552 0.00000000000000 0.00000000000000

0.00000000000000 9.23023449612552 0.00000000000000

0.00000000000000 0.00000000000000 13.50938119147900

PRIMCOORD
 96 1
Ni 5.110928422350793 4.677532000461126 3.310554605356734 -0.10853654885052276 2.3705761408689883 0.48781360301855986
Ni 8.709713708524161 7.490778195504449 4.616668758430664 0.06515175410698457 0.796423629688338 0.12110332977193981
Ni 8.722885252887508 7.460198429228509 2.0402002260546857 -0.4680755011596842 -2.067760352283484 -1.442845244292515
Ni 0.24032391869004804 3.6963673233207377 6.168640355664738 -0.004169043776025078 0.6437823772091171 0.29062361739468656
Ni 6.82547213652363 6.355616289101224 11.891348708220564 0.846884100331735 -1.2860683723783657 -2.0094659874179652
Ni 5.655872225902015 0.4271853972210651 0.5915721782255848 -0.17758712379128125 -0.7307273159317932 2.0246414096068226
Ni 1.6595407479071194 1.846785281162088 5.622240021139069 0.4199969004849025 0.7903136601358582 0.4398262765060038
Ni 4.83329220447757 2.6047998135734938 3.139971568058511 -1.097585170499871 -1.7096877001072037 0.46380104215404644
Ni 6.044049729896775 4.762237860743135 9.123236512916478 1.3209374163414087 -2.269398603486698 0.6033304398416577
Ni 3.079316929323503 7.348503363817961 2.250311741794415 0.2882260636967875 -0.3432474142379895 1.5087701291200983
Ni 5.146972487339487 6.3966077596811965 1.6904832623915238 -0.8190282544617314 -0.4861714394294466 -0.22286527890279037
Ni 3.127674126884519 1.1449367245397226 11.509803127579039 2.0662721977737317 -1.8982464924186404 -1.6377580038464372
Ni 5.602558392515409 2.911326664843545 0.7434270701045861 -2.0493386552431865 0.31475470611493533 0.0764430107500877
Ni 1.3228771816081089 1.3404238570353835 9.930408504203758 -0.8266163512216345 -2.0145012358490275 0.9109534200078183
Ni 7.9172888625972995 7.671709248489951 6.995373982529621 0.7641267173278453 1.4980812819476845 0.8747839120657966
Ni 0.5620705033172968 6.51164416991272 11.721860376711755 -0.11225847778680022 0.42017353527208284 -0.8238675848319036
Ni 6.806587077121104 0.4355433743906586 4.18747578524672 -0.8095743081376832 0.11966582599446488 0.9314862498538473
Ni 8.847751862661402 1.7616732905703465 12.112510660478723 1.3181120310774719 -0.44249148204299277 -1.1003660756791176
Ni 3.5743159350120295 5.901784128444599 7.483250939422942 -0.18136150323204894 -0.9432215360129046 -0.8256714708098618
Ni 6.253179148705699 9.289307811682953 9.017389723966067 -0.6491924924810949 -0.24834362567955295 0.37225022922824275
Ni 8.347962365364902 0.7044496366515108 8.274130644125961 1.289076048856438 0.5137030691908121 0.16351984706493772
Ni 7.075159204899857 2.7530742975628373 10.522672950002748 -0.1277923117563412 -0.017242846240847723 -0.2864486600813905
Ni 4.85484480159629 6.477944584439295 10.201325111497782 0.6563183048925987 -0.6061401413763109 1.4257039566265384
Ni 4.274475358755283 7.8761127873310866 8.681182131242073 1.5086827116126145 -0.14060463302966109 -1.6235048363615332
P 1.1268270048194107 4.06154308340978 11.470774927837246 -0.5195620990747503 0.5956574966774322 0.859043104291772
P 7.32738458771191 6.405219568294372 9.356502994451505 0.3547680132830793 1.4899095447701696 0.3323863031537695
P 9.351981102662014 6.455958166307907 0.2616134541308735 -1.8850683031654696 -0.6295441221225481 0.17879117140171144
P 4.818588441218417 0.601318382635716 7.255145081891802 -0.15688125870249756 -0.9307367732823325 -0.022520806810335407
P 5.194028221862499 1.345094355597299 10.626857373753554 0.4294649878763378 0.7195748988593994 -0.7245790369422102
P 6.044271255520266 2.5458001558506425 4.806962038078915 1.064017618957071 -0.002471858579260259 0.563055651482011
P 3.04947558179253 5.16159317848983 2.257714389712708 0.22995638142161687 -0.6344171339441332 -0.5619097108030258
P 1.9684582298640003 2.180596705058664 7.78542942730857 -0.7675020615579814 -0.342682542873455 0.49071766403923234
Ni 4.285837777193461 0.43109347842880213 2.6446365818410245 -0.21229547380674407 -1.441377401497737 -1.2851833986702512
Ni 1.343045243580016 4.363085608151304 0.5090021941633919 0.5024454939991218 0.6323391683691819 1.4429048938858569
Ni 2.249315799512141 8.980464171600568 4.627814266362508 -1.2594888221176244 -1.3313570690128362 -0.931379291962338
Ni 5.790061372331115 8.03983868355886 5.926862675070535 2.278085846848051 -0.3583678148191957 1.574656190289946
Ni 5.007235970088823 8.635594926998113 11.460710280343347 0.0721469544778951 -0.7715152964824326 0.5596353129465523
Ni 4.585681938821561 0.4550717811247381 4.970371337269785 -0.366904134424981 3.212890105331538 -0.2585907573288579
Ni 2.7217653427762425 8.0306269097154 10.6146586960867 -0.864921160339104 -0.3778493205825751 0.5653858422770844
Ni 1.706624173133068 0.08822442560177662 1.9908369329536517 -0.1788294808388146 1.088309658735216 0.033729788152277396
Ni 3.421989378159681 8.513414315409037 0.33161647417716195 2.0183483775092594 1.048870221792671 -0.921418066984568
Ni 9.03062126485244 5.2986252370870535 7.966238641201152 -1.1447155483287705 -0.10119964886947733 -1.1263969525252406
Ni 8.129464258729213 9.04362666499817 0.18529879986198095 0.49914394042971455 0.6002844539264823 0.6519703123365481
Ni 0.768308089716244 5.288148921142836 4.226544598019485 -0.8457307034535823 0.9089235340619831 -0.06882020409750728
Ni 7.076894488950529 2.452196349691783 2.7057398099635996 0.2687507285809952 -0.4935777591958468 0.680154488080248
Ni 6.965393258460535 5.014481704023811 0.8007551323935185 -1.6131283782232155 1.5116173687609062 0.4553197441559126
Ni 1.8664641407154543 5.345330222706207 9.201279990072024 -0.5333344702684945 1.1389670758807675 -0.43542377656293396
Ni 6.49442978292068 1.5221210194687886 12.490017090585281 -0.3391642453075514 1.2084681080953832 -1.761007947647735
Ni 0.26227618495448124 3.03265809487591 9.053446711282797 0.2877707213269238 -0.12728734709546466 -1.9480652157129803
Ni 5.0516518575985785 7.446509991743686 3.873625666073461 -0.2567380203908352 0.11452799054726727 -0.44293731133115977
Ni 3.053896864028019 6.267329097906126 4.671152062504612 -0.42613335239994354 -0.41536840057395563 -0.5357839602502514
Ni 3.6193963993922553 8.13352556182653 6.148659667449366 -1.4330262013195645 -1.5911927544923885 2.7905383314612133
Ni 6.251582318169707 7.539707667592815 0.1071344066369464 -0.3270114119951013 0.2929496944247019 0.5257738843124171
Ni 2.5612331076204495 3.3049407768481234 10.152340258003544 0.3852677245338333 -2.14590826153982 0.04165367098504439
Ni 5.428199266360111 2.444461413338255 8.453967914345482 -1.2752543124819973 -0.47833291722163424 0.5214228064325729
Ni 4.067856563679247 4.694626394407108 -0.07266501962189392 -0.2340619189495582 0.5245297274926708 0.5551160849199601
P 1.2656128079359297 7.5394584512663885 3.3351956388762773 -0.5101901709415472 -0.7225164979862265 0.32520366936240125
P 0.33217951847019916 8.872147371948243 10.921240005739191 -0.13221435208343682 0.023547448302636866 -0.04324852627599003
P 2.1416543464959745 7.689015937825111 8.50592490328821 0.2827532135076743 -0.8658920088928056 -0.7591716873154151
P 5.076444266960841 5.440161650028575 5.406062395409436 0.20530155898741415 0.8157835222721886 0.7054574856214109
P 0.4599591901929875 1.5642570391034596 0.618370317503863 1.2176004094139548 -1.5993619205667424 -0.6661100941720399
P 3.7508257057620424 1.4389566083168974 0.18369827723226528 1.0575654355738238 0.05669693847141203 0.8241768885422065
P 6.478544549669581 8.453491634254977 2.4134099820889676 0.0563485539930578 -0.6907268642794555 -0.9348862766743318
P 7.4766190160697095 3.1430978484200143 8.36425188287887 2.3909932710727593 -1.3310058563210045 2.723879910901715
Ni 3.0918146665820667 0.48332368230716977 8.686545820400825 -0.08027986799767466 1.8381834656884728 -0.14044265353050006
Ni 8.59676333124717 4.380290764909033 12.880438464541308 0.9698183126648265 1.3302720634787735 -2.800982923833305
Ni 0.1585329664037951 7.340648434418376 9.286240604821046 -0.6199824465760418 0.6025580804520074 0.4877287566142375
Ni 1.239648158816033 9.196968547624849 6.926367827789037 -0.5733997137204964 1.8636515280525905 1.1889773463606232
Ni 2.928956412379628 5.456665308978582 11.290465069620948 -1.3674306748069418 0.6457125043522944 0.882284848428532
Ni 2.21536699771229 2.582739553567609 12.780307036676941 -2.054619958246784 1.790698275623316 1.0035154478069557
Ni 0.691451620693232 2.5803766135837156 2.4583159950406954 -0.6995390632544468 0.3213066483008402 -0.836456477240508
Ni 7.849520482277968 2.6392747387291338 0.602270019793292 0.7955551110404557 -0.6421828939324811 0.3704201179980394
Ni 6.7855882940611085 1.3682160925490734 6.569503893698029 -0.20252656734543828 -1.1036845985293895 -0.15190900229888676
Ni 4.085689376370196 3.2706873773159737 6.178704080135204 0.21107857068050745 0.1800273578016577 0.02979188655045192
Ni 4.711471572026664 4.08482173434486 11.122624334936845 1.5149849996815585 -1.4274697902777091 0.9625917130094003
Ni 7.030355647548994 6.173291470734597 3.274349934291009 0.18504100896616518 0.7447385426092206 -1.129448851977687
Ni 6.82551828769519 3.666212147823154 6.62624306703785 -1.2257063263505408 2.90736823066878 -3.0502410909073276
Ni 7.6019748282621435 4.206540834218333 4.2723016385747865 0.25242705172030716 -0.27620641352809205 1.3730649902745837
Ni 1.4105644075729222 8.81336000961457 12.829805091198931 -1.4819751204144413 0.9682368271103196 -0.15016502302458656
Ni 8.707655366272567 0.06015159096499947 3.0853128895326334 0.9688816597831701 2.658084866783777 -0.18826182989630802
Ni 6.106012292833805 6.174915991973525 7.401695358111647 -0.26614594396829644 0.3598356576139738 -1.3042730683118504
Ni 1.3042967199378805 7.048345374223249 6.607816750280634 -0.00352164000001329 -2.816880568900168 -0.746010981563741
Ni 8.851037826076505 2.0775319087299158 4.411434498501441 -0.8271611679815108 -0.29473455423926664 1.1393866799166894
Ni 7.398180484885605 8.937285135488631 11.435717574896513 0.852680652408854 -0.8622274155570246 -1.0109353944201107
Ni 8.791068993750883 4.768274433983239 10.215050469919854 -1.6558745109414903 1.54846281972403 1.7006752121959483
Ni 3.040411491698062 2.9275995679357516 1.7427503872071397 0.017975867752130333 -0.3970204941943872 -1.7780142523977445
Ni 2.1337624961591413 6.654777413390231 0.17694451478611223 1.6021929622576343 -1.22559679735587 -0.28424959554754275
Ni 2.319927091999596 3.51961756647861 3.886189861019072 0.6587320565404139 2.3276574871285916 1.30499966206523
P 4.1415138334896895 6.777954890285013 12.509037834432196 0.9291532308452966 0.5087884054980141 0.21814370505740494
P 8.598720140921332 0.3533702904038853 5.764168719038853 0.368255763356869 -0.5763446552814332 0.40558458171431444
P 2.8247193762932454 1.5532638300377657 3.824911258444567 0.7662725600262545 -0.29657109322737313 -1.816749207074097
P 8.327360482380326 4.281638020581461 2.182116001626433 1.1521064414762028 -0.5417802870430025 1.468306364678097
P 3.993894696136505 4.392733120761724 9.123236512916478 -0.48169309194311877 1.1590463631291457 -1.5340957523690804
P 2.2818339149936184 4.548594857355601 5.939683470530023 -0.5128330078810329 0.6350532248662353 0.11550500974855592
P 8.366432064223385 5.892636966241323 5.938197402805777 -0.12307588011727837 -2.323520325031766 -0.36587389338825377
P 6.5090597043053355 4.011007550551112 12.384927180848461 -0.5006336376013636 -0.470240627131803 -0.05866434661042799
