# total energy = -340858.68492816406 ev
CRYSTAL
PRIMVEC
9.40826889047011 0.00000000000000 0.00000000000000
0.00000000000000 9.40826889047011 0.00000000000000
0.00000000000000 0.00000000000000 13.76995252359703
PRIMCOORD
 96 1
Ni 8.419619962220862 7.284625193988278 0.29610927600768105 -1.727439110553354 1.4366015773756484 -0.17129126348024049
Ni 5.018944644772983 6.528219174522078 2.7646208171937694 -3.1671769195651387 0.25554785673747604 0.5476390598166246
Ni 0.17210170342157022 3.6778617418056143 1.465274877627928 -0.1264057158214597 -0.8935056568450159 -0.54652628636842
Ni 6.863529885407614 0.8159622445517108 13.497803773410535 -0.8836614170610845 -1.241414995335049 0.021502907068782325
Ni 0.7733126790470444 4.101374975546142 5.737801321416083 0.9906684166409584 0.35179324692547154 -0.5094810606896645
Ni 5.836109266116253 7.978654389291427 1.0147542665959293 0.5522374778205844 1.553103660930151 0.04752787037763428
Ni 8.292693003731616 4.521030818953813 9.378646228429915 2.3918772163396094 -0.8708228705355197 2.5457461705783446
Ni 6.594641554400077 7.024514778055268 4.466408290186718 0.45220536689664703 0.7789882078207101 1.506309840505064
Ni 3.0697394516959506 2.9166386885578945 9.5016254772029 -0.37604569171493296 -1.5300976869532812 -4.043282892876469
Ni 7.130244906252005 1.024645179905524 8.280450963972799 -0.9744817795787669 -0.2680791564352673 3.1512137113676637
Ni 1.7427689523853813 2.2724827277778714 2.9872675055525297 0.03570902336583527 0.789653143733724 0.007233027413329479
Ni 8.797023269080077 7.9638363654517885 11.591615068333246 -0.02068349649128051 -0.5144021521403657 0.11238574739328386
Ni 0.7626625184207136 0.4804897114375765 11.524321482736166 0.9244581393624723 0.9453630078359396 -0.30167190478904815
Ni 8.923639754688875 2.4680147845773694 8.73313829937957 0.24875808750915224 -1.9745488638258057 0.13178754895866335
Ni 0.35306317385887864 1.656946721613836 4.730213333397077 -0.23930722650889752 1.3614158360714295 0.30388485327996695
Ni 1.0376379995388834 4.156535657306017 8.482745684604634 1.7619641409134168 1.441377401497737 -0.740228313443693
Ni 0.2812649090145497 5.63645638744897 13.464012093267785 1.547626954086296 -1.3478797492582075 -0.8999475558156178
Ni 4.878432145696792 1.135361690727662 10.054819469799574 1.3881365398957253 0.8640698680824022 0.020665498769151507
Ni 3.921818159686141 0.5323123393191622 8.083596104537202 -0.5206399055199614 0.5691936460589487 -2.033419155799453
Ni 7.76992253093827 2.8815834778744063 13.822278980768381 0.965646440675324 0.752447224107388 0.6922425295930336
Ni 8.79223446010587 0.6330843096978092 6.718194707588439 2.49420635082784 -0.40973099978252014 0.45603785326885976
Ni 0.9866451809923176 5.72762251507189 2.0354602042273857 1.1420135760165753 0.30588748553229256 0.6068538796138839
Ni 1.395199266856639 8.23151102974484 9.713903312181555 0.0716036803799154 -0.5243011564216327 0.7945217846799348
Ni 6.504190455229102 3.0287570314766077 9.6191516932029 -0.8457505009479241 -0.8690763201580581 1.118561772751538
P 1.659505770810269 5.64118874680855 4.431900640765114 0.8587888221891209 0.8711486293060545 -0.021273821777111752
P 7.271895805889845 5.45545069814687 0.3833512145871 1.5648759709747306 -1.2147050901440306 -1.065837188664313
P 4.714436606935686 8.40527235183645 9.33796957695647 -1.2283604761439362 -0.10388388056985981 -0.9133229486812594
P 2.655615670521746 5.608880750703585 0.6291008485589502 -0.34993948154618437 -0.32811390103066074 0.5912028033401884
P 1.6830546683789136 7.168545969776556 11.976498889957474 -0.027227982478017627 0.5010352439151565 -0.9379662011512362
P 1.4845495985423836 1.5096414522441717 9.300542541631728 0.011537825436270452 -0.8240326496548582 -0.41120038523919505
P 6.032290493483964 5.646269212124997 10.664180828950302 -3.079849143581747 -0.5738182893151538 0.7146548358499628
P 8.538107703323345 7.698504360165765 5.883487427672858 -1.5536039976053373 -0.6153567748785725 -0.0893833729608396
Ni 2.8435176210774684 7.349212961390892 7.717934317520445 3.1523722504521388 -2.6324149728214987 1.0491198759096316
Ni 4.325225922350283 1.030243100022721 13.371381098145289 -0.2756047753883511 -0.6252768622057618 1.648094609885755
Ni 4.777387335514112 3.598597074599929 7.786619386118083 0.5876220279674654 0.5123002753060145 1.1443157417871905
Ni 1.1006828108083553 6.766549447478094 6.313206355714736 -0.5754391127480283 -0.8395991366345474 -0.19479885968387742
Ni 4.120746601632375 4.159847368030811 10.76939726565393 2.4733629317199277 2.389862499902426 1.3581394793130028
Ni 9.027140123107836 7.216641041438926 3.0771992682689344 -0.256737506170203 0.6772062040852014 0.9106772835282961
Ni 3.4810125273314823 9.12906931058634 11.2583826440929 -0.5676203880345578 -2.8540335238013816 0.22107013467558057
Ni 1.2941826814812742 3.3348550667925707 10.825634253399365 -1.7542433752303916 -0.7529141364414775 1.3779696266650525
Ni 6.0796140870797615 4.389192743991999 5.419123489480449 -1.1775248815493076 0.5269717612752602 -0.565757109573574
Ni 1.7235854916812394 9.08593239674206 7.4683959735802 -2.5115828944330745 2.9962458676377945 -0.44672814583215964
Ni 0.6271984965460137 5.528599990434611 10.73188837838798 0.609529369563518 1.2769720665040525 1.1996890763511725
Ni 5.237009506077836 3.395660710015164 0.8957396624235938 0.2615045885415432 -1.4033299598067122 -0.17886110540769842
Ni 3.2990189697734067 7.697224835567548 0.7437161460980062 3.81030752212287 -0.31700930647706693 1.329827262631871
Ni 3.119217538916687 4.814898104433883 6.509400754659191 -0.5479702179037982 -0.44754627085808085 -0.8339864184334604
Ni 2.828050426669617 0.46834175436980424 4.154463956449199 0.9143179656046769 -0.2554984915567793 0.26320871571684346
Ni 8.229667009000353 2.648757042344542 11.436455775915118 0.38542173361319426 -0.1501565383841543 -0.20917312612767847
Ni 1.3437642596621602 2.17280211661535 6.9390782863170095 0.808212137682834 -0.35233729235439964 0.828424865185283
Ni 3.8914294504785008 6.669314986282751 10.506804948331148 -0.2208099390356584 0.30762580837963793 -1.1779390862685906
Ni 8.379559552373763 5.395915171253389 4.889200850513839 -0.11969436523955515 0.30211516297405383 -1.660539006296695
Ni 8.714569198647954 8.164994567175796 8.350746728241132 -0.10370596023109879 1.2427293432710984 -0.7027899660915767
Ni 4.376162291282221 1.2546115016276107 2.310557052017004 0.5348804745993755 0.0401518896285373 0.060248917488728494
Ni 4.174035037840446 6.190085982905182 4.9021579187246 -0.4346413898709547 0.2920531507523616 0.6540577909931962
Ni 6.08035734033902 6.800287500486947 12.631026526598333 1.2384281447925831 -0.08720256325943693 -0.5903455975462155
Ni 8.879430298166676 1.4280905756460844 2.387241971834227 -1.5369931285215337 -0.2159711228861184 -0.2144883676930048
P 5.068036992960433 4.189718622437702 3.0957749547889235 2.257247827056777 1.8600468414204676 -0.5925125232905474
P 4.6923742158855575 8.528868783062693 3.230968018513413 -0.6008017598825331 0.8260411954444548 -0.31098032667416764
P 8.070582586711813 8.640253280991253 1.8359889051538199 0.08306848648640533 1.8493518236004665 0.3354299750760997
P 3.203007583561653 8.684152264633001 5.915296785515282 0.2469788841215424 -0.45280134860943305 0.4895331568128279
P 3.186514887821408 5.295566572984446 8.563286113100894 0.07303887016454517 -0.9168718423747823 1.2753461008648552
P 6.917768556795243 1.3264530445098204 6.287773922671364 -1.8839863829552004 0.6912979062915773 -2.6089690830937324
P 5.061714636122187 2.3599419973736047 11.843260864552906 1.406144803547688 1.0468318512064037 0.08259848882852226
P 6.494725736509942 1.887449314674881 1.7016218874567086 0.39654098345480737 -1.9490676888355662 -0.35393857540324847
Ni 2.8639053402269896 3.688963499348963 12.756815084525932 0.5474696241182958 1.006323863790028 2.000408248091071
Ni 8.029402592841276 3.288528749721853 6.0715436738418935 -0.0010616084952949458 -1.4130297035929793 0.41059309067249933
Ni 9.248554328213903 0.3805804793358151 0.06254805466075261 -0.09104019183797225 0.31283100672966124 0.43203583392730754
Ni 6.96745362593628 5.8429020364097255 2.456546104538944 2.900058584381244 -0.7596949068087369 -0.25491202292569004
Ni 1.2932700793781344 9.291004438413554 2.4507760130971343 -0.9139292148066904 -0.23755476259416505 -1.018490066838917
Ni 6.100876775256006 8.47733969317717 7.479672724928891 -0.14671923056783118 0.4426403489160312 0.6029900257831035
Ni 6.577612587320873 8.428887107288826 10.260074031891694 0.5743111697911722 1.530637361506835 1.360688728097418
Ni 5.225973606418219 5.671210533521113 0.6587434820266005 -0.9505170412330533 -0.578971551381319 1.9139947563918325
Ni 0.6340759412614269 8.799902199426064 4.882949055693877 1.8667864741371463 -0.48912820806492535 -0.037837896783379996
Ni 6.1840364658709674 2.0536275718682377 4.16059156211698 -0.6026421555253815 -0.7894415419435501 0.9242740483761244
Ni 5.422822820892352 9.185867031170403 5.201103787867299 -0.9973296307112177 0.2817862216087147 0.314672173703458
Ni 2.4253106511118965 7.368546954400706 3.217721175614231 0.7977107239308777 -0.1556011064384933 0.5561414408606808
Ni 1.353784066258487 7.942526635930022 0.22679291255312778 -2.9761246714078875 0.03304150383600116 -1.0945306999442632
Ni 3.7569946932438367 3.1819706938439185 4.224841572658743 -1.4176772296673197 -1.1880139540060894 1.411597084911511
Ni 5.799642815067085 6.306381597306307 7.090272934134488 -0.7385758654419345 -1.4440492919029453 -0.8588718688212305
Ni 7.7462795506785795 5.574314770013533 11.759870671344883 3.7890524693988357 -0.18499652888147491 -0.3191425507699859
Ni 2.9951601025043226 1.833483483091283 11.592964214122835 -1.0955683971801584 0.07941957687990839 -0.8290023349553076
Ni 8.217464483971774 5.557925565233438 7.20799201965113 0.774603191379137 0.6586217562147947 -0.738422884803838
Ni 6.177300145192122 4.201168485937918 12.65038686276164 -1.392998238863401 -1.0112087026861554 -1.3768121160218418
Ni 3.2487035466023673 3.822880801782878 1.8624411945681234 -1.2639864528776619 0.3914301445908033 -0.46064938389894217
Ni 7.305361019094668 6.5626063980991445 9.293437416803984 -0.016951026032041773 0.46830664333388383 -0.5955597947573034
Ni 7.299932447821352 3.4829035894214933 2.7718774151540955 0.9724254112703704 1.5105557602656114 0.3172350493346278
Ni 7.812937137284192 0.10989046479475988 4.643489790445317 -0.464544090967658 -0.4058126385647204 -1.1697112990421596
Ni 3.9168411853298433 5.8613234273164005 12.722210529932552 -1.6814081364362201 0.4432985513253205 -1.6320344710990988
P 0.8256847498443346 3.543793907066027 13.12210430408615 -1.618209906511181 -0.5938389554114547 -1.2734707382190134
P 8.536094333734974 0.3530754046087145 10.142423626739514 -0.886447464446654 -0.30019686290541847 -0.268126464733435
P 3.8913635925947694 2.4738479114221796 6.271001801338713 -1.2548176418942003 -0.08902084741509829 -0.25351591390911177
P 5.255402672177198 8.576803914150286 12.478275751070965 -0.8039147958590606 2.8277175116146718 0.5415725419075705
P 2.428340113763556 1.3496067947760748 1.2333902098354272 0.3825649808906895 -0.7297688086732658 -0.9699962330035874
P 0.28450888020179255 6.318998086175485 8.789898386887215 0.4342549530658134 -0.1617373012432182 -0.39560458768346707
P 6.590633631761546 4.714295482899118 8.361115581621238 -2.176214111612213 -0.03322970858740729 -2.46248639401674
P 9.4403513021789 3.7098028154155025 3.6029907362717455 -0.5019243313883291 -0.6809440738610788 0.9518910387624445
