# total energy = -340864.2048928939 ev
CRYSTAL
PRIMVEC
9.32097170758243 0.00000000000000 0.00000000000000

0.00000000000000 9.32097170758243 0.00000000000000

0.00000000000000 0.00000000000000 13.64218427230798

PRIMCOORD
 96 1
Ni 2.8360920892284147 2.4436978184414895 5.1863359802205276 0.5029275758418629 -0.44611699461072196 -0.4546124336762428
Ni 2.48334923247369 6.099149933645596 0.6099625303207337 1.4041866513800525 -0.0817076015831367 0.673404313840608
Ni 8.897007396555232 0.7413509487969677 5.43868917441037 -0.7306548108226448 1.6234374734587071 -0.3308444125879464
Ni 5.008680121929286 3.9602851769128726 5.939506853355584 -0.6567314811706173 0.1896581960232024 -0.6141216169198906
Ni 8.481916559438169 8.55733254226246 9.585912965428932 -0.7246998787907907 0.730926833537109 0.3684020591267462
Ni 9.090613301788622 3.642346828854959 2.5345129787746195 -1.1374213286602022 -0.9528246063203073 -0.38423491239394475
Ni 1.5427886101978794 5.604085158494616 6.047920940542076 -1.5652405534030012 0.42057694135808854 -0.6090277473367511
Ni 4.660448615525193 2.438403506459757 11.413255931090054 0.4692214418386694 0.6310384472798874 -0.2857722028396562
Ni 5.422428739107319 5.084804498610288 8.657602896388317 0.5174337398778379 1.0809951273516738 -0.693890863829734
Ni 4.859460684401901 2.8100399730506997 8.979681620119267 -0.6992325877576215 -0.4074445177411886 0.36337709510832905
Ni 2.1283040956846557 5.7917256417767575 11.910909140109569 -1.6193764160154565 -0.5019132756447356 -0.2235409648135763
Ni 9.220100242017896 4.185265473221106 7.153320152788563 -0.26058079117569316 -0.6565759294293595 0.2817563968120438
Ni 2.1141082556350455 7.6471862509662145 7.2438090791087335 0.31155573956166344 -0.4312534472353283 -0.12814712399259867
Ni 1.8243006004659854 4.737020398852539 2.378760472113437 1.299256846044182 -1.5667387352150823 -0.4138527352603776
Ni 6.912404723093058 3.269312216494193 12.823803253892109 -1.083041211247425 -0.3514960274000269 1.28341756501908
Ni 5.371582837944731 6.0525077907642775 11.233152385604443 0.008443759891979007 0.4765277456920954 0.6159956940141521
Ni 8.11421354294633 1.963966041899576 1.042680257206555 1.3707795366745168 -1.1435996895567724 0.30029842148028923
Ni 3.734717659381313 0.10939092503100759 0.9413883245715462 -1.5948468063052081 0.8363700881742886 -0.8639508260060347
Ni 9.39050624844401 5.69186074992415 0.07207255024005282 -0.4374438923167563 0.7209064731866295 0.8786799046860931
Ni 2.1826173983564074 3.6560672993428294 10.781827202716627 -1.5638745262934097 -0.6847847877634078 -0.2596531371551012
Ni 9.144348704208847 6.983738120269464 2.2478362380327845 -0.048726775781741886 -0.8752431110904023 0.8364724180801079
Ni 6.006210523839514 0.6855658646781814 0.9880463131049234 0.9113563118731917 -1.1527139931532149 0.6640583538493338
Ni 7.018962072697223 7.173158909165181 1.008599055921332 -0.6136127956042722 -3.1790677574654542 -0.7611403810060117
Ni 2.1948558343282643 6.765888367387332 3.2679988915677387 -0.9320482930049044 1.1402677969700619 -0.7185127761434723
P 1.1096896555654863 1.9655226441899796 0.9413491764899912 0.29967672873589035 1.549850444100176 0.8778365828491913
P 7.867086617644088 8.79638750598692 1.7114525269947938 1.4898786915322342 3.0678006970576455 0.6240902980968284
P 6.805260152265568 1.608715843730967 3.9588394941868748 0.2253656767271409 0.7521291786463369 -1.326664291522857
P 4.87922114461541 8.517914152525229 9.43141506157187 0.2860110583233397 -0.8288802075551467 0.3430016167757706
P 0.0968467611841492 4.6385070479107595 11.686904749548672 1.3786697380558708 0.1547888949498431 -0.28241639899354587
P 7.335707336364886 4.8664048083920255 0.8747135491001928 0.7032075132449696 -1.0767612917759843 -1.7529017736008328
P 4.893016182877671 2.125936568847754 13.609142664899268 0.9774290351325489 -0.3057067369800542 -1.5319763920332325
P 3.714444545718869 3.4981886790143353 3.639612055729184 -0.3375691329062896 -2.0359432077728874 -1.637641018652599
Ni 6.528967906204803 1.8650239262550508 6.0281949679242235 -0.18551640594068694 -0.22561507373378561 2.351835884147008
Ni 9.414647565402966 0.32239470467493125 3.0507065327991754 -0.6548044393512336 -0.4211119879259522 -0.3614785925340355
Ni 3.2501016936168154 5.299951169670763 4.6125723759777095 0.6417260089007205 -0.35722341680210734 1.3184290480972585
Ni 4.921939158369423 7.663600482303944 1.7149730580432099 -1.4679793203559817 0.08810424913809987 0.442086019074458
Ni 0.011387431246624231 2.751233961971914 12.722837555270058 -1.4384147193249872 -1.2702974826973543 -1.4936103906605245
Ni 8.133601164287885 6.151468548352399 5.66686749614278 2.509099208779272 -0.3719535239234304 0.3029168329397428
Ni 5.932966327444349 6.061008517044805 5.267574774127545 -2.1656664180033545 0.8099661442594632 -0.7089986660054499
Ni 4.0512392197258045 8.558637478314294 11.568012957963122 1.448747211599247 2.4903147290829177 -0.13993640331804288
Ni 1.5568725985859038 8.150490765187357 1.4187600310539974 0.30468960856944943 1.455067754500636 -0.09280499704787888
Ni 7.959830287042395 0.765713172787556 7.935972327626123 -0.34252673402188105 1.3251231722879824 -0.3939413410484312
Ni 7.140218594828134 3.136376516699354 8.089419757961457 0.4575663740982442 -0.3864972260655602 0.8107140781690813
Ni 0.5959820047196763 7.869267725045013 4.824326213303411 1.2181755651911343 -1.5536186528933567 -0.22465810913715503
Ni 8.72444824564359 7.907921795094739 13.062678322860847 -0.35995264280781236 -0.865187012405981 -0.2508267971127229
Ni 5.485345298749387 9.502730748901861 4.924760616532928 -0.15118832208277833 -1.4540627102748893 -0.22048315182385897
Ni 8.5942901954448 4.885177245594858 9.565967949973807 0.3038753401982702 0.5765009783536394 0.6323643651801626
Ni 6.456627844074124 4.07380529245076 10.589704264096431 0.1952770848718766 -1.4647225039815808 -0.39776559989052784
Ni 2.0153618803982956 1.7027924120965057 2.9318557534895406 -0.1318896217541664 0.7276016258186179 -0.7227358130858844
Ni 2.129562426877497 2.123960522826403 8.63846321289661 -0.21199388340592526 -0.18844977753739803 -0.5502533575110201
Ni 2.299595594431658 7.9327249010514125 12.808306206179381 -1.9767412434914347 1.1312938756062259 -0.4640157292680137
Ni 2.5281737858542384 3.5885741425475395 7.013405841407943 -0.061912421234080466 1.5043802275825187 0.5063887949175859
Ni 2.864493090299434 1.873739034886952 12.644149911344378 -1.4663736664317584 -0.6721511581597972 0.809945832544489
Ni 4.701069410624472 5.058547321053 2.8322406636811404 0.48506175130503565 1.1850749259824236 -1.935646016113021
Ni 5.4616886723239695 7.259890551753246 7.381813523367773 -2.0382214622841026 0.50855623488255 1.2020961431307684
Ni 2.9035386411647113 -0.11283502411067334 9.30311002056669 -0.8282646854583349 -0.30006110865850255 -0.18860532927865584
P 0.3233062957168563 6.339090389690944 7.89332701745214 -0.33052739556815985 -0.2532415772018026 -0.9663498945002519
P 6.8666480725326275 8.340004763801062 6.382373254335967 2.2104768894498252 1.6408039897616131 -0.9886647559473681
P 0.257186118067533 5.281952373127232 3.7543289840460403 -0.2217784735965148 1.6558567703296774 1.6538019446831778
P 6.810740883683276 4.826930492824003 6.834147708064485 0.6757293624293589 0.058600583252028104 0.8321645347333733
P 5.9679479346053395 6.90136869248325 3.3336856440284164 -0.5854522740096562 2.1216445038964493 0.6418023706646109
P 7.607795824144381 2.0279731552421056 11.070768939605575 0.13226166038160447 1.4738175243043132 -0.942676462142712
P 9.362636542765523 2.8789033127004173 9.126293981834523 -0.33333169778617433 -0.6838748743546287 -0.4099045492459069
P 1.527604747137594 0.2665993674871661 7.477390768192922 -0.3667151583426265 1.937206675731922 -0.23362431719150734
Ni 7.8120928840310215 7.981585435220851 4.1471557479244305 -2.1839873277997293 0.5780248711973336 -0.5291338019235854
Ni 7.544441178827769 5.54821525353246 12.270080671113943 -0.7021353632267134 0.6011360032935001 0.4641658816926328
Ni 6.330077009961481 2.947281961816596 2.106503274744384 -0.5537127768145302 0.43735081838231776 0.509914034462025
Ni 7.041397651816994 5.26150216100061 2.8469603423458443 2.244238816391619 -1.1365378976139846 1.4563142253132275
Ni 7.420565463621387 3.6223813072618767 5.0062315026377355 1.3447301478856326 1.4444650392841252 -1.180073101892458
Ni 0.6078308240703424 0.4532397104952938 13.209822912065816 1.3514540968730273 0.4950188625177475 0.9223956004064888
Ni 1.544512989980662 1.3304475516488523 10.66419094603238 -0.528856894113115 -0.21373683423896095 1.1489884646725115
Ni 2.2659562072096997 5.606294228810937 8.439614261026382 1.6213664498622915 -1.338062763167786 0.7776124105191059
Ni 5.1735587920786985 5.24667249486868 0.3157413950049302 0.9164545523317056 0.772921947021972 0.4073624995503436
Ni 6.237724821378724 8.109655587736706 12.617464901181524 -0.1956493806096308 -0.5596013743848234 -0.6191730633008692
Ni 3.5388467580008087 3.0478832104413116 1.126822533828906 -1.1978329969790402 1.3093196295968226 1.9046829920726038
Ni 1.9096620601996228 0.3552026612124347 4.959916525866555 -0.13304199019105475 -0.4245937758269655 -0.1343008022988203
Ni 9.093232494864091 8.326787625790327 6.973379724309431 -0.43309872797418314 -1.087601834034914 0.6100757289852913
Ni 0.9718884084916607 7.107818896855419 9.816984516807699 0.23021683417185515 0.19647907559977773 1.2286425261607292
Ni 3.632317463199424 0.3284999412031615 6.585669241851415 -1.0919984204407127 -1.0038754022495358 -0.256855519805306
Ni 5.870059088774081 0.7591176531427076 10.813136346988879 1.0444849482407819 -2.0164614448991918 -1.4489369590125498
Ni 3.7963945297741364 4.191883363198272 12.516377097828908 -0.3311778846679651 0.7550813192961254 0.056078588161122774
Ni 7.501135943850429 6.773102799559622 8.265158292353679 0.3786751589179801 -0.9139091602020324 0.5330058832844821
Ni 5.446253143025116 0.6224656818916772 7.905509527593203 1.574791687426546 -0.5200066428113367 0.9502956692508666
Ni 4.433949000813751 1.47663767334162 2.9749242357831904 0.5132700954184516 -0.34448745729267766 0.4527944066308976
Ni 3.7550466988745494 7.729210802795872 4.740236134123133 1.00506787989574 0.6155354665482818 0.012854744475481086
Ni 7.485635167748984 0.7625775978744314 12.72266045680588 0.5270761480636085 -0.33752722392476064 -0.03036447122447029
Ni 1.5480549592642154 4.045888981913279 13.571558642412047 2.1191878148258407 -0.7842646257283009 0.8103872909572817
Ni 3.350758868072324 6.898134315269058 10.359110878570945 -0.2650246858796597 -0.8427104285700197 -2.4721730251768843
P 4.275063715530984 7.249423100423165 13.29125278589471 0.5466856947644199 -0.6810839418730529 0.22600408164208818
P 3.0402400135662755 8.87226953740115 3.040734025071613 -0.4745788494958407 0.807602529123293 -0.8770464828477282
P 7.591605296129822 6.91294533945739 10.652485669647415 -1.0213180232060153 -0.0025644182930665512 -0.43334375410545367
P 4.385955317021602 2.2539974003918077 6.931170635615632 -0.15113690001955263 -0.01726470061771865 0.3106201151212715
P 3.722283483001681 6.4763789833158345 6.441457030374357 -0.5240908401830394 -1.9280725746411376 0.6506644490409311
P 3.8549768375297497 4.625597501969388 10.070783393723538 0.8364312804295272 0.7148127015840657 0.3389413306634679
P 0.3872612116173127 8.975946706719478 11.281963518623348 0.26021492319584216 -1.167090573589861 -0.40740158031839513
P 0.6200021490452479 2.847678057174354 5.47192123516472 -0.14043828265512587 -0.32664297291208905 -0.038452904659559584
