# total energy = -340866.27788128733 ev
CRYSTAL
PRIMVEC
9.26362668213704 0.00000000000000 0.00000000000000

0.00000000000000 9.26362668213704 0.00000000000000

0.00000000000000 0.00000000000000 13.55825403104023

PRIMCOORD
 96 1
Ni 3.717317286400232 9.398226944638862 10.391520217347995 2.0351842181196758 -0.0034771599153230444 -1.8037314546581902
Ni 2.439205481151724 4.87946701571901 6.854809371349489 0.02324045858517933 -1.1437565268496108 -1.0217489400958468
Ni 8.677600179288994 8.182070273103252 10.991404875518754 0.08607487741289692 1.309672642060867 -0.1679668270926978
Ni 0.7587095336952207 4.989240989178612 12.216935410661435 -0.10928088321571502 0.8357386252378769 -0.5764338725611299
Ni 4.996661153966894 1.5912501702151698 12.294637782980574 -0.4639360250700139 -0.6209111290378984 -0.3276883834574679
Ni 3.426976706132649 9.470297958437657 1.7799956328178748 -0.8068713073842234 0.15351928420880012 -0.29516804223225934
Ni 0.7086859508528701 5.688450250170793 1.101376634341193 -1.9406992622662127 0.038850140097978256 1.8040644125175769
Ni 2.126919369818673 -0.022065958209347945 4.0494840664625364 0.17200037373212315 0.3674088419755414 0.5114538681453191
Ni 0.4507393459262897 4.207363125726221 5.762826980593561 -1.1530752331473755 -1.0359769107697705 0.3334538251863354
Ni 3.663847634517631 4.620215165825302 2.3141224386170722 -0.1463443637269157 -0.15915925610339685 -0.059977151884580575
Ni 0.910845144558487 1.2543691306512958 2.300727234767065 0.03520483003590711 1.102626075357888 -0.44743468498088107
Ni 1.843711781919351 5.1659168728766325 9.901525327967494 -1.7964158948333835 0.021951050349794454 0.7871987686559604
Ni 6.508160764054324 4.69274936094671 9.16068810878667 -0.6037631565037022 1.4477943607676742 -2.01409860109397
Ni 6.924282864291062 1.5783274113142292 0.3140851075900857 -0.4965571535391448 2.318753499770742 -0.07422980514885281
Ni 7.744354659606232 0.9275113349087967 6.520042291342027 0.49037442176720064 0.24351637949423868 -0.52009740275293
Ni 3.1237318942170296 4.45937081973424 11.85055064720967 -0.03128132661178483 -0.10837276957914883 0.8351120473974714
Ni 0.7012148361191005 2.916448988720653 10.468097059053182 -0.6578591670171574 0.229286866158418 1.4676718164178917
Ni 2.4056896806473493 2.8034605368821066 9.044276746974004 3.0766059540541013 0.33667078946173634 -0.17540297165576887
Ni 0.9310685674664749 8.07270389920755 2.1497968217052414 -0.5079098595478027 -0.22871608125661255 -1.117468025466727
Ni 7.703316794422601 4.464725195823662 13.269313945608545 1.738006344546239 -0.8191082157700474 -0.6292265908821293
Ni 2.6697308254168894 7.156262597909236 0.5605114666606017 -0.9565023122822108 0.5365007838116179 0.762786658360183
Ni 8.606687118796737 8.816591630579111 3.8847110163930605 -0.38161804359638796 0.6723475904413194 1.2708268728382628
Ni 2.671407541804754 1.8086119012916348 13.530567665178593 1.5695263252625484 0.2995404602683422 -0.2621496783247098
Ni 3.787998756231183 5.109668133058344 8.79224311481192 2.157871347438968 -1.1183964508182676 0.4139512085114548
P 1.1142753078133576 2.024741570049946 4.976082934165783 -0.3879115899145835 -0.3959601712506729 0.3307832203327078
P 8.674311591898432 5.087555856716736 2.9771887346430095 0.6065746578105683 -0.8619271107077865 -0.2947198989512473
P 4.875567028982597 2.3761572395174584 0.8073343089432758 0.0716558737740895 0.20905716937510446 -0.15269755963845313
P 5.7027440257866715 5.739585468187418 10.977386229608507 0.16822008075408448 -0.4087591227875541 -0.17477767936694416
P 5.344037882301209 6.068295989220373 3.2824798816419385 -0.1450446710788857 -0.23584497899190995 -1.4172296006069398
P 1.2817802013236133 7.007451702579695 11.028419547734156 -1.0645405813400763 -1.6954044507153123 -0.47710187302801055
P 4.145519155530752 7.9924994213836476 12.882442672257548 0.9509443585784592 0.14968962605006478 -0.3531916699348949
P 8.159077952248674 0.04755760548075167 8.557820562898277 1.1361982548863787 -1.6085767542967908 -1.2434330542063423
Ni 6.663734106694034 7.112464172042823 9.44771694259756 1.7458667211309222 0.5639802201788093 -0.19400156059356266
Ni 5.502936866837291 2.507858216789624 8.694596154741005 0.5327662564698502 -0.2733892557942711 -1.5457068542454475
Ni 4.562104437090104 7.46843754572486 9.028861146194753 -1.1993404347625023 0.826957279500821 -1.6057462268265315
Ni 7.683177670515328 3.0284740234081613 7.739729330918605 -0.7552414990230735 0.4905837095645293 -0.7361888532669967
Ni 6.533756163941993 1.877625918361174 2.7483530758427412 -0.35829556682036356 0.14567330580182009 0.3263359831946315
Ni 6.3754963696311195 8.453420419143646 7.154595145147824 -0.49550300124301766 -0.4305677340222133 0.8230448318202923
Ni 4.61081258497623 6.0809778938335555 0.6404880592737774 1.0420046050210894 -0.8689693622665486 0.3206196495361446
Ni 4.515943786478358 0.5281693676277317 7.82099727305923 -0.6709764211254058 0.22477458011036125 0.012291929993475604
Ni 7.686558894170412 9.002966531172676 12.867148424984823 0.2957192867500391 -0.15540313149507431 0.06001494710105148
Ni 5.899299651851299 8.323581430788389 11.473767463065215 -0.778958125913723 0.5259034679117459 -0.24525187412810667
Ni 6.365862198120742 7.223442416941222 4.947325858569949 -0.8468707305952964 0.6889733719234585 0.846098371205646
Ni 7.502685172718965 6.021635102780204 7.039974442328385 -2.0277534728732434 -1.40982790882623 1.8572690215650145
Ni 3.790444353614587 6.868506569421841 11.062694039244974 -1.1158562008949169 -1.3005735079730762 0.6614571687810608
Ni 4.507513886406777 3.157395912744641 10.497044038991287 -0.8833886230156722 0.4340276675463557 0.9102576794923742
Ni 5.325001129941759 8.588623047214776 3.0702798432246876 0.5767349487413165 -0.9423100799422287 0.717860487271454
Ni 6.886876340676726 3.606357568754737 10.964206868254838 1.6827427960872439 -1.677800364480304 1.7373975073176466
Ni 8.11595577111328 2.3160548310950193 4.557620841887198 0.36233862654148563 0.6369267877398644 0.11916548931927862
Ni 0.6884810551977866 2.370237782214447 7.78641059733697 -1.158082713664296 0.10473517282656154 -0.6690897456256542
Ni 8.52354607138746 7.867875854721029 6.445594230995576 1.8842905444591809 1.8934171893507972 0.5570950630232019
Ni 7.412670514482091 -0.07096864225097171 1.8264592040146113 2.0154270900974063 1.940286857319142 1.9922953891759494
Ni 8.067590377405887 5.833472322281348 11.052580011884368 0.1176020014869007 -0.5914555427809427 0.026959559307979376
Ni 7.737073449214734 1.446635697668515 10.068413263956026 0.2979072955402934 0.46111578201239944 0.6268323796183398
Ni 5.426799121025942 4.621123001217626 6.784252034112999 -0.21800332282479876 1.4072346941777572 2.368315626969586
Ni 2.034940822773914 5.504928546524532 4.262796666416707 -0.4164240955319796 -0.5101405486505344 -0.20056044475800297
P 7.229954746337181 4.217062142621766 5.764074791076683 1.4377709150934013 -0.949286511260062 -0.2716802435229643
P 0.9631114513649361 7.371419585890056 4.0619853303598985 0.47058875449984117 -0.601491586860706 1.932285070060588
P 7.570105846038711 7.4472608956549315 0.9447824400664409 1.821700380431785 -1.00339229196553 -3.7201458762351094
P 2.202538352548693 4.599455378945726 0.31214715693626716 2.526737747796642 -0.4847987274516361 -0.41171563431271674
P 6.471069203739366 0.20207211561696534 4.583231989939836 1.012067708252341 1.5686729761233178 1.3879367651800933
P 3.678289628156746 3.0295115495708176 7.2312136731720456 0.9589548875877615 0.18904961590492603 1.5577848684559044
P 5.882226788299735 0.31956268991132303 9.604409331312707 -0.6947074461937585 -0.299134225968859 -0.1272634358360647
P 4.753972668169875 7.044469153883035 6.92601701516293 -0.19117051890267078 -1.1661194679258433 -0.36167193949176424
Ni 5.729719706015731 2.4852179137402346 5.941674258331997 1.3672123881485485 -2.8374046569954485 0.33120051037578446
Ni 1.1079204600670884 3.6014756376143815 3.4635782206082806 -0.45338190370325143 -1.0892771648548079 -1.1562708572665377
Ni 0.9973220238532325 0.4354543622800159 6.559442347368894 0.07547087664480552 -0.7848909464583902 -0.20121119096812445
Ni 0.7782400373445775 1.259278852671008 12.120807685328696 0.6943901720636557 -2.947519606076685 -0.4736568519022035
Ni 5.477730539260617 8.523888825566194 0.9268860401232674 -0.7537420316594116 -0.24345955811437425 -3.336917807839124
Ni 4.231596772525404 5.844190338086643 5.129900819592785 0.8499105458628846 0.9676994665496108 0.03985749831657006
Ni 3.0946441071568485 1.4897115606716504 5.885380126744093 -0.21366664312265782 -0.7470553636678553 -0.05503626293953748
Ni 4.005360487307648 3.651823447382562 5.2292828568982115 -3.561982922606711 -0.7953427379193334 -2.0689613145701204
Ni 2.2729882317183363 6.705605698258371 8.121542664226652 -0.6885933628762205 2.5528694118866877 0.5584850013921929
Ni 6.379785428678528 4.066046504196581 1.6136088590204098 -0.4538040788423346 0.283502432968873 0.33587734702616345
Ni 8.407806322492585 6.2277600549700445 4.946619970234285 1.8727864004743229 -1.8470062061864254 -1.6502965026330805
Ni 0.4424094930203931 7.59363545722752 13.295088133486743 -1.5378840157669191 -0.4001127599664658 -1.1822621391239767
Ni 1.2246050988600974 0.3676409111986932 9.826967956828906 -0.36189074037078967 0.19674492766665472 -1.5389862476921623
Ni 7.415662665826179 6.840382199512697 2.795576264408565 -0.3151840803428701 -0.8019497017128899 1.973081792361976
Ni 3.48765345939513 7.186749192563713 3.1821761135045095 -1.275429661717597 -0.08935740481891064 -0.4782843233718859
Ni 4.265492381714322 8.643852788123313 5.410746182746775 1.251682181589012 0.5934052103081457 -0.16655066347146152
Ni 2.1928763901589576 8.692496090624273 11.839216600245297 0.348073117761407 -0.38215823237057406 1.9005026354426688
Ni 4.397462004153605 1.3021694431450974 3.674748143764037 0.17172012348754295 0.694204795525727 1.9710791601096507
Ni 5.453969337410501 4.005731032365739 12.710320787323473 -1.0803646928565265 0.6754298289110691 1.0489044174647162
Ni 5.870054383141429 4.03996013210694 4.04913204865735 1.0864029286308066 0.09816728980105675 -0.9273570581768223
Ni 2.5394749738712803 7.205961953825756 5.739710527144523 -1.7341838854763552 1.167440757840428 0.5995866565285093
Ni 6.613015751867762 6.529837649952675 12.9474548026997 -0.5061635662806573 -0.4620285236346559 -0.943764295890252
Ni 0.6753100311079248 2.9729293192002477 -0.06882411272726724 -1.4822114047949635 1.9058667279680597 2.085597123354589
Ni 9.08783987672853 6.9272842792616025 9.138358137223433 0.7970018707893112 -0.56023052332839 -1.4791235098982591
P 0.36264225836503905 5.865802378599829 7.22428540694838 1.0652046972866365 0.7367547530727957 -0.12829419109342421
P 3.0557739305630514 2.575658698793914 2.7753611787643844 -1.3018266636538869 0.2619023382005941 -0.13617179406928806
P 8.238263431162824 2.1854376981177706 12.181453868623883 -2.239579977463369 0.9202947520134023 -0.09397921986163814
P 2.5008549151916952 8.949719206324929 8.037359458841493 -0.21590041754918302 0.060709916285547054 0.21047333299634075
P 2.7728720423366546 1.8205712430415375 11.103464185624134 -0.5572485578819307 1.4779701130201064 0.6228589967928886
P 1.5063119792741488 0.007132066005615862 0.43420191998366675 0.5324672371721927 1.0406833151065045 0.3122208839494881
P 8.426296520891349 2.640467029454115 1.7214911999584555 -0.22210088993294005 0.12017104776565754 0.3871304887741849
P 8.71116229792563 4.093754010915372 9.322248533202494 -0.7959027241878616 0.967745746406514 -0.02335487267585655
