# total energy = -381166.97361065674 ev
CRYSTAL
PRIMVEC
9.22182357314186 0.00000000000000 0.00000000000000

0.00000000000000 9.22182357314186 0.00000000000000

0.00000000000000 0.00000000000000 13.49707095550039

PRIMCOORD
 96 1
Ni 6.3065008190278995 1.9793261018473667 0.06529051087231513 -0.05348768750549498 -0.024988037403905355 0.07250202382446869
Ni 0.4618759556625693 0.19452791292286398 8.472314325827853 -1.3786275719640257 1.0497351408961277 -0.3615009611315387
Ni -0.02199773794277126 7.087884373721828 9.126665416486707 -1.6970386438846259 -0.4026028733781712 -0.27718857493570326
Ni 5.042585346057999 4.437845821838535 2.9945677248058726 1.9706045344660774 -0.18747378677737392 -1.2055319082851947
Ni 1.759874366363118 8.421747378466657 10.09293454537919 -0.11562662292808473 0.4603943304653426 2.3851360409610343
Ni 0.2467280452382227 6.3289744030668595 0.9270136703216834 1.4964586587425972 1.0508530565506546 -0.7257020948030599
Ni 2.418238794639435 4.771408402172223 1.4656068984415798 0.09051594390338605 0.4136357341535651 -1.3435494973139699
Ni 5.9337547103472525 6.420528667465212 3.9820138493434394 -0.20291146148868278 -0.32458197661800225 0.4786843870237821
Ni 4.458327491986474 2.701302669106343 12.229817347276795 -1.8740092171378304 1.2913368198661566 -0.034378220369553694
Ni 4.9201564163488385 6.532241838186573 6.636104470503185 1.9708616447822056 -2.205709549968169 2.2958498556996907
Ni 4.7801875782104215 2.591313979392487 6.9374672094791245 0.33809929437814673 -1.4724422412233416 -0.25488734033534166
Ni 7.484579558212559 0.69504607588886 1.6238460134359627 0.30648475279665927 -0.32723304108760415 -0.07033047009444662
Ni 7.0405948624572465 6.582325561992723 11.213312334489261 0.6095116289517051 2.7643359620342327 -2.047785194713138
Ni 4.661521152517632 8.637740930112331 6.391348973326487 -0.8912816526105038 1.4447383475501698 1.06180878423121
Ni 2.3199341553881805 2.4914600737815507 6.903266232406786 -0.2606782359855059 0.564727382757479 -0.3433258328844087
Ni 0.7756116153217547 1.8296835707845056 1.3124905064400743 -0.9150790121404176 -1.1070853966808225 0.179970022201161
Ni 4.2257715452099145 3.140086256368437 1.1571230673052453 0.5019814098785097 -1.6472129786117502 0.7330042848914279
Ni 8.83712597750927 0.726173419165472 5.940682144212689 0.7208211125616747 1.4022313274258948 0.5816372711389403
Ni 5.551500901566414 8.342172262885132 10.454588644670398 -0.6988734046459899 1.531545475143401 1.7692876711580239
Ni 9.214741209034631 4.032906327076637 0.7854162581408854 -0.41921965599924577 -0.35397559928877104 -0.0018347392158936141
Ni 5.878608205401427 1.7567758336437538 10.798993322974791 1.5212250670539995 -0.24721671116396135 0.03662382187062079
Ni 6.719306529294611 2.6541422633717358 8.465430234533194 -1.9800872771455318 0.48905158919071895 1.556222923285423
Ni 3.4969616066859124 0.5793324781030358 10.066803586112554 1.6915663079161447 -0.19931705926920512 0.6516165285415552
Ni 3.7462643850647495 4.493545636198532 7.817098228118176 -0.4780048444582542 1.6171940636521567 -0.1615210714673541
P 2.8616332936862965 8.164569162759436 12.191984816082773 -1.1541214150237027 1.4500260783116705 -1.0426514945764689
Ni 9.004695733591308 3.9268092469091256 4.9696351885288275 0.011633984694502544 -0.5840389386018974 1.0091384504206877
P 5.241656851453574 4.710258490082629 9.635032273492735 -1.5374512991048748 -1.9339791699335596 -0.43730273875320164
Ni 7.44241738085264 4.611050112121561 9.851511815240523 1.0919871075868033 -0.37967943181277836 -0.2050447057816017
P 1.7328452014808076 5.700903665216468 7.186299674855916 -0.20497065801055667 0.39984150858295014 -0.30781041358661826
P 7.884797479306853 1.2995670428897266 9.715583058007919 0.03644950107628561 -0.055655641691091245 -0.705193947547379
P 0.3577523457389379 5.12902149837526 10.356977486551575 -0.40085375189754835 0.45102240233213936 1.2083837759116933
Ni 0.7359780619846027 8.9207863609321 13.266864894247826 0.8404506860015655 -0.5178492301487017 -0.07601595051499811
Ni 1.9185911718184026 2.003690159718081 9.141187944244011 -1.0937405999428003 -1.12051683959538 1.0191292430848125
Ni 8.526903832630078 1.3586789319704526 12.52189370991821 -0.5851105743995213 0.0505759131753387 0.012022221271856714
Ni 7.1726974850908505 8.203134828927237 9.088779398715982 2.9581971403951894 2.7026767944615386 -1.6446907264105286
Ni 9.079152737091743 5.5735133944268975 2.9969709320280935 -0.21335373986792935 0.6669289905289095 0.4672954284605501
Ni 7.380824821231709 8.099398535593526 5.591715429788448 -1.8506926538990771 3.8282180838547037 -2.9929831377261227
Ni 1.1791023616008773 3.5981618985380006 3.068180931449694 1.632730725835175 -0.9130810078737823 0.5029520013218952
Ni 5.682819669196608 8.916074009088067 3.8290376290601906 0.8379641721342859 -1.603688315856238 -0.06315529250224607
Ni 1.9801284004979165 1.9859104838760158 11.72073487676177 0.09226609382527336 -0.15150353933035196 0.2624191299360126
Ni 7.69861808326149 7.623948977818957 3.2598399350600755 1.1601172275958214 0.8876587111459359 -1.2878033527916015
Ni 0.5687891672159853 6.951770257835475 11.857271352167606 0.27713535310026466 -0.7974980936994394 -0.0701414940120921
Ni 4.329673831367877 6.782900224630131 11.371538538930649 -1.6659105550212536 -1.1688160409214 -0.055044233359337454
Ni 4.631199796620996 6.345518354550606 1.827031374325907 -1.801843750717174 0.4932717979196537 1.8147311482028035
Ni 6.328900628478303 4.564664339566795 7.173180708645893 -0.7028871537910734 0.8930107194864685 0.6422214604799005
Ni 0.5579526023394235 8.500308093455535 4.205984278376761 0.3504871265195383 -1.786722835915336 2.0080863334616192
Ni 3.4150718133884324 3.3973566903113537 3.986575885463289 0.6555040365214194 -2.3209754471227253 -2.340059974558002
Ni 2.2369100777916473 4.386102169789868 5.363263194500331 -0.7867735081930837 1.2321348555847038 2.6866590788770437
Ni 6.866625160817948 5.974727272466701 1.6872414395647382 -0.027510289605126817 -2.9286243118340787 2.539921593476768
Ni 1.0182092057831822 6.296236929395006 4.938186925791996 0.10571527735164375 0.6320131524883309 0.4056560583821982
Ni 4.278354383203409 1.1590080080428582 4.9297784670612925 -1.310228257454021 1.466636690285158 0.13139185618214144
Ni 7.301803015064355 2.6818538431981915 6.281185991147166 0.08563110500725897 -0.5309747117870662 -1.53479046444326
Ni 8.29966887805314 3.388761950744546 2.7275424458911006 -3.6903254504395675 -1.5950031293774143 0.09987604496204736
Ni 4.610801122885183 0.4059289964309081 12.445027966101414 0.09684034345951709 -1.1843501320012573 0.03019272153329639
Ni 8.624120296700125 0.9808977076208395 3.6067003849810337 -0.5176484269918052 1.8509263671764382 -0.7023868171158871
Ni 3.872603367967393 6.857735322896916 4.859269326230977 -2.3795153523401473 -0.5497162540606274 -1.7034643449053115
P 6.243266774811591 0.7893678095404316 6.031854625115264 0.7383964024412767 0.9897471903782697 -0.6159926086903584
Ni 1.9854309490503996 6.320388885323621 9.41916044991818 1.9027909172562132 -2.1690741581333226 0.38841346925166653
P 4.557960073831741 1.1744084534039836 2.711035381701631 -0.7136940145985902 0.10147578534899945 -1.1040175563887762
Ni 7.619531724329149 5.722528841487031 13.051302923945206 1.9467560099832535 -1.192881823621352 1.076308520509282
P 1.3541233511271018 2.243927885528064 5.007210430845259 -0.8398287361468505 -0.5095826192645353 -0.16850804430814853
P 6.322574457509601 4.142221823669918 0.5252603156030613 -0.666068185190511 -0.2945908295725507 -0.26841082874307326
P 3.096651467355922 0.7097650284881966 7.702832456632768 0.994397030445455 -0.6013424628773515 0.41974621792667716
Ni 3.1975013299123685 4.528201249172849 10.52570458149159 0.08000450284910092 0.03996882708345375 0.8130805215187287
Ni 4.031698268189029 4.989310871296789 13.24404180309558 -0.3627258346775753 0.0015071806731457914 -0.3627705718725817
Ni 8.612574573591068 8.792722897021953 10.786602880826763 0.3012440732230102 0.18745836015840617 1.015625086586296
Ni 0.9088051796836345 8.765868946787464 2.1551991878714163 -0.06215847580661553 -0.16774596933114339 -2.0909828131465344
Ni 5.744227792346148 4.861680833094411 11.728333659383068 -0.9740634610944257 -1.4400504551561972 -0.025900779026161846
Ni 4.017653430892625 7.443358006856733 9.032037518292626 0.7136965857017514 -0.13244935091237836 -0.25054063333087173
Ni 5.131243957855519 8.757347981809213 1.2864231777560668 1.457085556261613 -0.011124649158251808 0.5937870191275968
Ni 4.079873074516285 2.689932160645105 9.36548298146698 1.655144317643685 0.47908265090346525 -0.01235132247650131
Ni 3.095258971996923 8.320556308438139 3.313544146799625 -0.13186313939160518 0.3856482478017036 -0.9738953109476777
Ni 6.246199314706704 2.0439065323048276 3.835989039666907 0.8238092207901425 1.3541797233343067 0.029138569237169173
Ni 2.3518232212916357 1.450897167665813 3.2546701807669933 -0.4791322731944781 -1.307735058718522 -0.5167688526003293
Ni 2.2541825533373885 7.954274698079738 7.830298346375609 -0.33631700566674333 -0.0001956609505738566 -2.1097348969430567
Ni 0.2200105779925629 7.74412778257715 6.57477381067163 0.5309448869903952 -0.44192943889193564 1.1364898179848686
Ni 4.852495896819153 4.428476449091886 5.333650996836194 0.8253315709719398 0.6170045948946405 0.9914011810419249
Ni 3.092556977691048 0.36661451818926205 0.9456841743205661 -1.724737138241159 0.9418876476928295 -0.13168650460442483
Ni 2.278445171148838 9.117367973963901 5.591850068412563 0.10718080615357671 0.5890212223078373 0.6117122361474497
Ni 5.553621920987409 6.882468253710411 13.354474062523131 0.07692766369599009 0.5946156856764792 -1.3451644072095739
Ni 7.832214641313358 5.932113225751875 5.470929829039378 0.13195235667130178 -0.9546768290376978 -1.756465322582375
Ni 7.6615371306883855 3.6491678047011042 12.214336672050615 0.4544851640697592 -1.4865588831303815 -0.0752091383429866
Ni 2.9665592022604774 7.049595362261113 0.4362236090391909 -1.1416559355668403 0.4313745461942248 0.22292415716518382
Ni 1.347382198097771 4.120827192988594 8.713087839587224 0.9075554500698628 1.3011838878635655 -0.3388307732275326
Ni 6.145985757976555 6.408899947944028 8.863432151423728 -1.3460678928604495 -1.4096846983801465 -0.3911113277988038
Ni 7.6095168239326325 7.642789163371519 0.6937079892889204 1.1113462288397054 4.82746781440677 -1.1131542285827216
Ni 1.1193910539881315 4.538769458983537 12.405616658712288 0.7235907048870119 0.017194766611731676 -0.9663797192969228
Ni 8.898617097070936 2.76257246490234 8.165525465863597 0.609957201129556 -1.329161089802782 -1.4926770802129776
P 6.791697844315469 8.81188584639945 12.170970124532515 0.450367799467276 0.06770820198025114 1.389615181323781
Ni -0.0451030168962438 2.8671571660044486 10.494539428738344 0.686259058316089 0.020585537460835517 1.0513418232616152
P 2.22472804885629 5.585261997654486 3.348124140820671 0.6969949566763545 0.851928861844494 0.9572569310600482
Ni 5.633390694863895 0.6660849389687321 8.756387067793268 -1.2180416107164314 -0.06617865270960215 -2.1021683974497085
P 2.210775429795582 2.8757611273948256 0.24134342245597062 0.36975445938958257 0.569434044204529 -1.2193189347669582
P 7.396824685124854 7.083033694524251 7.229841437021837 -0.3007146830821015 -1.587056620836828 3.2876032778747124
P 6.907238071818185 4.3865909264390535 4.254789857436173 -0.3064161043422529 -0.9721914408826935 -0.19693107553553182
Ni 8.553407353568923 5.248305786247209 7.525656326938343 1.7441340547105315 -0.7564728003270134 0.9981824656298165
