# total energy = -340890.37874737364 ev
CRYSTAL
PRIMVEC
9.09343124769098 0.00000000000000 0.00000000000000

0.00000000000000 9.09343124769098 0.00000000000000

0.00000000000000 0.00000000000000 13.30915580911301

PRIMCOORD
 96 1
Ni 6.457081969705707 2.0876154248568732 11.446114005535232 -0.6973088883723475 -0.008755377595126857 0.5085408082635822
Ni 4.5898731356112075 0.16437286635121065 5.900042003827048 -0.43438196556198094 -0.25080340007395513 -0.21680441742069112
Ni 2.581397844404178 1.599389091907299 4.657485526249686 0.6364948424087683 0.27820467490504347 0.954051536748873
Ni 3.47560042310778 4.332301690634551 4.733055578723968 -0.4262097141638337 0.2944267931908607 0.3338921982753347
Ni 5.471772301603303 4.412996801057246 3.1090987631487628 -2.593125431193257 -0.4704974803376155 -0.8816855242816365
Ni 7.335080053618545 5.994808290029333 2.858114599892886 -0.4189774580814526 2.68816625955019 -1.5687459954530985
Ni 4.859029612217175 4.42419081513549 11.646655995360216 1.5974392496227328 0.8029560314902171 -0.44229247865830923
Ni 5.786032198053374 7.741492784080741 12.37815435237821 -1.3614433468752554 1.034246044121593 0.5266146350461577
Ni 1.9823771430311063 6.634476629850619 0.08198819637064537 0.10349590110282175 -0.544982596030384 1.5295783241147012
Ni 2.9730064685143183 1.8697913686178322 0.2797521428967645 0.6156974460474429 -1.1159212498048974 -0.11638972634635439
Ni 0.5197859960364579 0.4073802715653036 4.992490267798619 -0.37190030208799174 -0.38272104685257957 -0.4065184063824934
Ni 8.641742494678763 2.669204018197456 1.4822802447056265 0.242833237384285 -0.5807001040366515 -0.1152170461944919
Ni 6.9438715404908935 0.7670236655472195 4.855299486648617 -0.13517780558713494 -0.34846186855939343 -1.6615134543948222
Ni 0.8354217286604028 7.727516179987921 2.4938299185141095 0.7207540067691652 -1.0702594861017243 -0.16383403587124687
Ni 7.561933887257827 3.9967631646612536 3.703326316820257 2.6511770839203503 -2.3702840635498665 2.4780330835020874
Ni 7.806128894615395 3.9084477587084456 12.800120487941486 -0.6377233154992307 0.24411236120702473 -0.8952905166595807
Ni 7.930981708014494 8.785773354943027 6.85963181050061 1.4503634070464313 -0.2343442260766674 0.10775287660696281
Ni 6.676879300562929 0.7575264857719813 0.41184423704947093 1.2282869425935232 -0.4033556923837957 -0.5131942478751936
Ni 1.8475215550698065 6.437603839603678 9.28690326707784 -0.19940190567352756 -0.12722692617117443 -0.053611871788185085
Ni 0.2344613983654058 5.031704781455012 1.2786401227957858 0.30404529011723114 -0.8782356180598231 1.0236073334608242
Ni 6.454317566553972 1.5391723890428535 7.011183847892506 -0.26902712217083347 1.4405803595177384 0.5530090658792863
Ni 3.8117391155548095 4.520508440738059 0.7481266057129391 -0.27565131235557044 -0.7970350380200918 0.4200467798862314
Ni 5.743829582832309 5.618431163547998 5.084590359908508 1.514929978073907 0.13353409933612487 -0.18559790991089972
Ni 5.381911012309064 2.896530710270587 9.366864537584927 -0.6839219255424801 -0.3858937881536064 -0.8480986894651266
P 0.11461906567882663 5.63402639843361 12.534922382032724 1.1355367100429798 -0.029263010630175414 -0.8384480537492398
P 4.094399337819748 6.05160586267979 12.690346402523332 -0.5104922755629983 2.172678073434497 -1.1308976686090715
P 2.6340579057584526 8.457545947831557 1.34638073081729 -1.8892226916534751 0.5447851353075972 0.3402703338875365
P 6.373176877991688 7.81785942114743 5.616597018430547 0.1996811274768432 -0.508828257597014 0.7895778104110982
P 4.789092031164555 0.9502544899776036 12.520722079526967 0.21148480497999061 0.07549813033831514 0.34916352261210837
P 3.834854618224912 6.279178077401266 8.30012228177165 0.6100024525451946 -1.291541222567479 -1.219644693537493
P 4.834586468559727 1.0009958373022194 3.5664947262113516 0.29499680676171774 -0.9419449832933262 2.6417097678598633
P 9.416157301284308 5.688805229308787 3.5120332560927396 -0.11202065074438128 0.25273815520282283 0.4322060409565847
Ni 1.5135289124379403 1.2022061943365876 2.25819092077979 0.35423116694300283 0.2975735663499585 0.6370455727059159
Ni 1.7712367588858995 6.608705845205823 4.922657261207331 -0.18787307909832163 -0.38118147027960153 -1.1053799839539415
Ni 5.760561496645444 5.618658499333503 9.158389438188975 0.4491125869039362 -0.2649408679166018 0.4070619375907893
Ni 8.517862678441624 2.331683124174559 10.247930745258932 1.2303502528804553 0.41957575378708384 0.271733465358403
Ni 2.5262007156836734 4.8277663949945895 7.11776341085275 -1.4132778150480434 0.5312775877394657 0.06122413691780424
Ni 0.5067778423898874 -0.14137012223071815 9.540721852907387 0.40543134396590175 0.533765387158326 -0.3548024660654406
Ni 1.5066451848528624 1.358567747606618 11.539783623908242 -0.8048177672893042 -1.206788149289799 -0.2237487099490082
Ni 4.242685923988656 6.914581597886486 1.5055321488470321 0.07075007413036848 1.0244439704295067 -0.03893215828882327
Ni 6.0830145748051 7.842166163333577 8.103253128897276 -1.7340851551149619 0.7632638551069177 0.06348362237594228
Ni 5.102842695455097 2.574432275936319 5.090472900694223 0.4643630853051035 0.6112833761401473 -0.10964597986461762
Ni 0.7946795185254191 7.255248819180767 7.072059824534915 0.010145315964118011 0.24632865213205316 0.23862588417115677
Ni 4.830712666774729 4.519735499067343 7.059921912275256 0.9917205120545566 -0.17665792710879252 0.4851702518584419
Ni 8.262146293474684 7.124867199478197 9.114349949821033 -0.019753014257211144 -0.9913111924312799 -0.2480366359620954
Ni 4.800649782499606 0.3171543356711153 10.29408627511835 -0.6335946380428378 -0.6543748080129826 1.1259950891011319
Ni 8.38280703498908 7.51917657272013 4.405117342731658 -0.33976716899887294 -0.03802892974826354 0.9924987849814778
Ni 7.388012917915424 6.292318085803429 6.835303244079055 0.2755590097520802 -1.2569992229265514 0.18287459744246568
Ni 2.4033848309226946 5.298051387752145 2.530576474883065 -0.32632981254704446 0.9587438000182198 0.5200822332442785
Ni 2.2348017058239398 5.106680123514414 11.4830469772483 -0.2623108864929224 0.23286635597956026 0.38857519164051146
Ni 1.163713699134957 3.5405093365850395 3.705521471165089 -0.5141499269202436 -0.4136439616836811 -0.2473177555181999
Ni 3.861525652580306 2.6053408493335177 2.759014384275742 -1.117333813881708 1.7440299250324998 -0.9774143798445295
Ni 0.664648905275668 3.19090327220472 8.118359137172481 0.5041331661141898 0.8060025316260249 0.3079022019694762
Ni 3.6432469247702564 2.307340008262732 7.1327093747349615 -0.3623082875241824 0.7363125233290545 -0.2744151259556242
Ni 3.9273711894938446 6.7936116797038055 5.890339312501714 -0.17999624745340614 0.6134536443185887 0.841871220498176
Ni 0.7530416053955475 7.450966743637345 11.408834574085054 -0.14610859356702577 -0.9019195919403241 0.37263126671674535
P 0.09163723645060054 5.3447916252518795 7.9874764693986595 0.2740939951707796 0.9242149130034147 0.3391459904751062
P 8.617372098472677 1.3103816545110734 8.21500958236503 0.5376768063975902 0.9112938340663724 -1.3509079945615703
P 1.787804990933471 3.236415896462731 10.315554048015118 -1.7175287934181773 -0.5252928309109405 0.8551404268032563
P 4.184124225642684 6.165446530629049 3.5383187289559173 -0.9456098337394231 -0.529604570912417 1.306366974726402
P 6.815936053840352 4.128345117311287 10.569067094548947 0.3873516036460555 0.19486416570417409 -0.07717346115820901
P 6.639468923700299 7.960644481307129 10.262423856256419 -1.3530001012039088 -0.9802981291502278 0.2583542158380196
P 2.2881255876718876 8.519544963254358 5.923998648903518 0.6196320052151586 0.5630983317944882 -0.2431924204959167
P 6.92523909951094 4.204829968986439 1.5875294386490977 1.041062295712478 -2.0899420305868457 -0.4256587267563701
Ni 5.410282518340031 2.923801911099713 0.35861128951572524 0.3350419956090617 -0.3147292521936386 0.0509651781939574
Ni 1.428805411896104 1.1023057567544676 7.286590239913566 0.3779228541329878 -0.9179517057025223 -1.5688089874805498
Ni 6.983018762754777 0.8332893189923701 9.298321888912163 -1.50503894421244 -0.9362204221047232 0.7960179096094872
Ni 2.5323478753237163 1.4174931832093975 9.397768564266414 1.1485814590420798 -0.3214920248387689 -0.7087682951621986
Ni 6.481743355717242 2.037710673222914 2.544604002191838 -0.11696411079258565 0.30512283945212615 0.34647569136730005
Ni 4.218342808076829 6.985092065118579 10.331006516027431 -0.3335021619257676 0.13732467672680865 1.3302406960202058
Ni 8.361755741251358 7.12251200074037 0.700310615276196 -0.8878255757411032 0.598710424571143 -0.7135091522812937
Ni 7.310064023781624 4.001146198605781 8.342232143992227 0.9424651174628542 -0.15984291243398277 -0.6529977251597979
Ni 2.881917565978355 8.607205642144912 12.477028141552994 1.6344500225191274 0.7868349575586384 0.07266297488236517
Ni 9.085383733375185 4.700185552169436 10.19727578553281 0.049357724497521446 0.5747336020405714 0.3979674314886888
Ni 8.527856359572404 2.530656497079563 5.8552432139355215 -0.022617480289199757 -0.6356445785933311 0.1404508810606162
Ni 3.8110207344726152 2.50006619378207 11.322338763759426 -0.843517240742031 -0.8029971691407978 -0.15147834251937137
Ni 1.1828099051173393 3.176863014091959 12.836601516112973 -1.2773088810181807 1.4390603233287862 -0.05842677667832519
Ni 3.182082643727144 8.3548811070977 8.059572831070431 0.09977628615938945 0.3428527499027321 0.10380957568849863
Ni 5.544692528161742 7.936164963923998 3.61378147893944 0.031591401653035915 0.1474936468400105 -0.45495593305859067
Ni 2.919000579309857 8.453117446729927 3.592247323993307 1.2285180847677228 -0.051106588867828116 0.26735719066757824
Ni 3.363614815168238 4.281542156447094 9.536755298121903 1.456367704258982 0.6732662456008469 -1.592653398198315
Ni 7.33487090469588 6.185252024262207 11.541979687596218 0.23769025973076482 -0.7798292156647666 -0.6271378266739006
Ni 0.4415533868423477 9.093367766162105 0.22746400288757573 0.8657513695498832 0.8546406043487024 0.07456379144950384
Ni 4.554590621700901 0.5021838408364115 1.5232861643517954 -0.15037893880760553 -1.2143649331957926 -0.4101369769716872
Ni 6.108439809055928 5.757597038002464 0.5311191396154308 0.016141899867185103 0.7050995880613599 -1.1871462066891556
Ni 8.028572414015889 8.859984848763133 11.61946572607073 -0.4928753338121834 0.5109602163383523 -0.035001969996481655
Ni 0.23630372757113471 4.846180593620458 5.76675048607002 -0.6359379414640338 0.8751482373837509 -0.10443846752174915
Ni 8.265738198885655 9.311310037009608 2.4401404807230707 -1.0713689171158194 -0.632385191115769 -0.24012432309355417
P 8.61710838896149 1.9183502924016045 3.6359148910161636 -0.20008633333506187 0.1967950641782998 0.1697059212709916
P 2.082650411301454 3.3622326135923704 1.4860203730487476 -1.1575759492312065 0.16533016080079913 1.045303587487335
P 4.791083492645575 0.9170543718625189 8.271946284516215 -0.06480311251831421 0.2324531797015416 -0.6867691651832882
P 8.36782106000862 1.740400932940062 12.439735069955683 1.3224597665232063 -0.02404624231592633 1.2585987062031874
P 6.496301939420953 7.928099090254297 1.5252157904991581 -0.18316924586474906 -0.568822121652143 -0.14423760179655803
P 1.5984615619024405 3.207798867783419 5.958096288699775 1.7805174784355724 -1.4690571268011925 -0.018823046243774032
P 6.761448212770621 3.791751753293249 6.197940998465928 -0.612114870902507 0.31217331854100433 -0.9369665562421283
P 2.4447872241787834 8.348097407258244 10.414521499533526 -0.030548562210818357 1.0482115051627494 -1.4711669740553437
