# total energy = -340894.07234728493 ev
CRYSTAL
PRIMVEC
9.04951325899650 0.00000000000000 0.00000000000000
0.00000000000000 9.04951325899650 0.00000000000000
0.00000000000000 0.00000000000000 13.24487739336371
PRIMCOORD
 96 1
Ni 6.4554794449091535 1.8849321989589594 11.44583904794163 0.4742178666119962 0.30541568810219655 0.288219121718252
Ni 4.568493006404733 0.213791134650685 6.211953419075751 -0.7253197717629767 0.7404291166005893 -0.30099081956162355
Ni 2.7803725019715237 1.4546006874817692 4.699838549077773 -0.8385706953700331 0.7216983729603055 0.6907134945430168
Ni 3.5045960111509245 4.461944035443229 5.054271791533888 -0.23210325256129058 0.0714607270441479 -0.5134873536355802
Ni 4.911170930933296 5.055166788410744 2.346806694399409 1.0985763307685468 -2.0453310767456903 0.22846899824281297
Ni 7.299808096147421 5.952860420263924 2.542473463580271 0.22865463189105784 0.5707805309300944 -0.8086978190700008
Ni 5.174421276208494 4.277560199589597 11.564698976954437 0.3629127538774008 2.2359205263339104 0.053727571430442954
Ni 5.4663404799859885 8.010222047853809 12.431006181426458 -0.47080087051064723 -0.8658626983167668 1.1443584220996679
Ni 1.998974167029019 6.678169871053261 0.3903208978104582 -1.091898661638055 -1.0016670817443072 -0.3275767975802681
Ni 2.867474068601767 1.6648661317055304 0.36999931048319856 0.43868393537144446 0.19265558808862948 0.9940530168424752
Ni 0.489545192612948 9.078290868792452 4.593442514893002 0.5598469147367262 -1.4665364172618676 0.783638819218844
Ni 8.644982067401356 2.285717049132488 1.3994004655460646 -0.18537062439144206 0.03884268389881053 -0.23869093308113729
Ni 6.521504694793233 0.6681789676419712 4.95182225014989 1.221276315603645 0.13100053428099373 -1.268879776414221
Ni 0.9815192746267851 7.577257127972525 2.5819302470259355 -0.28711354735889905 0.37305472740740914 0.004713346315269302
Ni 7.653010604778943 3.936266850613702 3.770247192335421 1.1645827195663427 -1.0191624103155932 0.3553082020572655
Ni 7.727822932190081 3.7926329736729 12.689863892889466 -0.21214789248528623 0.026010308020832627 -0.23545134309791707
Ni 8.085649742177246 8.92947162066421 6.875243839570331 -0.6470695326008211 -0.48701167594255473 -0.2902914308662484
Ni 6.79457376212493 0.9568593505678331 0.4434089633148383 0.6697266078787046 -0.8328386779822624 -0.4889004083248354
Ni 1.844897151606004 6.644641423846502 9.087111429519155 -0.41088336821940846 -0.12020447210675426 -0.13158905979461208
Ni 9.186342058981035 4.575886458865711 1.4577046705835017 -0.05584847442818768 1.3040671229486314 -0.14522799073428538
Ni 6.497623028888068 1.9154562077115629 7.085876694038786 -0.766157374604629 -0.523068569566112 1.2766969584657948
Ni 3.5202878674144924 4.420135283460712 0.4025332161655245 -0.8641999659023634 0.13007339448103405 -0.18506234912240385
Ni 5.935222918615889 5.339719688267509 4.659044247549206 -0.6369203599819612 0.005302643159836029 0.6197443624233068
Ni 5.435689778045559 2.8102630447849988 9.498881484028523 -1.700349967646046 -0.5745716225414105 -2.109732840060528
P 0.21440197680627374 5.566111365398812 12.416344159789645 0.9183088319316249 -0.8871501469406334 0.5121994880620921
P 3.9919213581228963 6.144619609551702 12.524833346427567 0.11141592728084683 0.5909906873293822 -0.6333717233987545
P 2.5253119663379233 8.648194644664082 1.4126987255110663 0.29394239735527444 -0.2531893838076285 -0.28497464663902533
P 6.239006034481928 7.762898846190998 5.802607729210565 0.45758951402669584 -0.25957317584678524 0.9240385353265506
P 4.701493705081584 1.023346125636134 12.47999934211004 0.2990617208597108 -0.037590556659264286 1.0947795827302758
P 3.9060324262904143 6.098810972639256 8.010303493474554 0.20038380997082264 0.4666421111472673 1.3285684505241053
P 4.5941845749931245 1.0303413995068018 3.6594006074525964 1.1479718504825391 0.2216170083179861 -0.08020247779251995
P 0.3200993885553207 5.749282566454683 3.4980387337295973 -0.3382201362267272 -1.3375495709767933 -0.5029751412503466
Ni 1.5161373787114476 1.2126619463015562 2.4846859857588948 0.02207754862532972 -0.03507190400246863 0.4665271828359579
Ni 1.7799125957647803 6.580779007668879 4.8873734255029015 0.895865158216128 -0.5369530408576881 -0.803601635494016
Ni 6.024034843281781 5.622236447605646 9.141336113908599 -0.7160774272291023 0.17223974343643883 0.7193812947913546
Ni 8.867934929434531 2.324068886990043 10.385639683869652 -0.22990315958617824 0.1571291130472455 -1.6144265282093488
Ni 2.1895116720056187 5.074514648094428 7.061069262911151 0.01385876025996323 0.7471836617156035 0.21303286619340087
Ni 0.5913178303934198 -0.0617819330432554 8.95074250194882 -0.2261809735395847 -0.6675830791731406 0.3605136575176049
Ni 1.728239874158683 1.208951645800943 11.65934693282239 -1.214609959327063 -0.09224243967618952 -1.658671099850021
Ni 4.211797385594586 6.956044230008923 1.4148443651420308 -0.44948565397263884 1.6333907280166773 -0.2619424474099102
Ni 5.78272051852728 7.885356861738059 8.028011581327236 -0.9852482740666517 -0.2192917026189191 -0.5270519796938924
Ni 5.082975943138509 2.638557577227364 5.161330250100721 -0.710262363209222 0.21408676137921195 -0.34767228277856255
Ni 0.8186117440123112 7.363932948214112 6.913256320674781 -1.110363810321778 -0.3710047868569159 0.7576701630692242
Ni 5.1485487173517805 4.450315410703503 7.14545235571119 0.322501954160522 0.26069289127352524 -0.23699374788437247
Ni 7.945680918169976 7.31823290546266 9.180607382329233 0.7921856803475905 -0.9149594558434179 -0.11464677551331869
Ni 4.4363248629621665 0.2295128543085262 10.346792837628234 0.3366016267866977 0.4417666880618263 -0.010669821009020334
Ni 7.903220601221498 6.906968718753254 4.701798673683707 1.0648789385161015 1.0007682240791216 -0.06787738056826374
Ni 7.204688660630487 5.976678739575176 6.837840390718785 0.11605136917032917 0.39872770669348107 0.5890371631474371
Ni 2.383053615436373 5.382831570181948 2.5013741934495783 -0.17463704002402183 0.27058829601036627 0.6323283697359046
Ni 2.2996442502799104 5.563197422078819 11.141484907779033 -0.9160079517125901 -1.2457012814152286 1.9358596747857244
Ni 1.1728169387303393 3.4059020178346198 3.6076799234253936 -0.5186367590470036 0.007300647426471298 1.2537544907370084
Ni 3.8424143469750263 3.0386003673007695 2.8842971140423512 -0.49739224784593056 -0.8446595818765904 -0.21098961051112694
Ni 0.9809310562547368 3.1738996423853165 8.06353454129091 -0.31290325472849334 1.1253623406131392 1.1154646218834532
Ni 3.6619489504305784 2.7283739978824455 7.3999129086053 -0.8050815624736521 -0.45188500744275073 -0.7575284952850373
Ni 4.176106104681373 6.845341532389415 6.003320507072261 -0.06043789357108301 0.029800885411516417 -0.27090685569204953
Ni 0.6199830690903506 7.41677305705089 11.351522304264709 0.3557141792464325 0.4312621889860766 -0.41095253089444705
P 0.14638583397064694 5.559061794447648 8.024356482858462 -0.20904431385929803 -0.23181271790406527 0.32331467986980444
P 8.510841130034073 1.5636292251192934 8.15310933993778 -0.5317591553615745 0.7937247426999362 0.2815923604303538
P 1.916153020244605 3.2702498117268437 10.470764836769812 -0.6063368307681493 0.3011828809677716 -0.49220479010772006
P 4.035123735171497 6.26850744821851 3.764472697824589 -1.3712150815500386 -1.5180556681870825 1.085396341743163
P 6.894824271748809 3.902539314111788 10.390858538256733 2.200179878399192 1.0681558094951604 0.732980373632028
P 6.069409103550251 7.612658824456423 10.357335520758024 1.4929043657324352 0.08070872800497712 -0.8734945038304118
P 2.253301692075913 8.480624804737618 5.844116942299008 1.620921649015389 0.9411440846585857 -0.07413210322872393
P 6.767416172363126 3.9058333369952596 1.6516366480424913 0.9669307067043864 0.4162585164883928 -0.5992259307549809
Ni 5.235342600525875 2.9553086458187168 0.36539401310573044 0.790704982037006 -1.0497377119992888 0.4484736677683566
Ni 1.4563653425979144 1.1968886444172429 6.832541900613641 0.5561067309680036 -0.817055961226709 0.28761182715155625
Ni 6.829007160673302 0.5012869362703756 9.474604354387072 0.2932543701493143 0.9463557107665121 -0.9432266782192271
Ni 2.4612142628114806 1.4932059117149765 9.153375586557418 0.4604989743640069 0.9128053856148926 0.9402166877483098
Ni 6.413779287087631 2.0911887087393755 2.7637295418479204 -0.5099250902056185 -0.7941062944090711 -0.05043270272925508
Ni 4.081131461379098 6.8611872303810575 10.299759801550588 -0.36706379993129684 -0.21506300924955218 -0.32246467316468336
Ni 8.189728195976146 7.004830156835275 0.3159619510214665 -0.09021563905414785 0.9923398908061103 1.0190235707448838
Ni 7.574343184652531 3.9844736085814216 8.224221321313065 0.435253826643973 -0.7388152351462502 -0.04973567666223047
Ni 2.940910869973655 8.379460294258712 12.314093707700803 1.2206595079552527 -0.3859238700605934 0.2778899718781021
Ni -0.047433929521982617 4.796803180380256 10.334262881352261 0.3608306745373915 0.22008463083385968 -0.7652112086412757
Ni 8.591345601383958 2.348520672240424 6.0067774211972225 0.20258210317372208 0.7654894020033268 -1.2845668481321748
Ni 3.8148857271631615 2.5690392151646595 11.3248343842492 -1.2676495035515458 -0.3720993054726753 -0.2983639234617378
Ni 1.2369417907970308 3.3240491689857317 12.626739012055257 -0.5052037734705492 1.209573682454736 0.296196997717406
Ni 3.112471545316632 8.522180170344484 8.054024407641899 0.2873192356118019 -0.9457923820638744 -0.4265159325503428
Ni 5.728948309808641 7.569854625998132 3.5955870586474203 0.21860984606054606 1.0511430769872478 -0.31381676768169825
Ni 3.3254970911323127 8.240441669160136 3.856285441139269 -0.5505636896625873 1.0695254361491773 -0.7953540507732431
Ni 3.4029971240280426 4.4005521364282085 9.33709609307765 0.637915891126011 -0.271449615569397 -0.4458609127358579
Ni 7.211901122823143 6.087517179895927 11.508011015013121 -0.1000267116072987 -0.3587516805211757 -0.8477911855270367
Ni 0.6038857946257399 -0.05330615877770883 0.2847293653683799 -0.04786854154650466 0.3384368802232236 -0.20099444697162805
Ni 4.731755277945119 0.3402607994951149 1.4570956383305962 -0.545252561862319 -0.06525202713027473 0.7484784692676271
Ni 6.065173931271503 5.5687990708834025 0.29955156339265787 -0.29579693406550994 0.43191010698272064 0.010581375060272099
Ni 7.624332696763228 8.619733924970356 11.608989105515658 0.8278864761833096 0.710330497442996 0.3706252920303101
Ni 0.10817426357104155 4.905180153051819 5.590901602450957 -0.11433027271416439 -0.5753606941016091 0.48304497798532287
Ni 8.213818000689884 9.13774617193642 2.302860447348003 -1.0989540258229396 -1.2765002690739564 0.3409017968239484
P 8.447557882715083 1.5707240436375387 3.8425247510387033 -0.7661578888252611 2.1100400868883016 -1.0381857454956314
P 2.0045396177799386 3.3779209223519486 1.605398159242779 -0.15095306614352066 -1.1024365850549014 -0.6296654781917608
P 4.761654870272011 1.0456531762068924 8.292140634355139 0.04765642553569857 -0.16582844059345636 -0.30173618236808036
P 8.617797329099304 1.6321521407062234 12.338371742293592 -0.5118202503458024 -1.0852639299303566 2.0122196389037024
P 6.341365080731765 7.764102431475344 1.4527907847985433 1.1005013157054013 0.19644410859678427 -0.6769213258549309
P 1.7685283078872898 3.2610555060960564 5.925109182422022 0.3200203253892489 -0.8731808292447348 -0.5665515804504113
P 6.795668753248282 3.7100923618043855 5.879626327992558 1.0286186706324865 1.0397911423095383 0.030160325633464182
P 2.3205848243248335 8.590603541283837 10.238489166015341 -0.6059025714442081 -0.678558861458354 -0.19502023166606414
