# total energy = -340856.52641316666 ev
CRYSTAL
PRIMVEC
9.35266172911034 0.00000000000000 0.00000000000000

0.00000000000000 9.35266172911034 0.00000000000000

0.00000000000000 0.00000000000000 13.68856582208543

PRIMCOORD
 96 1
Ni 7.903260906199367 2.1843421690471567 3.9827430170982288 0.3669725257690712 -0.8660293058016182 -0.002231203323363899
Ni 0.403242809645429 3.971495506286995 3.6629371719041384 0.7333457273912467 -0.8885992206823342 2.6860996068291483
Ni 7.448029456651721 6.721673700678947 8.58962935760418 -0.4046109049471354 -1.120527124008025 1.4064425372937648
Ni 7.8524666011803985 1.7513139380808092 10.762101128579145 1.1006954339940784 2.3159666810542245 0.5349856327186722
Ni 1.356575503606389 6.177844488022355 10.114248808076395 2.2013443310209375 -1.9898255874792183 0.05052166289863557
Ni 0.7173762655937075 8.762910794952537 0.1178753349062908 0.18657235800902708 0.1126971079861156 -0.9135967711679361
Ni 7.159125740570718 6.56636340254877 3.228064596075014 2.0442157321943246 1.9767268453137308 0.6110738312325025
Ni 3.6921595629981847 0.2041283857581471 10.061698073213465 -0.45659732531675556 -2.3266719832868703 2.2434104069530525
Ni 1.4620174102136156 0.8848253831833055 2.9865844857810075 0.01385876025996323 -0.8010852968300655 -0.1810660834788172
Ni 6.235325946068126 3.321363942158189 5.405367952020113 1.093092167725524 0.6281377286933246 0.08650219475830263
Ni 2.2473791080690395 8.819803035319024 7.503633835519199 0.5994850979536385 1.4164392434951605 0.1481706183023771
Ni 0.6131866803714999 1.201695427908706 7.298113773718551 -0.5502646703649298 -2.0106049861184148 -0.24704856101721323
Ni 0.044506510641459135 5.459073740587674 7.676834839978005 2.6994611157377184 0.8526551984875573 -0.020772456660661
Ni 1.8656315205236096 3.1385100556868486 7.747249158450995 -2.1929059704455973 -1.7572330539863348 -0.6813083991790331
Ni 2.312426869329751 6.1418928569244144 0.6926001298128662 -1.8656392479065804 -2.259840527484618 -0.4555280035119767
Ni 2.4743588518556985 2.8565927778030775 2.764310066033208 3.7525158079253824 -0.4208785317589074 4.104009521332564
Ni 8.986055947493059 2.9369414934020384 6.114777620483428 -0.028669857130866755 0.6391104256547445 0.10166270454882491
Ni 2.615471809713587 5.35410881972082 3.342459805608895 -1.8251898816422825 1.6854331984352133 2.0261740442012655
Ni 4.871202844569947 2.759643087906811 1.997257138478858 -0.4149410832285499 -0.6622210435302789 -0.24668629258178806
Ni 4.264888499924454 5.212032537720609 6.16188042997837 -1.2994201110949233 0.786170327391446 -0.528814985131586
Ni 5.479359663545902 1.005719757246312 0.03415685534151615 -1.0993972840079451 0.15971332883465397 1.0059279139031903
Ni 8.678484318906463 6.8326897935854385 0.6402579593030786 0.29911468558483323 0.6593270098119355 0.529196793951037
Ni 4.356105008274665 6.852610962742205 1.545411352421705 -1.193818990723641 2.6898189646622646 -1.3831324018129147
Ni 4.248250114980843 2.3226306231091094 11.744433620288643 -0.18110233603339132 -1.3623769144331181 -1.063068367669924
P 0.042978285739949385 2.1960142906939386 1.4489068492164532 -2.5853720125000828 -4.431451850217497 1.4247827303638496
P 4.099570853908014 0.08451626159720294 1.6873211570458646 0.7755812390216901 0.4454099412413684 0.8152888420239571
P 6.062095948358434 0.8277909823608653 9.268814964918665 -0.4022084661532299 0.6072292606754317 0.0737415526585246
P 3.634369467120408 4.707615440945058 1.827327695039319 1.951543404069568 -1.7303732534810135 -3.1275719035790073
P 6.3187984506334525 3.1051304065222936 0.5126942022702643 0.7853773991765054 -0.23119719580725343 0.7442448908022538
P 5.893476812805686 4.63328048673943 8.537462081865861 -0.9205618896318598 2.8608225216987573 1.7375036938782076
P 3.3807346378423007 5.242568977766076 11.79976209563963 0.36571448499225406 -0.6010701830525712 -1.3894678571126393
P 5.713045265682515 7.930018870968151 12.267678560082734 0.35818578071537666 -0.34423806028603293 -0.45587227422527293
Ni 5.286909946297641 1.0402684891078604 3.95209434511385 0.2322842582238451 0.8072376895847067 -0.8122089175470527
Ni 6.024507601484703 0.7375565034761283 11.535436238914057 -1.0556409648576013 -1.4996337140364688 -1.0154947316560188
Ni 1.4021042601580989 3.2509945164607634 10.805466614508337 0.7549743614046159 1.2634514063097981 0.9578266875205891
Ni 0.009341438382055893 6.447425605287452 11.91747095316987 -0.8709894780203709 0.425138592586842 1.843846063290889
Ni 5.707873243831017 5.35538078169515 2.126464158150566 0.39983199550125337 -3.4777255580185265 -0.1674700899619374
Ni 7.726355312490329 4.35985542556662 2.8429509856284008 -1.2197912464176863 -0.6960917281357947 0.04814673490855579
Ni 6.61904694520608 8.656355921617774 7.616399811406549 0.8978492785256924 -0.7093758468392105 -0.6484692411618251
Ni 8.312103154330316 6.880379014961192 5.677360185439489 0.3263670935428831 -0.3698735014659501 -0.6447051461337026
Ni 7.190990258559968 9.000328109057953 3.6874804264117382 0.7540695902021594 0.7816945510082794 0.8379505452875311
Ni 0.814268904254361 9.147118132492443 5.30954806364222 0.23159288858377533 -0.7214842000669703 -0.6308466429840555
Ni 2.484057561909955 1.7659227954624386 6.034289550226987 1.4195921873018456 -1.4365519550846357 -0.17538291705111086
Ni 2.4487325591376035 0.8094775357290035 12.655544658831147 0.8192948778595567 -1.5363886621683152 -2.5338548184573972
Ni 3.520743981634228 9.08271570488047 4.849174520760119 -0.8283603304959346 0.30715992448681295 0.5704511726151337
Ni 4.764451565342088 3.343464281462152 7.445566900858775 -1.171965128073343 -0.682465909822244 0.2517606217809019
Ni 6.390729770814061 6.088545275295213 13.698011023409357 0.1952464887442573 2.078259194932279 -0.6269262248837267
Ni 2.826421091559072 4.374062118500483 9.142086400564583 2.188668278215166 1.600657242339398 2.8944993451259116
Ni 8.168979374233597 4.5722076066484965 0.4800319022485845 -1.7610670830204445 -1.5705979610601726 0.36974186098409223
Ni 2.9178901217718343 7.134126076178211 8.85166942384059 0.16624315953337176 -0.05171671164800126 0.2832730905668864
Ni 0.8905950401095072 2.3969936352994643 13.258566866601907 -0.7255632552323503 1.0168849271353262 -1.65769819441379
Ni 5.500234804183417 4.2237087310055585 12.68534410914443 -1.0478476940654275 0.29907663325804623 -1.4015996073791668
Ni 3.1141370196199305 3.588999705815489 13.10279080592525 -1.5443189727589854 1.279134878483326 1.7994811640222685
Ni 7.635045277524358 8.55277519466416 13.016046740340656 -0.42029746244445676 -1.2027558882019544 0.06882046120782341
Ni 4.016865267591914 1.1052040184296605 8.012150203863488 1.0433824592052223 -0.044437147267452494 -1.6206180017320413
Ni 6.637724210373246 1.4936481116634686 7.077604201210132 -0.010123461587247081 1.3287065187638665 -0.21387773069219937
P 4.177515935481956 7.6027505371026125 7.214530907746627 1.70025072306402 0.38634398831714756 -0.840121841907237
P 8.99336972884545 7.202999076023485 9.908550110439649 -0.7671189671869498 0.9140855378788966 -0.27990725941844696
P 8.126013246953697 9.074878174479828 6.0182048428486725 -0.8284521188787926 0.09404838253667673 0.350382482620874
P 4.674301260411534 1.809468787760048 5.87332556817415 0.051698456815556126 -1.0610348821796631 -0.6034006309579608
P 0.8829052817617635 1.9892737065576294 4.683967236150275 -0.1307277402355813 0.040934533430832726 -0.6592354785393936
P 5.834442812938308 5.698716988148165 4.599645509913852 -0.7137436368896031 0.24116767675640402 0.3729153736160674
P 2.308732568007252 5.14127965289857 7.22509848006129 -0.6170968974981308 1.1665994928860552 -0.8625362050466951
P 0.1619114066704798 0.5987807757460687 11.77535538999104 0.46566329217376573 0.23015487058566816 0.5410619208197391
Ni 5.013363300524341 7.801560064222518 3.5974919225264492 -0.2715164642515905 -0.7598561149769494 -1.7544704036395333
Ni 2.78191177511914 1.6496037434423854 0.8712967582136981 0.7271285428369413 -0.17113828284214397 1.9345646101233842
Ni 8.204182792405462 0.6331686418285108 8.926149344300645 -0.7596242014718014 -2.653829691051849 -1.8357707424819223
Ni 7.603021764288315 4.244060122594819 7.584012479635203 -0.17342630754537228 -1.0609052985803342 -1.1545489894794245
Ni 5.859115134175656 3.3151070115638803 10.284178251515936 -0.8601008561323251 -0.484134868615392 -0.9500509002299121
Ni 7.890335527901408 1.3943696090347908 13.09810886354033 0.6480028430483679 1.833872754128261 0.5095864759192772
Ni 8.848253831833055 9.256338514376353 2.1703085003524483 1.0941748592667415 -0.5885062303446317 -1.2912092931493568
Ni 1.6458907367967344 8.371268091459756 11.322770743669386 -1.3822361152508904 0.008109259370695713 -0.6116816400198304
Ni 0.17735171566621075 6.126732192509804 2.7238607399833943 0.510073957078657 0.40197809530997863 0.012760127879145766
Ni 8.686508902538627 4.85015000336249 10.19625668583893 0.5579191015863939 -1.332034040475203 -1.0191814364789866
Ni 6.722160039080896 5.752569613502468 10.95200224554796 -0.7667070764605117 1.4133876011530302 0.6246217451202662
Ni 2.268703176462199 7.227877155815504 5.903002498620788 0.3389606139371775 -1.7980441744654259 1.1872863318114455
Ni 0.03780439335613549 7.894357172379066 7.64854116817845 0.1463811305021221 1.0381302096673475 0.2991524808013042
Ni 2.3220975213992805 3.9468231850496465 5.156962195829118 0.1076628879963178 -0.006640131024336951 1.3163798788777137
Ni 4.596898633208997 4.071578337811204 3.966453486431402 -1.0040553794708256 -0.28365978448234375 -0.2871150900207958
Ni 1.1267151400543387 3.7898294078358 1.6238334197360207 -0.8529128230243181 5.195709950916885 -4.4292982942096035
Ni 5.939959540838142 8.413476653152005 5.45311422463148 -0.43593439765076536 -0.12154787350852615 1.8375730857979837
Ni 4.566081613316252 5.867822462102862 9.912163978872595 0.9655657080360598 -1.4194358642296394 0.28963682800138507
Ni 5.3484785174521 8.137919185139877 9.335409656404039 -0.7450123650958976 -1.502514892239006 1.2850941813905545
Ni 6.27699205338897 6.239319532561054 6.742111136754706 -1.0449446614860196 -0.01723101916630581 -0.44213538425515464
Ni 7.245927792657082 1.527317693336878 1.6719622162058443 -0.11582999718814245 0.3505442050097189 1.2584871203259875
Ni 0.8136282469364087 1.375991629038055 9.72012764926599 1.6018561477435058 -0.33384720397001216 0.3702221430546204
Ni 3.714699477396217 7.364117376992325 11.494931732160946 0.7331582939707889 0.2913741224074659 -0.688636300299014
Ni 2.2973690841924763 8.24657840732923 1.8825888312269592 -0.6318532298716989 -0.1902840025326594 1.3071300781446713
P 1.5893164869238308 7.124315134185043 4.005328759537983 -0.8733404947510507 1.7543107381332173 -1.719962856780967
P 8.733477968973032 2.609149410488247 8.39603206878055 0.6908829302413456 0.5187658284257001 0.3519287440620713
P 7.377033402628707 3.790652442054483 11.657702648430256 1.172371362372826 -0.15453744106066933 0.5402414818009729
P 6.895399389452162 8.191893395094668 1.7232942992654297 0.284644002772484 -0.3437356667283177 -1.4768231438998567
P 3.151491549954263 2.0759261160587785 9.745848403866 -1.9003748516155532 3.3196957875338824 0.3998762184756275
P 3.043430898105771 7.893281616297831 13.440200230737588 -0.9873046423750482 1.6097733457080534 -0.028282648994777095
P 8.25248928944523 4.6228709744054015 5.100496436830495 -0.800864181958195 1.4069295042325125 -0.0365924544120531
P 0.6353917694851133 4.76170188283876 13.290323828983036 2.1869752067834596 0.8472661662615021 -1.2281589016560914
