# total energy = -381172.5666197206 ev
CRYSTAL
PRIMVEC
9.14253419527752 0.00000000000000 0.00000000000000

0.00000000000000 9.14253419527752 0.00000000000000

0.00000000000000 0.00000000000000 13.38102293630727

PRIMCOORD
 96 1
Ni 2.2900768473016213 0.8799808119123725 9.156299302168259 -0.19270289638679716 0.0705047908887818 0.011522913037934995
Ni 3.7306751198843755 2.6812493199693437 12.892107040810071 1.4627772073297518 0.8996084273086441 1.487744933018683
Ni 4.608733256832928 2.0791494384081277 5.756609523131241 -0.1882381757472242 0.04081831956794261 0.06641596553138884
Ni 1.660256801735157 7.541731401356528 2.918240265652469 0.05936754332503969 0.11475861850083463 0.8071513005184874
Ni 5.868656766529234 1.9111827982021863 0.523850758972788 2.4169105051591533 0.5463838472532848 -0.05492776238613121
Ni 5.424613017990025 5.064516019416575 5.440054758426985 -0.1989254802577413 0.5163597900873687 0.9224321100713792
Ni 6.104086167353488 0.7985409448523637 9.149381146461542 -1.2413196074077653 -0.10917392532420553 1.1406197809928422
Ni 4.29231928715693 4.342036388694047 11.222075041398657 0.5381812568378345 1.581512551090147 0.884594213287999
Ni 3.7396256609665453 5.649729640121033 13.430399346967123 -1.6872980195580942 -0.27432230913150174 0.07391124546716948
Ni 5.853909858699266 2.696727630543514 3.6734519976848876 0.3913077600803261 -0.6958294756133436 -1.0082241661365348
Ni 2.1465116311491124 2.929423413611314 2.1927079427263276 -0.9124526302611641 -1.37636063030672 -0.7530254652083612
Ni 7.8678273148588955 2.397391914944629 10.903245614159934 -0.39564315423088636 -0.06725311672070353 0.10680851041582251
Ni 1.3083880840339779 8.085035644818223 10.148662888487527 -0.5623547687602444 0.31950096255066907 -0.35930009682547803
Ni 2.7572694926948174 0.6447534610962043 -0.18116937399221378 0.4782781527242989 0.0914446263652425 0.2850569219401865
Ni 3.6776392783954432 6.194962958320561 4.1130323609776065 -1.7563678777725622 1.6324278498827756 1.3879308516428226
Ni 8.602887072781696 3.0528384841610636 3.392892304783093 0.9862160372965597 0.13652480653333263 0.9575906602503831
Ni 6.509703844219196 0.9508784226681428 6.830049103645278 0.742930028645572 -0.08272267311121237 -0.43030213906565246
Ni 7.145036837970082 6.2339741521894245 7.373291177873717 -0.801692077176129 -1.048648335589852 -0.5815776215455984
Ni 0.742220190788535 0.7189771258312324 1.6219002133223546 -2.7762525109661604 -0.05794289506337118 -3.645102831156342
Ni 4.253445231302606 8.304337615132827 2.915791894966253 -0.5859682944141265 -0.12242050592146657 0.47118602176420793
Ni 1.754626040805793 6.6305224350270295 5.712572678156281 1.2009509737827315 -1.6039852782713664 -0.00947091560491272
Ni 4.319856600476128 3.857747204155134 1.8014870146268016 0.3703270440636009 0.09624770418084068 -0.010777550231478212
Ni 5.772303597514951 6.8717390600647805 1.6141930569053282 0.6361636843215948 -0.9294339953105089 -0.653463609052623
Ni 4.1714184135403745 2.149345816782894 8.433978751542595 -0.6162144948931775 -1.0019691863657585 -0.5421605532005567
P 5.259325140334722 7.92347792115835 8.87967364177684 -0.6055421027809959 -0.08732674754212703 -0.2578909030483559
Ni 2.198870925099658 5.141276737420554 2.3070088208298927 -0.1647696603116388 1.2905724308963065 0.8179543046712622
P 9.533286218612188 7.404648242024507 0.82034771767074 -0.5236948902962013 0.4622732926556103 0.43634680259783565
Ni 8.886863330752343 4.935551430545195 6.072080897520648 0.40951039913128184 -3.2433317096508465 2.891517379679452
P 8.409193341048457 6.481873969802319 9.487399838947827 -0.8049023565833106 0.1956702065452372 1.2514204432871932
P 7.404922518053583 8.140677108583375 5.848604446043512 -0.4901767039340978 0.4035187003242212 0.2566387758088096
P 7.470117930164871 3.36508345819511 7.69498496110942 -0.15763407770812207 -0.3402695625565882 -0.12310441936236863
Ni 7.9996718020355715 5.361209542602032 0.13472804249569084 -1.2753489290783324 2.3448532821815875 0.7673866190260397
Ni 8.229761962827153 6.198464548958427 2.2873121449285385 0.594731385318737 -0.3586238966940598 0.23152989655632383
Ni 0.7783176589751841 8.498662181732941 5.2507403006246545 -1.1342642710884596 0.5903725941294091 0.6263215014201924
Ni 6.309381775116628 7.175572902540506 4.02319233340044 0.29759722049904236 -0.07212792831450159 0.17844895757094428
Ni 7.697483615734299 8.365729732974264 8.340913237863498 -1.0034393431533815 -0.55783502651302 -0.09728180187230988
Ni 0.6735844430192087 8.96438287910343 12.56516909989844 -0.30978862035891164 0.4370255738324151 -0.49249223944115184
Ni 2.1977098232432377 7.268369625711109 12.228756750689106 -0.2518400688685856 0.7993462026517717 -0.6378989218451465
Ni 1.6276545244123621 3.3145252435021617 5.314019437546133 -0.8369660698870747 0.33810032281941127 -1.1624042238577852
Ni 4.996650987288953 8.792366096201471 0.5030652072360033 0.3304752021739857 0.16433231566390408 -1.433749452638834
Ni 7.233509142415591 3.021991573424353 5.616229565929731 0.08102008859780885 0.12702149502858767 1.3657766841432866
Ni 8.118277899542194 9.269524103984418 10.53327376428633 0.8222400765308099 -0.3476509426223239 0.944939804255592
Ni 6.007257586555474 3.5737983737873944 9.622815400023068 -0.22553305554294062 -1.6928114931771554 -0.2057139639344844
Ni 7.585405287719677 1.0850633986262639 4.545132302704 0.5545815525727288 -1.6834981861960294 -1.0392054450093973
Ni 7.5133895450187085 8.665833421454563 13.178661493454031 -1.3063584900859695 -0.7808571427086488 0.7670127806263887
Ni 3.7469671160114704 9.08137989057281 11.101940312156653 -0.3171689719833828 -0.6385427260767326 -0.22905752375643135
Ni 1.6477315297407014 5.335445880937525 7.894268438315221 0.044890689865103334 1.0855562643597951 -0.3805615773074156
Ni 5.479157377638873 5.694317779914435 9.051285410409196 -0.6704100070989745 1.4306134781130135 -0.140992355386383
Ni 4.1990928648741095 0.13900949130956206 7.078320108150855 1.6980100066589596 -0.3834263004497203 1.7089834749513277
Ni 2.452667677337679 1.5165178774309 6.644213380145057 -0.8125935545799812 0.09094788923448208 0.19197424575088876
Ni 8.39565324774642 4.16128848553318 9.404664474777151 -0.021909912699213878 1.5645556115208346 0.4905196890958133
Ni 8.562486213698849 8.383457106986857 3.051622527098828 -0.054617173124247874 -0.04320430330161591 0.3389143340802744
Ni 4.364216176911967 1.4385412023646869 1.9740084654222594 -0.4729726813509854 0.204467493121893 0.5116592992879059
Ni 6.489901114919933 -0.07627982069966524 2.446385842018416 -0.43928325951834024 1.2539372961717759 -0.38824197667080873
Ni 3.6407217248818577 5.6211592204256515 6.782800486369842 0.25372160216201467 -0.296536897555328 -0.1380468996048139
Ni 0.8730964835825731 1.0526988271953346 3.751195538126387 0.6019237893021181 1.367289521243387 2.343572615696951
P 2.5449889887245503 0.5042519081884708 2.3498946207361646 1.8849299778153923 -1.2409658236127723 0.6194833954524362
Ni 1.5014418383660408 2.627765494299588 12.592667100320137 -0.9472874785521622 -0.4062934348558809 0.10753793238267932
P 0.8353213603514112 1.3588914435211117 10.892808497000175 -0.57898543533839 -2.1454421205366794 0.26873247374855
Ni 1.4359355800884679 5.59284479169074 0.08566737492149523 -1.8221662643246102 -0.5137832876094441 1.1616827723107284
P 6.026118634821578 2.969485998924967 12.074018443365485 -0.005795780746170664 1.4552029945269196 -1.4114621019955433
P 1.2578298693410292 8.788206243093825 7.62615264885259 0.1018470526454891 0.9613676107943122 -0.4984237744342383
P 2.146804192246793 4.574165334635091 11.754600236917678 0.767725233312381 -0.4075316781383562 -0.42775340450186977
Ni 8.377084760577997 1.5920534958383399 13.2482837206746 -0.39627281739508524 1.7133782615849136 0.2326493548727477
Ni 0.7637161174406256 3.349577720018033 7.766506092704622 -0.7305486242620838 -2.090431825739071 -0.9102461095281486
Ni 6.3853745202391945 7.7586106000809645 10.981257030856497 -1.3428933517872097 -0.7420764223960252 -0.29230357620027075
Ni 0.1530853371217255 6.913712435047661 7.572200725426544 1.3273096384163399 0.9861774707491404 -1.0251268554291442
Ni 8.873176956901467 4.22855925293114 11.970997624084372 1.6688984340049837 -0.6472690502061369 -1.805026776430846
Ni 8.31156021723182 1.4408999762147374 8.456806745442563 0.990373511108359 1.285821289364566 0.5566176091661511
Ni 3.0582234368652492 7.515382617496658 8.082766467804337 -0.49490239154454124 -0.21781588940434102 0.925290919676413
Ni 3.1856520799738064 8.911127616791237 5.101930012542788 -1.2003889306316746 -1.4759008891959033 -0.6941297193134175
Ni 7.063302581305532 4.036995731690388 1.808860468541786 -0.9854585903052449 -0.4651557564097279 0.6222686715070573
Ni 5.3814145434106075 0.2042350737840475 4.7965748523591225 0.9769076154114401 -0.817189915701412 -0.7804115705307979
Ni 6.766892476683454 5.293280512734291 11.304007691057572 0.3639198549856765 0.16738138690287302 -0.945067588082708
Ni 3.7365537694408975 6.694383037130148 10.781505455894406 1.2424105264790992 -0.5399545466881733 -1.0447482292044974
Ni 5.890726844335524 0.9153413918342383 11.658215983286766 0.12987002022097632 -0.4225466634899497 0.00581275002703515
Ni 5.744290872412022 4.732139184848374 13.34502819015703 0.8358121587882896 -1.0176799122327957 0.3904286999094825
Ni 1.2267178251095456 5.676617833504752 10.112360627532501 0.21198359899328006 0.04947908056673414 1.0182031317261175
Ni 9.301980100758371 1.3703744666050797 6.220061957741275 -0.7843780113777137 0.6686326034835776 0.3791636685186245
Ni 5.179327965187652 7.214273250243084 6.363586032489423 0.501742040174194 1.3706255275951555 -0.11438837964560945
Ni 1.4426004875950067 3.0998036828731212 10.039313606962208 0.4446681779793374 1.3079371474269992 0.07908764746178638
Ni 3.909749939267882 3.792954063553158 4.3631236440628145 -0.6672403511217411 2.4615898503443994 -0.2901351077940423
Ni 5.276138260917062 3.5664020635366533 7.193116511613617 1.7076315889091234 2.3081824091231153 0.9025520833180004
Ni 8.669636715724412 6.475373627913225 4.745700305979306 -0.6442994260548517 4.326028650184975 -1.82021042614982
Ni 0.17319068430640247 3.7572616096361107 0.9110791423424024 0.5851473411747278 -1.294110783066868 1.3730030266883968
Ni 3.223456459314736 1.8637604727750028 3.9249484882923946 -0.6858870196886511 -2.3499522939710498 0.9449565164261403
Ni 3.919989577686706 2.2327805848277134 10.648538265505382 -0.00017226391180615494 -0.9684242605307772 -0.3377689076219215
Ni 2.951383781005973 7.787309015256582 0.9515375993913547 -0.5033705769165525 -0.9953380542024858 0.5778086414214694
P 0.5780906722293625 4.868692077190849 3.925483326549092 1.1195117953696332 -0.27320027971191657 -0.822970269828615
Ni 8.528037144446944 7.00544862423917 11.934588395478006 0.9959885433022911 -0.5817424292582368 -1.6298246079319736
P 5.151406665427749 5.415863612662512 3.0287012793489745 2.052957997163329 -1.5755090252085446 -0.10481564835550981
Ni 3.367131385878875 4.322535363026767 9.065589819578923 0.737255346858298 0.4424917391533089 0.8063712278193531
P 7.645197462058174 1.756326552186062 2.0699109074954287 -0.48160336044278995 -0.5762824345849301 -1.132817511339604
P 2.8585870578353703 3.686662959752033 7.0889720748667235 0.37430042688905213 -1.5773116256349222 -0.5268601753980603
P 5.340172571171928 6.845024574832809 12.802053077930227 0.8467282914801612 1.013845368978054 -1.553957524290014
Ni 7.136625706411761 4.789865146434501 4.264532382651274 1.2262629701849592 0.5233259369925568 -2.7521103665023183
