# total energy = -340872.4107761801 ev
CRYSTAL
PRIMVEC
9.20535299266257 0.00000000000000 0.00000000000000

0.00000000000000 9.20535299266257 0.00000000000000

0.00000000000000 0.00000000000000 13.47296459610371

PRIMCOORD
 96 1
Ni 2.5392137572678855 8.669150326169019 8.118242172108047 -0.7504685031144623 -0.2277236354363562 1.3338924338401803
Ni 7.803478936732814 1.8591683096434748 12.295844895442631 -0.47770968181533857 -0.3139864604903431 -0.6243286393598796
Ni 2.3283559430779057 6.215150520964201 7.527412243464909 -0.7016000595485337 -0.244416779821321 -0.23926197509325886
Ni 8.52496688324325 7.496922273493721 12.48291699819956 -0.22722484142306673 -0.4260451635615114 0.11220191351725192
Ni 2.2492635507125733 8.901806416094695 12.729916869059087 0.5426068967093558 -1.0788289729382905 -0.13688090432117073
Ni 7.741075849227625 5.990696400498198 0.9213435228797628 0.8857851482723067 1.6732065744620346 -0.11385487573964262
Ni 5.221984993462372 0.28617417078386664 0.9871921739862494 -0.8480045870894234 1.8538715658476912 0.9113218590908306
Ni 7.615910665453018 4.174618347915026 10.199047764221275 -0.9687083674300994 0.25733477343456973 1.200097367533185
Ni 0.05045914207990804 2.555378357011079 0.6591603428992631 -0.0018077426327001123 1.1656515271504895 1.0806328589162486
Ni 2.102428966143274 3.61633210348152 2.126047140153019 -0.1071761781678864 -3.0380674316592713 -0.5170115647387548
Ni 4.680305205712648 8.04804675334852 7.844728123207331 1.7391787675877852 -0.5083438617614278 -0.0276540142718427
Ni 3.73204338979812 3.237025536045123 7.024372845169646 -1.921664614232265 -0.2992375843159427 0.1907200616288135
Ni 4.480641100684243 7.471625963645031 13.058899613103632 0.8181723342193392 -0.4944671037793355 0.3271055143708044
Ni -0.02306401176342417 5.38966049706276 9.059881657125507 0.9705487630729477 1.0455874372763412 -0.36384272189083794
Ni 8.030418502489628 1.9179076666829518 6.650322534255665 -1.0267852169681735 0.857321236504659 0.3263534666961283
Ni 8.31258098046707 6.582223174358056 7.151854095741171 2.156407361298931 0.09041130000472171 0.38725955815288143
Ni 5.492484289278863 1.8136662501157934 6.047124293417222 -0.31198819911339176 0.6460099809880551 0.1007101108275685
Ni 7.706564981097081 0.7863525453888198 1.7789970499148722 -1.0695472905260481 -0.6934396352249284 -0.2742626595381599
Ni 7.964204398871863 2.171524345227793 9.094830700055466 0.2007378508761317 -0.32708391710424956 0.005779068575622305
Ni 3.807352382109664 1.3276604368802145 8.822757288888129 0.6689786739690866 1.005059652365624 0.9806737673220917
Ni 7.775319762123229 2.8565130673750363 2.8987352596541416 -1.87957462704075 1.9544960589399885 -2.92203277465949
Ni 0.41568151953504834 3.777996511619319 7.05104903742238 1.7741511698979122 0.5275086076153367 0.10543579843801196
Ni 0.5693197804541167 0.5839084237758786 9.02415107973188 0.0868878602324955 -0.26448038334041546 0.32890014437738196
Ni 1.6698694320130398 8.355128121704563 5.9912652913092055 1.2681493260060999 0.2676091587773843 0.6597034193147477
P 9.21649140597003 4.784638675809096 2.0151244784300464 -1.619389528641579 -1.6164451013012742 2.3065515583879113
P 4.279375264246204 4.541598947779591 8.853314457935697 -0.6759453350949068 0.2230239159678417 0.35468650931286655
P 6.361626096769273 2.3937507702849965 0.8297336916016766 1.9530145892984558 -0.4811163935040424 -1.213306410024291
P 6.6897877233325564 8.0953622674032 0.7234376402607821 2.5324710507359933 -0.9382346243212745 -0.9373239395815469
P 3.767658900280135 0.7910988253589741 6.8825294029584105 0.04756283738062776 -0.18153839512954542 -2.181892135833597
P 1.1886872237122184 0.7825949203232323 4.566944045998803 0.8852333895338947 0.03548276628764212 0.23079507527282833
P 3.6984162355487538 7.246186870415632 6.156645900424412 -0.17352683767897856 -0.4692003587927468 -1.3853967723670593
P 7.058489724194831 8.66759462152403 3.934954222804558 -0.05050186540429367 -1.4241998612771858 -1.8523186195382744
Ni 3.536926729116604 6.460684899637446 9.547441333935488 -0.367727915877857 1.9941036460292818 -0.4613914042712892
Ni 8.919922550658821 8.27552943492814 4.8981903863285705 -0.29123348306454355 -1.4983569042065743 -0.2438339107346575
Ni 6.141526108238651 5.635719580852953 8.634998466802703 0.23912390685349785 0.028924653454150184 0.20626109468720605
Ni 4.212525991276343 0.9357609466370467 12.340547930336081 -0.28332065597537015 0.8439157617320305 -0.6572595857599455
Ni 5.3908940143552355 8.878756212360663 10.089593356290464 -0.29643919563519916 0.055461780512730284 -0.3201838475503066
Ni 8.133813026587326 8.982058682929072 7.741066643874696 2.316923645650855 0.3494255180242434 -1.581739836609605
Ni 0.8194954980741251 1.0365595612087868 2.4374476601033153 -0.21250296183185982 0.2533220527307508 -0.014906741908503359
Ni 5.769519385674893 1.1358945246648275 3.517589044218809 0.10654600078305522 1.3262323461917611 -0.33491935398826833
Ni 3.079485126019483 6.736624559034932 1.2587289130778307 -1.2238921559599374 -0.40737458373520163 -0.01941465708118592
Ni 6.018082325461752 4.658000635565861 1.4426306922860364 0.2920089277779875 1.0918061019242487 -0.6274337606477646
Ni 4.8086094148360194 2.9803710910337364 2.0362360348372457 -2.498066090893562 -3.478227951576242 1.1702468598306557
Ni 5.930088356814149 7.041818830040546 2.4792141874124383 -0.19386194969190484 0.6580679405938538 0.5540729883674265
Ni 5.813870776086458 5.166025653007431 4.072702203497714 0.19275971776666156 -0.7149803375101815 0.15931095118991273
Ni 1.2833826892920805 7.5732622653333035 10.475890468741088 -0.8472941912859601 1.2146076453342178 -2.0283142304727195
Ni 6.688232018687567 -0.08713602975462802 5.900013548260055 -0.256337699628623 -0.8036589710945127 0.7174061733428548
Ni 4.123786389041497 3.152014101746491 4.436822700207262 0.2260310782252817 -0.07402334556500155 -0.4118596160897488
Ni 1.796516677609204 2.19966510913152 12.508839272047414 1.279234380175668 -1.2183444866688307 1.6061264929840855
Ni 2.128820712990505 8.193629409919486 3.536302606188023 -1.9173086512564144 0.7201510830778436 -0.5246675386221158
Ni 3.8654933912087612 4.695779403986172 0.14940287803646948 -0.12246884266089876 0.050318031528261725 -0.3881334761174025
Ni 3.1576293670331363 1.2304427045978268 3.2575875328824653 0.01839547178805219 -0.13057167427369126 -1.1640636138380793
Ni 5.625170246396403 2.976044575157141 8.583813942911997 1.3669583631562137 -0.041266719959270864 0.652545725224044
Ni 8.302519529715752 6.2485383360374165 3.6649290026639063 -0.5307438267231827 -1.2042841519210228 0.022978463173044295
Ni 4.6370216362408385 5.365883070447344 11.161516201311013 -0.7332032882761115 -1.1089376193982128 0.328266367448125
Ni 1.2740208453633626 6.112814612453331 5.369623205342366 -1.8131131529834066 -0.3667444689186652 -0.5713870541658418
P 3.830420996549553 7.976834143090349 11.149996622655756 -2.0155962686854187 0.213277120993723 0.22318538124637047
P 3.8398656886546307 4.731919619585137 2.575774657495701 0.8585764490679988 2.18894030092963 0.5600081229049387
P 6.278823947173583 1.7317662251071384 10.60214556630248 -0.5771491534605996 0.45940831240298946 -0.038358030952908136
P 0.33801871847957804 0.643536097372997 11.272331160404718 -0.3456827631523595 0.057292148853249715 0.9186605588440888
P 6.850909015647549 7.702164822397055 8.571122522828885 -2.1726847583027165 -1.0988100440459077 1.0002917986633353
P 1.048627778898609 7.514909533116841 0.5321421215800631 0.9282381752301949 -1.036627399869576 -0.05512470888828571
P 1.586717479006051 2.451265815384926 8.842804706496743 0.6315575530081511 0.01043713617292396 -0.863815585979751
P 8.991982053386455 5.880278192115731 11.1511951596071 -0.5511036213264573 -0.676539259925164 0.048714691596883845
Ni 8.334784291731639 1.3177738878345482 4.423646158024797 -0.7948809677915666 -0.797051235970008 -0.14825597892733178
Ni 3.7205551093428206 6.686022733984626 3.8550729316932166 2.3270154826692186 0.34988008906315865 -1.4104138632366872
Ni 4.392776006977644 8.873895786014192 4.688847773230692 -0.2927213804639798 -0.39004509131781856 1.3576712814273326
Ni 3.417643765863581 5.196274442731881 5.350451216797292 2.5175134009848965 -0.03283401581088539 2.088207564394242
Ni 9.04661582301963 7.863479427123554 2.2295327972447128 0.060323222370089656 0.754432887078849 -0.17149129530618853
Ni 5.704943834878477 4.372597873357438 6.507522655875113 0.359783978440432 -0.43426086660308433 -0.3531011671036177
Ni 6.67107324082805 6.728827625104132 10.92090208377828 -0.00732198758270997 -0.8689649913911744 0.061604403075358416
Ni 8.125804369539159 4.264296896148624 12.711175691031087 0.01308742931157746 0.6215436204155748 -0.5634315467641909
Ni 1.2431645023456026 1.5989974198132382 6.727320708829667 1.1371547052623772 -0.41328657834426247 -0.43322754024256355
Ni 1.7746999911676493 5.690371761191987 2.9960643767069692 -1.5817856022458758 0.7671459637701432 0.6854345055322647
Ni 0.324476723785835 3.3279007801594807 4.130973008073109 2.0074425292300333 1.543658456356851 0.9017072188192018
Ni 3.7891718100750356 2.8627635020137774 10.734207400491439 -0.42086850445657836 1.2306883529461643 -0.3352795655411645
Ni 8.03015154725469 8.50215601868537 10.3553205971486 0.2642289294512417 1.2603707105019455 -0.47322284968857853
Ni 0.08013627938747267 0.19198407907980264 0.03705983035656331 -0.31880599336617355 1.3485976012608387 0.5068623921198948
Ni 2.067586705307289 6.347100049847428 12.125384772581244 1.1617678758253671 0.3442424311614071 0.7768099692224686
Ni 2.158314663774784 4.47955486903863 9.253784131755697 0.49706906017855684 -0.465749681239985 0.36665242342549115
Ni 7.92531178274715 4.831705645334695 5.672630284492068 -0.16087212502944553 -0.6027012908980911 -1.4062095953473523
Ni 6.314826082478612 6.6468171358603305 6.381766488442469 -2.4354738699836376 0.5865717323260801 -1.6951838500640741
Ni 2.3524647623987627 0.8183420673521308 10.483569574154398 0.7611954026136633 -0.515980295260763 1.037569194957555
Ni 1.2375952638236025 5.078777317947069 0.3972422770831166 0.03457182443759853 -0.007218886345942406 -0.6641881945589787
Ni 6.154109825692493 0.7113068261710433 8.240011501187173 -0.24597512544737637 1.0005746200110768 -0.953063976024623
Ni 6.19013957705631 8.914693910195192 12.191900811775076 1.7300978883324398 -0.0293015771775947 0.899614083735599
Ni 0.8380921520611415 3.044725713359858 10.778196099997604 -2.183376176578291 0.738728846080031 -1.5639670860072163
Ni 5.526065416763585 3.261806346129792 12.273034951420044 1.543412401784316 -0.6050703053508999 0.5714477322004481
P 3.9410877494611016 8.336321585670769 2.2892451600887775 0.3039025938917798 0.8842885091221223 1.4878225803341538
P 6.0653426073988586 5.454300485329678 12.67773632598147 0.7044796950891739 -0.6224882437170312 1.4953379148745924
P 2.252236879708616 4.243308691470673 12.0371238486987 1.0077765370761547 -0.48367952624552835 -0.6836658436676161
P 6.744513546495022 3.0477358637676173 4.7751019301747295 -0.27454882332001107 0.7234559790813605 -0.04117724556925812
P 0.6841961412600632 7.574643068272643 8.267657937638617 -0.008791630149700988 -0.21137604731626822 0.08806388281846769
P 2.393539047167631 1.5440966949451234 0.9490764896487383 0.08798674972362912 -0.12155455837674552 1.00454388907147
P 7.691072372117699 4.18547145901823 7.787252661124996 -1.0610641927557016 -0.2949744381642146 1.1044217338057303
P 2.097421254149938 3.7063052230088434 5.364907303036877 -1.657210199033778 -1.4903047233260593 0.4473868624620811
