# total energy = -340891.4061742611 ev
CRYSTAL
PRIMVEC
9.09374327379821 0.00000000000000 0.00000000000000

0.00000000000000 9.09374327379821 0.00000000000000

0.00000000000000 0.00000000000000 13.30961249086258

PRIMCOORD
 96 1
Ni 6.547995191872399 2.289995482584663 11.454824377998577 -1.3278770808840359 -0.22548497591382458 0.46517401124217306
Ni 4.5567473577915205 0.02355370401770518 5.822635501180515 -0.3078134989104118 0.6593918016115998 0.1909936270051743
Ni 2.811330681083184 1.4126584289897661 4.715156725193094 -1.109627703486702 0.1344473551790136 2.1508049275104897
Ni 3.3067487117308656 4.169081089201592 4.982932903427969 0.59394154242759 0.7746021629378724 -0.4611504919050768
Ni 5.056102979203908 4.26206461245592 2.7655646001558436 0.47116725271113047 1.1248296080381208 0.07865415946879357
Ni 7.028999639697772 5.74178030310607 2.556271193207121 1.1300252933064474 1.659376867667794 0.10428060178764621
Ni 5.079855836195626 4.80180554700009 11.45808539427623 0.0045436535066244324 -0.07780081032956278 0.45308211307464547
Ni 6.004725885003272 7.883975178996103 12.693283973432589 0.04396560694767267 0.260612415744577 -0.4696369321095331
Ni 1.85822455993278 6.663694885404411 0.2509191066401027 0.607281968290238 -0.22525974727689593 0.2441838378749085
Ni 2.9660061575656163 1.5615775660863802 13.793816039061674 -1.1986776043675227 -0.4907132931638581 0.025249004374775872
Ni 0.6133620599781449 8.823613466607176 4.510840323846043 1.658981432001588 1.5891111893730114 0.6810343195820401
Ni 8.674503360905344 2.3468313769943987 1.3951002298015551 1.576569091041943 0.22918710735576012 0.17927376746508478
Ni 7.047778219210748 0.6985249641616933 5.054830764543441 -1.1218597267765196 -0.626041251175612 -1.6148746714903608
Ni 0.8002512120377048 7.228707332038926 2.581332639831728 -0.7071567277007047 0.7794538346032189 -0.5716490495779768
Ni 7.63236949475153 4.022508137826212 3.938088192454388 0.28478952721141276 -1.4265418791468012 0.7963812064861768
Ni 8.067987070737065 3.7736123890270963 12.479877466477221 -0.8358633237411993 1.0324748111537831 0.05803596899780973
Ni 7.5182612062629905 8.79320398966219 7.232882269498688 1.4862940595047693 0.9898533769388307 0.7292059941912603
Ni 6.910608198206515 0.9881352195930126 0.5171166110718531 -0.004495573877508386 -0.30597824547388597 -1.093486317840149
Ni 1.8377272629728527 6.496806511931214 9.314812000453879 0.01315864886914508 0.8282927104827928 -1.2611394703471699
Ni -0.1956164173179637 5.019946256616211 1.089407689688057 1.095081687351727 -0.7837411491246632 1.0093351398125263
Ni 6.136103191649266 1.9974224856495528 6.97176089246846 0.18022019053875415 -0.30249157247686614 1.025176477720157
Ni 3.4406813601895205 4.592922267865428 0.5295031985559333 0.5863261919741772 0.10322876348436415 -0.46543626376462416
Ni 6.006026290267367 5.825406364704779 4.648914262914969 -1.017898456001505 -0.03393676195676091 1.1217154878891713
Ni 5.314283439713799 3.2195124341192503 9.26756273002602 0.3446046995968323 -1.175250226582518 0.0510533670323895
P 0.32183575287448446 5.650042622657202 12.287966749474773 0.36915359258079006 -0.8236554688210975 0.11640258186216083
P 4.2721677610461954 6.4254570035250085 12.742449295532786 -0.4076160103220464 -1.4746505617285701 -0.6352535138024994
P 2.3539608715891562 8.436174541594886 1.4514132339827215 0.7117975689068258 1.3244222895662159 -0.09308601862340744
P 6.277219897161311 7.839815962475513 5.823447572439842 -0.1769271216097792 -1.844593482979875 -0.8922316752285988
P 4.966511422127954 1.2001831213284089 12.69470805360292 -0.1395024011044178 -0.7053253309189207 0.09809966978791493
P 3.7594534310117425 6.1654487006509004 8.223117234374774 0.9020463473261755 1.324476539842919 -0.21880833522459736
P 4.7434964662072545 0.9547611823956157 3.800014253385462 0.3874904432167649 -0.3257106909058068 -1.125443844583352
P 0.17264016598746146 5.518219722599038 3.74473884529264 -0.944424040961438 -0.3983029604512366 -0.3245624362339765
Ni 1.3946800988700783 1.237276499455979 2.6940650449883954 0.5506608773620839 -0.26715510195910114 -0.6228973062299918
Ni 1.7557471688762494 6.4212375067240295 4.904672150261539 -0.5814920038103276 0.19512179024093493 -0.481765597052267
Ni 5.737351650213663 5.603173470691158 9.216786906021827 0.37978176171859757 1.5544221226312585 -1.1349978068203743
Ni 8.558785479887122 2.5583336541434614 10.342047587277857 1.3810850323655828 -1.2023270281946519 -0.039864697405421666
Ni 2.2164361946038063 5.142602663623974 7.062186345787194 -0.14363724920839777 -0.566874768117785 0.05745361413177846
Ni 0.8967494670023309 -0.18883975995570207 9.059879824981293 -1.0692711540465263 -0.12719350183007772 -0.21484986479748158
Ni 1.664291394463655 1.2530086750285938 11.623857056096062 -0.6690421802171703 -0.37408008334813 0.08336879133564352
Ni 3.96752736701001 6.877025004917691 1.6136310609969031 0.4475547554985131 -0.07295968018717756 -0.1258981800574219
Ni 5.41847954821728 8.038814342854433 7.920390163887997 0.6757183066857654 -1.186151446876054 0.9999799238498714
Ni 5.229129629273356 2.736971143709038 4.872262959207642 0.30520305787075824 0.6949169911014031 0.3986919683595392
Ni 0.3086580097402207 7.468973118630868 6.887125425385033 1.52321741489368 -0.20377612348182322 -0.3633742668948516
Ni 5.015826790989393 4.800796141515375 6.909006790045626 0.041346167046954596 -0.47848409808751785 -0.13449646324939418
Ni 8.174283833897928 7.059500054073812 9.012364107880442 -0.33771337179363775 0.6172768747194208 0.6892777905377548
Ni 5.0397524291001154 0.48133727882303606 10.73818194944768 -1.5462663262933436 -0.9487743475103338 -0.5091401324104781
Ni 8.13706314336688 7.36425866677037 4.680378614060198 -1.4635948181350407 -1.6085394733009521 -0.4073617282193952
Ni 7.279605012200732 6.051504099538262 6.861863916412104 -0.13765994857904035 -0.23266529571234768 0.41560057118941973
Ni 2.1572813957021526 5.178141011680493 2.699069331819384 0.04668120610662283 -0.44097118874372443 -1.0447122337602395
Ni 2.332936137529107 5.403020184937831 11.32574778835829 0.2707214791541208 -0.5857749474563977 1.4091828190430633
Ni 1.1478940984714516 3.318907046262997 3.9227952446737713 -0.771734097361458 -0.19030097181352387 0.03197629579628041
Ni 3.5113761190921267 2.608822115865518 2.860767906102238 -0.2664251657716121 0.16357898243764732 -0.9545508449827946
Ni 1.0716885312468774 3.089080876756235 8.381568432994634 0.16810463822214275 0.7289044037904414 -0.8415290066674087
Ni 3.731608389622525 2.7352160512896657 7.2548964028086225 -0.5972952893911713 0.1776837972701456 -0.7671197385178982
Ni 3.7832244754896704 6.76126165518394 5.892538195058628 2.2214387877779678 -0.4090470863416181 0.4749711998382529
Ni 0.9325087930163158 7.555190897014661 11.399962735217056 -0.506670844934379 -0.007227113876058521 0.200616494806919
P 0.23763860420874616 5.503287796419711 7.928309904758628 -0.20525579335114327 0.33442287396782405 -0.22229860776604296
P 8.654315251211006 1.411157961377349 8.253743142405671 -0.45861049909204243 0.2030271611309407 -0.039159443808280944
P 1.727565658992126 3.156329107021835 10.458799426887182 0.7806085170329524 0.6783547158673479 0.6780083882715227
P 3.8938771415980975 6.027778523775861 3.6503876230752352 0.8273851110668589 0.24128234795739736 1.227644423913518
P 6.992270011294424 4.361968474213579 10.359736736366788 0.49262130881984834 -1.9677799205330881 0.8510719131608375
P 6.612297049371799 8.025737540268642 10.292722215299001 -0.6665124718167812 -0.8749464057855899 -0.06217570219779615
P 2.334100136646618 8.29610361653998 6.06002584620248 -1.2792042982686809 1.6417023332061662 -0.5959158925451414
P 7.0924830603176705 3.6777734304376226 1.4407253577107595 -1.5483851724085593 1.6649055107955066 0.03570182427698367
Ni 5.053011106548018 2.7139730673950826 0.7711575997200938 0.8401413822912627 1.9012749948323193 0.4799902503193992
Ni 1.436247598605583 1.1184485582956556 7.061375183902179 0.680328294653951 -0.9362188794428264 -0.7794877731649479
Ni 6.717184282351301 0.8852095070013782 9.266325071589355 1.1820477091203256 0.6656503809268021 -0.7821280390012724
Ni 2.97551821285403 1.6861345654032047 9.347153897808795 -1.4496710089650968 -0.430898892109387 1.3136689077044537
Ni 6.472326155491053 2.1437771871903997 2.80325725595407 0.14961146451396168 -1.36143306246261 0.2757675262184605
Ni 4.1706452130157485 6.984176579930478 10.46230051798282 -0.25688637304324147 0.8752492817379894 -0.0013410874089267227
Ni 8.508151518275376 7.179501088094752 0.2051584819586255 -1.3949221953589912 1.1691453992363607 0.5122804778116726
Ni 7.726953516792436 3.5745503524464364 8.388143209259951 -0.6512054091460656 0.5802982406125425 -1.7797944842266187
Ni 3.5549351485677487 8.471367327413395 12.451821450247955 -0.9596866235474631 0.2769319788402069 0.49890097118097304
Ni 9.247700176334861 4.826385934614414 9.949015100881342 -0.10039309380778193 0.4462167534133799 1.3659990845667378
Ni 8.504868677014269 2.261532066664267 5.99917506421164 0.6864115247335534 0.12686362929448472 0.4879863811509983
Ni 3.7460219724448343 2.804655873643705 11.670427023913934 -0.2680390472259513 0.22065335885313614 -0.214340786371547
Ni 1.3671442447464495 3.5618645808141833 12.698847525464569 0.027997256543874364 -0.18435246753957282 -0.6202853225284415
Ni 3.178654246345979 8.52232866377694 8.18454612299255 -0.8767302371588901 -0.5517996189522174 0.1314913578744832
Ni 5.568208028450288 7.973439423668579 3.3443731644558006 0.4922343577940749 -0.10814599828032342 1.4200354454868513
Ni 3.1233551945210825 8.443304036189645 3.5207781400889626 -0.3400440768093434 -1.0072319774265945 0.2020257164496198
Ni 3.31570604868984 4.420568554785793 9.405117416363618 -0.06430431850502474 -0.802440011085747 -0.1912520228728835
Ni 7.475511519923764 6.216928380371463 11.375698809862808 -0.2688908537032853 0.21015220221149614 -0.12500677859140405
Ni 0.5503378733850767 9.272526095013035 0.7192923452918556 -0.012522043726410692 -0.15879390234417814 -1.787947709461372
Ni 4.743651059840048 0.19478343044949464 1.4186048276064902 -0.13974845567695288 -0.29909823052460105 0.5926683321421212
Ni 6.156336770059132 5.367590961798578 0.46846599483142953 -0.7470944444359069 0.5051698349088203 -1.5228438336043453
Ni 8.377247086270872 9.155944308399784 10.98623288951229 -0.3920443811360345 0.10869287192272893 0.29162609051727195
Ni 0.08129169774351257 4.610564129490211 5.88081181332401 -0.15695890601796839 0.37232016323422973 0.2350584785348726
Ni 7.975712859444969 9.064524908959612 2.3841511893252973 0.25611401365359115 -0.4661222340880553 1.2073918443120688
P 8.607646161593284 1.6245517370923677 3.789246352174171 0.03142505127850072 0.29507779651129823 -0.02774631687533286
P 1.8815318235123246 3.279321982524504 1.422850696262475 -0.38121977971670473 -0.513742921289812 1.7126894630480052
P 4.703092965589262 1.0905944231633322 8.44580117804643 1.3135526938415636 -0.022924727116973423 -1.414344822859977
P 8.636082296284362 1.642330004863733 12.474061108386907 0.07348418523207989 -0.20732270318250104 0.444041600138932
P 6.559553339359563 7.640444738629265 1.4774604423599706 0.3932209179426389 -0.12541764087657756 -0.6008886631693844
P 1.785392771400368 3.060108211221928 6.065150170442461 0.05059648200062899 -0.19228226390961078 0.22174530636573425
P 6.906325045203797 3.879145277767094 6.150651361869537 -0.36199281316629267 0.9166219311475053 -0.5279629215439359
P 2.4723614068235182 8.650614097767043 10.448511675311863 1.6341319770580758 -0.02094703456531231 -0.36081113415336574
