# total energy = -381171.39674409584 ev
CRYSTAL
PRIMVEC
9.22893831289975 0.00000000000000 0.00000000000000

0.00000000000000 9.22893831289975 0.00000000000000

0.00000000000000 0.00000000000000 13.50748409630692

PRIMCOORD
 96 1
Ni 6.443340205963074 4.023457195100696 4.125361286652149 -0.7251012279942673 -0.499614709418546 -0.42170591275620917
Ni 2.7299845685993738 8.452636978256326 0.4935608546563264 0.28284937276590644 0.1495672415395876 -0.20387819627732628
Ni 4.923509408377103 3.2634725792700325 7.138583819218665 -0.08837858584540907 -0.026424512740115782 0.9216427814008643
Ni 7.371180752632716 5.356715774859487 10.361456452868135 -3.046938766006972 0.8492690556241439 -1.260336000609268
Ni 1.49346372069973 5.875151387069711 6.089403036817513 0.28920128312586324 0.9452277678096559 -0.9451280090069981
Ni 3.32676463852304 2.4637573838120423 8.81194538952572 0.5453116972350286 1.0726709237566945 -0.49736422282147247
Ni 1.0160784263018972 3.9269132709470487 7.35963350496031 -0.2722222320693634 -0.5865532203833188 -0.34859685147536096
Ni 3.605183250880104 2.016901417499504 0.18455292611464705 0.08260723057927064 2.2806608066640788 0.7675306008030718
Ni 5.783074269080901 4.800183105111144 12.020674675142928 -0.17846104175580232 -0.9076876047723528 -0.8042361837542213
Ni 1.1410936252872055 0.04536115491899375 3.083745465022314 -0.9330978173153414 0.2698210788270385 -0.6748009370778185
Ni 8.826861199698468 1.3612499497958819 11.079298044584926 -1.4229045395045299 -1.3269460844293341 -0.5031427771764625
Ni 8.407101396402384 3.6373830168080334 11.44899731755058 -1.2979625527127905 -0.3088599378970551 0.26154418353022696
Ni 3.418389538532352 4.858888382000671 12.418740013042973 -0.6202665534753641 -1.264446937453848 -1.1259428957069575
Ni 8.620769777246016 8.127224611784897 11.443094488577378 0.08785073836639708 0.6948403722271969 0.19136977939767041
Ni 9.011384593210375 0.715532511339845 6.143257583706549 0.7087670096106181 0.5094795180277677 -0.49115218047348963
Ni 7.346059582424684 6.573283658031075 7.6974015741042265 0.11399962884762303 1.0562446598798712 0.4753476093410652
Ni 2.796958974256866 0.4847352209054294 4.580671883393629 0.7264803677299811 0.6982946493243845 0.41054989613938964
Ni 2.264707641326059 4.170003507273124 0.9492193823738692 0.06776862290454135 0.9372383218462762 -1.315886998401695
Ni 8.649582522796889 4.8905805563189615 3.795305841293262 0.42402504780768907 0.42098497542978464 0.27502344896358444
Ni 0.91974307615512 8.21496412874587 9.310573854233931 1.0382649354729991 0.454026993486418 0.6720699112999006
Ni 4.713098842773526 4.539982417071 1.0001049797934243 0.02388117749297177 -1.1055314219301413 0.7457435868349673
Ni 7.592075392209961 3.0713537694902326 2.434697302713199 1.3153203272649476 -0.496947446999028 0.49442365213590983
Ni 4.531251841385182 2.497969058301821 5.072465396354571 0.15539490396495817 0.5793096514470282 -1.2186777016385333
Ni 2.7917630819618173 1.9189270079005054 6.5509680850836025 -1.010302388821802 0.3499201982724748 0.4181274513763315
P 8.449794465242338 5.485173367851995 6.392457377225026 3.16484441477722 -1.1606391615375622 -1.2816262774466123
Ni 6.199013291897146 7.4432218454482575 11.997172260722731 0.5161314761266466 0.3407079356455874 -0.64117682126547
P 6.23875310046283 5.781800675587621 0.20741392931902528 1.159382920532958 2.7144233934745055 2.179260354637705
Ni 5.251838119369375 0.9012870452285867 3.5989472572322097 0.5143062499924498 -0.1592199341380032 -0.7847338520552356
P 1.4258340604188842 0.17035974181525937 11.960755792859441 -0.0378936897219799 0.08233366520290981 -0.12624630742546
P 2.8333671360756343 7.5581682726859665 4.2593147124363115 -0.837638413363751 -1.1387274490661357 -0.0492664503352958
P 7.517034894428361 7.450937237914794 9.652219000381667 0.1587010855200557 0.5480578925215981 1.4781881425681833
Ni 7.071609413561174 6.700753754619373 5.014667324105546 0.3134347017519312 0.45176493692511877 -0.6837118664142031
Ni 3.203779805976294 3.6098346358120836 2.9882065722557547 2.576861918146543 -0.6513499051437298 0.3517099431830459
Ni 8.130067124798884 0.6627798996906479 13.237591412184416 -0.776128883995044 0.04723964971325413 -2.6994780850185833
Ni 3.583024569884701 0.21978162961137812 8.972562141117386 0.09100548194529488 -0.23268740719953473 -0.020337168895455296
Ni 1.8303107417956088 3.637539908760105 5.105248431186669 0.20453459891440257 -0.41949759225098077 -0.3157723487461723
Ni 0.9921939338337161 3.9623523942383216 9.918788578782047 1.2481044915400827 -0.8858211437165647 -0.6607938241654491
Ni 6.8219481731248415 8.751682267841513 6.477230713398026 0.8321107986773024 0.5452312217060803 -1.3548294411031636
Ni 3.521532153611328 6.378783782155144 2.0296078198295624 -0.4387991207930701 0.1169481699529857 0.19335698503102827
Ni 8.28878640666433 0.7881605646348976 1.7814887349927018 0.6233189671484427 -0.019733988093817625 3.4948149094006458
Ni 4.714252460068164 0.4188009166007831 12.901106165472136 2.591302261941589 -1.281406448126322 0.37114542619983826
Ni 4.907238790053531 7.197242951416408 6.450593228617921 -0.6008706654472554 -1.4199184602930126 -0.08873905450862135
Ni 8.371523839035753 3.1613912921021234 5.523196593883257 0.3816152153829105 0.40096148112000624 0.9767723753851566
Ni 6.402843624452109 0.3778908786514198 10.637724722587992 -0.13113885963107094 -0.18754526344525765 -0.0581246720568741
Ni 0.17233196594217212 7.864255242237624 7.102842909643115 -0.5375803900290419 -1.081817623252969 0.8415282353364604
Ni 3.3138164380080255 0.538422724010201 2.2788611411905113 0.1151550826083049 1.3072005263712907 -0.2107826367066434
Ni 4.2438073273148715 6.823913936994903 13.05066111154898 0.344028258268072 0.5047003514715694 0.9853038098949352
Ni 4.623070549099993 0.44431708537049974 6.5434031243122845 -0.6349665786897 -0.4138000276455712 -1.083802514893482
Ni 7.684844680575554 4.151933245969918 8.273969346132002 0.07672120411213884 0.3203656245438095 0.07856082842403889
Ni 7.045325397120147 3.652343125884897 0.36959867753756337 -0.6116268755224951 0.9286114994092137 -1.1216211284031523
Ni 0.34830474806622114 8.17442140254312 0.6564682287482256 0.7112859193777298 0.06652035231973705 -0.5013023815336141
Ni 5.7583130274687955 8.117460395003082 8.42129458070177 -1.3301933877220382 -0.13884779823955443 1.9913229979603513
Ni 4.9858232001642575 8.102168044145365 4.286573304767849 -0.44573338601905815 -1.479713320963458 0.21284260455946571
Ni 3.366901291438078 7.222502555699797 8.463721856117042 0.40399229752653004 0.16869856305239977 -0.7866377539461679
Ni 6.0737119958227686 1.4751811938143107 1.0769940339279511 -0.3656178115133897 -0.06715078681488434 -0.007898428911470268
Ni 0.14531886337093355 7.8467387172358425 4.857601867993693 -0.010213707308208217 0.2507969723160519 0.1466806640204119
P 9.042283078829952 3.0728765443191546 0.1675033853937362 0.24743936869772867 0.09828453210521138 1.4595515013036024
Ni 7.549557673198789 1.2421412713591191 4.282722991685265 0.15868051669476543 -0.8463397977924908 -0.5076414363777644
P 1.6360139025635332 6.33739199362354 0.7670207584341189 0.1003666114452207 0.10956267612219195 0.0717196371324894
Ni 1.7935057356274846 7.288147994233866 12.148685587518951 -1.4050196888043094 -1.1928730818706037 0.9449279771810501
P 0.6382715309895268 1.9509975686914363 4.312858244102712 0.17419223917711937 -0.7850279862568867 -0.34274759178343556
P 6.670962741602646 1.9038284647482862 6.24931838909404 -0.5547468745059995 0.07196929124945024 -0.2866263233098354
P 1.3974550749707946 0.8161445515213033 7.781526115910722 -0.12494995721153966 -0.6809978099171498 1.3692543582792418
Ni 8.975484023001245 5.167051862682677 1.1605546876008273 0.5811865567547668 -0.5555652566422368 1.1323223168707404
Ni 2.478025322512123 6.249080282484427 10.311789075311715 -0.34287794671371274 -0.7290116187922671 0.8304938318991697
Ni 4.897502260086789 8.263702152209726 1.6632577285936991 1.3485441223150838 -0.08497727347334397 -0.2900672306705843
Ni 0.15212797409080367 5.99360481088312 10.494099369405587 0.8931765556403714 1.7224449997728721 0.7229525570823807
Ni 3.6175407993402637 8.558160659431435 11.4417304514882 -0.5901283393290869 -0.17694717621443717 -2.384002184466907
Ni 4.71337571092424 6.024660188454769 10.260649682087339 0.8756066650774081 0.4663968279056806 0.7522299658902594
Ni 1.6525613890378177 1.5996703433132642 10.08809160715542 0.5187959103326872 -1.3804232304118678 -0.5337419901195583
Ni 0.08086949524794504 7.053760646778538 2.799507084137262 -0.5812811733511022 -0.498163064573684 -1.5379737472672481
Ni 7.41582112746602 7.750360913972623 1.1934890770219826 -1.4244281752379082 -0.3997736314594922 0.10789762971494321
Ni 6.4700302956918145 5.830714048880263 2.6436035513645675 0.2462209229095953 0.686418980932721 -1.0802687907086106
Ni 2.374642755035862 8.447625664728418 6.549225661521781 0.5314881610883749 -0.4995517173910945 -0.009562703987770628
Ni 1.0489519047298956 4.598226247042674 12.26655205085285 0.5941731988224218 2.5031049388690505 0.9285641911110459
Ni 1.5570511059801655 1.4007867217177083 0.8559637289568571 -1.561423493649756 -0.7384331692164832 1.022841401829077
Ni 4.30999727321201 1.8891821395755646 11.008734504800355 -1.5008292770064668 -0.3260814439816642 -0.46961070685728795
Ni 1.846858228269893 5.43451572520986 3.4936976755263074 -0.3256281584943295 1.4573601500792386 0.3549310212235049
Ni 8.051150472907302 0.08026592267939053 8.518981047424028 -0.26785007114359677 -0.8342088188569117 0.8360332736601602
Ni 4.646687402355818 5.604457396117542 4.339347142975266 -0.838398431458227 -0.019067301044096197 0.481883353577054
Ni 0.993790540169495 3.2682900850924397 2.5108249694332647 -2.2377601506458107 -1.1827257090239565 1.0654204128418683
Ni 1.2019123290605098 2.387157195448093 12.336992845757269 2.1574350312324975 -0.9580300617806468 -0.8410978326672611
Ni 1.1756467704961966 5.948779857282674 8.433492468528353 -1.92706161687812 1.3841981240732677 -0.6044591541294623
Ni 5.472049817508195 5.372617235648774 8.206539953813506 -0.7913865814850629 0.6068004006681291 -0.29019527160801634
Ni 3.097933111958687 4.859718986452811 8.383285198078045 0.6258414764599802 -0.6433596878494017 -0.6081674562189848
Ni 6.466375636102402 4.785426032678138 6.17151567006216 -0.8604741803113439 -0.48451667743484295 0.8428626378771678
Ni 6.234092486592493 2.446323919255476 12.035573873226635 0.6198225239594098 -0.9968143816376961 0.2142554257465923
Ni 8.87670669576518 2.1810565440572836 8.03177985418958 1.0236582413034176 0.13078044785038767 0.09271243733407258
P 3.379148092637953 4.061360444933316 10.34253159187306 0.31606391184466215 -0.721109590336371 1.4578897973304634
Ni 5.932684588787888 1.2441162641675392 8.186061862492933 0.37837639673063866 1.2810858315621096 1.6764212247445902
P 7.0774697894179335 8.27429697344368 3.4930488811598033 0.6036492566336572 0.31605979807960405 -1.1741963313967068
Ni 8.211835518642811 6.073979635035124 12.713648892456508 -0.40483613358406406 -0.001124086302114193 -0.5577596931903942
P 7.49806019716616 2.242152115981301 9.679598491805683 -1.1985030264628713 0.4163343640316507 0.21962003249261533
P 5.388509467499705 2.7548104127799795 2.713693646611417 -1.0297985498732005 1.564380776505867 -0.7913343880908887
P 3.773436026068437 5.036637734758464 6.352110304515446 0.44649777498890847 0.00606806057095084 -0.9908553358407838
Ni 5.6695675562269 3.6259483621835837 9.760683944211184 -0.008356599494811413 -0.8873578920760653 0.0683923725314693
