# total energy = -381176.6715177942 ev
CRYSTAL
PRIMVEC
9.17159556899895 0.00000000000000 0.00000000000000

0.00000000000000 9.17159556899895 0.00000000000000

0.00000000000000 0.00000000000000 13.42355719431919

PRIMCOORD
 96 1
Ni 0.6589553017672791 5.862098736585744 8.754038586680378 0.9611187280082997 1.1011217228982197 1.1276025427975678
Ni 8.43588693927289 -0.016043872281829286 2.487586209431297 0.3517927327048393 -0.705909742667481 0.4649181864776252
Ni 0.5802015613440336 8.057971340248837 4.072479211046439 0.45440057477575296 -0.2879753811385621 1.438394407610013
Ni 2.478880530834194 4.7914341744386535 10.419311452628655 -0.2333373820787078 0.6253467962117488 -0.772356047216173
Ni 7.067668299243568 0.3613030878115236 12.1810053037132 0.2724803708267565 0.4824888483715368 0.17489029368540848
Ni 8.44950675882272 3.8321402983478445 9.514161174336136 0.7567237399955548 -0.42199978984754416 0.2186062465161203
Ni 1.9416359720662786 8.44609492523852 2.273158888781307 -0.8090606017260582 0.1812218923303911 -0.9740927716704643
Ni 5.839133061061991 7.375577108621933 9.031866396624716 -0.03210613650592535 -0.22354327880642144 -0.050499808521764646
Ni 8.581513535106014 7.269434232089828 12.42500551739785 -0.4330575903236025 0.19030251447542065 0.12312550240829118
Ni 8.35753399757983 3.4871598993261066 0.9148611637735677 0.5967332462401143 0.029163251827517517 0.27932439033178347
Ni 1.123116917706332 2.6754553405389028 6.227094308808555 -0.005519901376964687 -0.3531191648257467 -1.094427855817812
Ni 8.016268094798956 3.1384925188504744 5.480194410610701 -0.0455648331139925 -0.4010306437950448 -0.39267018764549144
Ni 4.877656345204947 4.322215340654633 11.658144558413294 0.10725742502778302 -1.6057194873536542 -0.3284422309043569
Ni 3.6080598732694398 7.846437658028457 3.755468510138613 0.24462143963295935 0.01909198363444454 -1.78582732068426
Ni 5.6142363639701625 2.5082571517218053 13.219747210018447 1.1206502798494506 1.0139705817020086 -2.0817638656514275
Ni 4.872960488228844 0.3527707523723275 7.574644758026064 -1.0477155393629374 -0.9944757062021904 0.318517001370845
Ni 7.958945621946139 7.536566127179612 5.493751863310067 -0.20237075849386438 2.042926066848624 0.4223381470235694
Ni 8.468400245875007 1.2553162974984131 10.309238547357761 0.011934803764372994 0.7751328386303619 0.6523657480027539
Ni 6.341498041548425 4.223446427030315 8.115023251029788 -0.2116213305578549 0.7074539472261494 -0.3640766922785149
Ni 4.632875628729933 0.7125935446449 0.6316698046893381 -0.6054174042776734 -1.4785069593601827 -0.6084289374104876
Ni -0.11081855599776302 5.398896469552356 10.950267048254942 0.22084490603865192 0.4244665062204818 1.4012959600958188
Ni 6.241802796762804 2.9068363557598422 10.359670400393886 0.30273505594623995 -0.6715063254869467 -0.1559582326675959
Ni 4.645715862648964 5.281307441641001 9.369025258870632 0.6268758312617655 -0.23492503828080186 1.134489242615072
Ni 5.781159404917566 6.920317443427031 4.8350313543915915 -0.2601017946567456 0.5753005302876351 0.7275309204816826
P 3.006522428949805 0.1463630749643379 12.644064493854346 0.7362600728245642 -0.7124470295653665 -1.4359351474362432
Ni 7.1906869117835415 4.590401969244909 12.394976796059064 0.1406293156200094 0.13128207007715453 0.6151084063131922
P 5.625022160462149 6.1839391997662565 13.425301929030386 -0.9657300015280659 -0.9962739357531939 -0.18677496093813642
Ni 7.188834249460939 0.2640062152900659 8.675269254544517 0.1854577847886096 -0.2705546145589534 -2.168316968252324
P 0.2769638456334995 1.348527224154922 4.593984394508319 0.07313451520214502 -0.01036051729871764 0.18021067745705738
P 2.236530287208139 4.422864431388524 12.484055918872341 0.8864487499982346 -0.9760275267993319 0.0912034568887139
P 7.3743114284213425 5.7432898864520805 9.485273399497014 0.6551847055087877 0.01854279599919387 -1.636403546701072
Ni 3.5719513011699937 7.506749269700491 9.915082803904832 0.4545777237835655 -1.245907483888764 -1.113740440103495
Ni 1.4941079620097646 7.066466820212573 10.915513120833952 -0.03062903773976661 0.8195003090021434 0.2678094477136484
Ni 5.935801679280982 8.55840111405176 2.765535084438299 -0.9218986061654124 1.1173230152484306 0.3777320782784204
Ni 5.712665928555192 0.2091398957540463 10.26816263905078 -0.8122086604367367 1.4816619600493965 -0.2221245440820239
Ni 3.912400931937445 2.860950862690619 1.61822349739025 -0.046707174248551815 -1.5492979140308156 1.1354824597662767
Ni 8.188859181862046 7.827039733215064 10.254658381606223 0.4535824497498317 0.4958945802544814 -0.8462377249969877
Ni 2.2590098681621003 0.1653033371544743 5.604939117453219 -0.8925242667683533 0.5370461147921267 0.6870018500193845
Ni 0.7660777047154924 2.6048707403668576 12.872466574806069 0.7130334981964559 0.8727463128104775 -1.37502108555969
Ni 5.162076698107141 6.019373258902561 6.9737658342745625 1.0595184455351365 -0.001599483276635955 0.3135851112868664
Ni 1.667377747151432 3.652954834007766 1.4439585941198576 0.007165407400187659 -0.11411892803430668 0.29798854240019
Ni 2.309545360229144 6.205382390411039 1.972551586705043 -0.9748903278710952 -1.1099033257455917 1.1744876373848805
Ni 7.306221502267852 0.7658043911649303 4.4683399541319035 -0.06601513054854437 -0.01863612704394855 1.1862023547186473
Ni 1.1848967860481843 3.756016054399303 3.831794529191596 1.2066498239397219 -0.8505376379239223 1.7326697628246743
Ni 0.9481687305595342 9.02904154516253 8.869360396145458 0.047638942034201825 -0.32541604248352346 0.8187048096840415
Ni 6.700235834054839 7.894542677246541 0.6052739523900729 -0.049185974806347545 1.522505733538636 -0.18972838713950552
Ni 3.5991450822913698 3.8165118993492526 7.064509601699487 2.0008720751013667 -1.0947466726098114 -0.8204963543668257
Ni 3.511886521215897 7.309211442451855 5.839555871621753 -0.8154184256232859 0.20892964265830472 2.4114535958096406
Ni 0.042489251197639355 5.150878179810614 2.606989378963498 0.3801918526728226 1.0957208635976226 -0.6314703926109834
Ni 6.782991141662993 1.1945086182961446 1.324756282532533 0.7807563554647263 0.26315935053614675 -0.7581491595881718
Ni 4.928356925993807 8.178440249196317 11.896252021888676 -0.7338085259602781 0.30473151755097844 1.5104338899757663
Ni 1.5548239252554688 7.846134995371794 13.364077859385315 0.4514309506244677 -1.2281750996060072 0.05581273609424581
Ni 5.223755678896772 6.281176456915947 2.594907636005255 -0.3339873290923022 -1.318542176636355 -1.0382135134097732
Ni 8.633782458752128 5.541899989027735 4.862589247860529 1.5843983572783744 -1.1323865944497722 -0.8542783359132772
Ni 8.350930448707187 2.6040544683534335 2.9782179675944325 1.018961864269013 -1.5931938440828175 0.3690965140906095
Ni 8.577404660251924 5.035829683896097 7.123425180717828 0.744151559757499 -1.2618583507910655 0.967987944324307
P 6.414604830525993 8.939049848581433 6.23690699900139 0.8161149374696782 -0.7168469584052751 -0.32687205820375964
Ni 3.7815772914938317 7.579269076556047 0.7244790154560944 1.307657411403051 -0.1499855600239288 0.13649189641286816
P 7.716219342898169 2.5941216302574976 12.482552694344248 0.11677899136497308 -2.608203665682618 -1.0693945669982678
Ni 5.8709034684159365 2.142759893216587 3.0818203121297 -1.2326256791781933 0.15189331856960292 1.6620474725214214
P 6.862857396639366 5.004416968772753 6.025432014993212 -1.9307863740278748 -0.08615278183868388 -1.4986505241875931
P 4.705037743354888 4.132574257266201 3.224767884871576 0.03854674992494652 -0.3707422772241486 -0.44088248568466004
P 5.598121870401779 2.200751892552325 8.228936303402039 -0.8304570651239632 0.43927528909854024 1.2458439776406802
Ni 7.779906903136564 2.4378743266542027 7.88648726478148 -2.3361220729561767 0.01837927383813609 -2.527436059415247
Ni 4.55993392847418 0.5914844583205993 5.078480355177289 0.500048711632171 -0.5259844576613264 -0.9398749881381749
Ni 1.0154698994865698 7.506978559591902 7.012533251954815 0.8365356672178754 -0.7789912931445035 -0.9691788793086147
Ni 6.470294759351962 6.389199510557625 11.215650837212607 -1.346344543560604 1.1309593750849425 0.8608117661564209
Ni 3.7217693162181162 2.8232005749686673 9.573143706002773 1.8031262169740234 0.09391931315798019 -0.1822243654529765
Ni 6.943695840755323 4.2918573590317814 3.5250936189611863 -0.43813269085366485 1.8861072859529453 1.555425109974476
Ni 6.212490377044788 3.9609095013644127 1.4002917100399301 -2.458410424175153 0.05597497270372296 0.03684879339723331
Ni 2.5983038778768393 1.6626818901753293 7.746735075966312 0.7217708780694537 -2.167027817127255 0.2344126174207576
Ni 1.7248653087260655 3.7113412119567317 8.248198488599716 -1.732550206527674 1.1922830136950884 1.8416318292483895
Ni 0.6233878538115631 5.305786430448067 0.04322022737145848 -0.7077586229507616 0.988124310062866 0.15174779413067413
Ni 1.690572712566596 5.1019477169834495 6.216409399868789 -0.5527966927581641 -0.03375087119819994 -1.0008001057583218
Ni 7.873530551597613 7.309670022234677 7.707712687926811 -0.037446317771916156 -0.15454952524552737 1.4601400268172209
Ni 2.0871433371558696 1.186437614118468 0.8914314055095987 -0.0003810374885025696 0.19924635393226975 0.1732105919901404
Ni 7.530687134363828 6.979951158385274 3.2928257104402685 1.0909519814540696 -0.23533101546996893 -0.943993895402555
Ni 3.0165836693849317 0.42530798525963076 10.261987403695294 -0.019538070032927644 1.5907132437528086 0.8599810427250093
Ni 5.5569689206912845 2.5291775614141696 5.9685965538697525 0.7637888743724524 0.5408215226741588 0.6485170636806251
Ni 1.6561241992809672 2.549685249301994 10.549976424467411 -1.199987581428198 -0.4904297004851683 -0.21065948086521785
Ni 3.4610300233008777 2.8521094444778003 4.697130910739461 0.29745863803864897 0.28631316294479076 0.039487516571661024
Ni 8.953678543653472 0.43338265807557 6.791285932774688 -0.40463018822084507 0.4357083976828883 -0.9903747966599394
Ni 0.9139953651435987 0.36539361947430066 11.892453146967773 0.14260006619313506 -0.17537983172731733 -1.332909758211937
Ni 3.7536406111242826 4.877527942865756 0.6864178106413895 0.6550222117889944 0.8301608740397831 -0.5458595993186985
Ni 7.530256069367974 5.776362660389242 1.2370877511312173 -0.1430975746548439 0.37580040847334634 -1.1524286007023121
Ni 8.856633890012567 0.7966796507828061 0.44955584985615527 0.07775504469329189 -0.16510313239165758 -0.8225213552166544
Ni 3.424160208761946 2.2994841197940175 12.421824808024192 -0.8075611343623963 0.8421609838244528 -0.4544100878574497
Ni 4.085744089844364 5.1952687027878355 4.959601800916637 -0.9158721974656743 -0.10908907891988309 -0.2749056924387975
P 4.143460941310408 0.6495534990598515 2.6727506369798153 -0.25128342503416723 0.014199945649465867 1.1326712155697267
Ni 3.7918678218203694 6.127616430839993 12.031681637670959 -1.5832393039732668 1.871310330149429 -0.006316429136331058
P 2.928096114491495 8.39485322030593 7.820873669455231 -0.6059362528956209 -0.14712880730142402 0.2312666155926082
Ni 3.079216496122833 5.8325111689980345 7.868647594070119 -1.6467152130397253 2.087178608909096 1.1846846325225404
P 1.7373845367971206 6.187479435689647 4.37460349504428 0.5794045251536796 -0.16918295888798604 -1.1682357429378978
P 8.969224398291157 7.426552837280485 1.084890624169811 -0.2281913191013941 0.40898640830701183 1.7717962965124907
P 0.39343577319389883 1.9630791627110606 8.491326483537437 3.432680601963746 -0.9775020544623294 0.9610097132342611
Ni 2.2397403456878973 1.2683399633305732 3.4648885135935465 -0.8497153991329431 0.7735282131474034 -0.12103056755247542
