# total energy = -340856.1718485628 ev
CRYSTAL
PRIMVEC
9.38782449788202 0.00000000000000 0.00000000000000
0.00000000000000 9.38782449788202 0.00000000000000
0.00000000000000 0.00000000000000 13.74003008849496
PRIMCOORD
 96 1
Ni 1.9926314315907672 0.4726872822812434 3.0560165808404722 -0.08433578323460314 -0.30223343371947303 -0.844062828832856
Ni 8.336322301891482 1.107312656915881 11.076813167778342 -1.3405497912556976 -0.7341869923456195 0.43705462729813754
Ni 3.5420167368226485 6.2925084519822 12.021440461523119 0.4985327892082769 -1.384236947731003 0.710502504244486
Ni 4.1228226532807986 6.3047407871012435 7.184386499525601 1.5446287906899203 0.9335780993858697 0.04608959526921095
Ni 6.072345195488107 7.244039551748884 2.717915025906603 -0.7780713524333954 1.2379689457679777 -0.13958827595000475
Ni -0.07450177398674404 3.882391084029979 3.4680932528154385 -0.1748931218988859 2.8609256229355244 -0.2927285795528314
Ni 0.8600796089284949 4.706454304866218 1.1962716803909803 0.5494095214534861 1.4874135178211931 0.896436971559198
Ni 3.1699021555113376 5.046481302572855 9.331280538286855 1.1527777565116146 -0.11081866001648012 -0.05559110700174297
Ni 1.916496176168326 3.054084566590665 8.981280854780556 0.9459448484813388 0.9450621887660693 0.462306716996707
Ni 5.644326120213709 1.6089792141618018 7.894622350201902 0.3439231001487754 -0.5270103278226794 -0.5775589873045085
Ni 1.7276600895071168 7.4634611701198725 2.2746623280706766 -1.0990154751884944 -0.7979344099059097 0.35951272705691634
Ni 6.519130531624337 7.748766539730651 8.15463879859727 -0.4636969124760143 -0.510405629386463 0.07749382061210525
Ni 0.7380951581968475 8.648420522177432 10.660751364369736 -0.5474606252572313 0.008279723510288967 0.6853555726652133
Ni 7.235712551556564 3.739667990542017 5.134058438304651 6.230321863018328 -0.4576535344954118 -0.5090820254790329
Ni 1.4495176298701142 3.6441187143780702 5.441628910909931 -0.5862228336270937 -1.1665185031364746 -0.49497772486716685
Ni 0.2639752939208489 3.490261661219206 13.265298084726776 -0.6774134350000011 -1.0434487936667836 -2.6635237784111614
Ni 9.381703481616013 9.08556456271331 1.690215813332277 -0.15428598717149555 -0.03265840946496956 0.5577872039942201
Ni 7.423318833228829 6.62360762873856 5.126913365197128 1.3726088765737716 1.2349705252612861 -0.9088268605831187
Ni 5.156638033414645 5.8353871212442305 4.948046209205843 0.14146209593394993 2.713680087550578 -0.175579092222317
Ni 6.693312224485987 2.688212888467508 10.025550516102866 -0.638019763693727 -0.8759421940399559 0.8991757106465998
Ni 1.2727542853141158 1.5716813880467146 10.758498330212397 0.06791774688789594 -0.046756282318932384 0.7582982835715263
Ni 9.170346004355736 5.802961575963206 11.790978761724658 0.33711019099200007 -0.824975730294418 -0.4046718400920579
Ni 2.1850067280293204 6.8874336562523535 10.230056759157558 -0.2100110486479415 0.9730064805848211 -0.4761657343669864
Ni 7.513000719178346 3.6487562996035554 7.759283719342212 0.7456605402028577 -1.3727258617676101 -0.7154822168472645
P 7.340659039887942 5.367760815066346 13.149318086444968 1.3574781915799201 2.3999625644509055 -0.4480448077610542
P 1.5669499245777982 1.0193675184698354 5.697990679288536 -0.5039303060747643 0.23252697036227052 0.8766119664134708
P 0.5885837289263984 5.701620012179574 9.332860509123796 0.17263440777169622 0.6393947896643827 -0.07661990264758418
P 4.355969270841382 5.628226001465313 2.5041476941374556 1.8426294172749687 0.9725220847492347 0.8309013517502335
P 2.9404731163906175 4.552944601208048 7.2021247936218655 -1.9018807467371182 -1.6544622039749959 0.6028061919070715
P 6.855242806579906 1.3303391998346157 13.12836540129363 0.45522101379451924 -0.3893053849383166 -0.45793532740188875
P 0.29973351684367 5.98041023169625 3.047153535878163 0.028903056187595384 0.3737327273110402 -0.24980915448148594
P 7.65949771805223 9.212234476574594 9.474753718939828 -0.42022341467341173 1.939638425101866 -1.234140830271139
Ni 3.4791746406700192 4.445360134236263 5.158020859940383 1.373217713802364 -1.9174832291610655 0.09801276650106346
Ni 8.74698328995551 2.4606332507423754 9.249857121411951 1.8714522550439319 -1.1168424760675861 -0.7848456950427515
Ni 3.6087078409559434 9.311351125988914 7.4815834262317695 0.6209700073002917 0.537650581145345 2.0404192412663695
Ni 7.687802008446639 8.88276878125393 6.398099883845947 0.7507089012600426 -0.4673797606442402 0.4704010639690673
Ni 4.855936631881204 0.7298254237330215 -0.008449041908778935 -0.053672292712475304 -0.33328721770148406 0.4912177436041025
Ni 8.14182535715139 6.233881488959618 1.1673308955061095 0.2409555607455979 -0.22777711438211096 0.9721212497663905
Ni 2.922795843152583 9.195561700541269 1.101282857340316 0.011366332855412683 -0.14530152428469817 -1.1526309465211053
Ni 2.990172258462924 8.053805116110599 5.801796546962228 -0.5331290391259077 1.2727675415044015 0.1462083523696837
Ni 2.551375960842661 2.4031422144653067 0.49095598845289207 -0.8790300889366605 -3.3813546979962603 -2.638208182464508
Ni 3.5932930333845934 1.5316423172234452 11.76307345386483 -0.12975792012314427 1.5072984296705783 -0.6853918252197874
Ni 7.098847460458689 8.379515681694027 0.8935997745279237 -0.6185050906995672 0.5741556180499143 -0.5109219069012491
Ni 1.3239930305786884 0.8961767323101013 8.306644572795678 0.44778641189334495 -2.6367285125951883 0.09155055581548749
Ni 5.316850643653781 3.8574757982234247 8.563033565864878 0.4307693085100581 2.5960279495520324 -2.834292336618712
Ni 2.378583665983789 4.975697107025974 3.0560024991039576 -0.9006705500245715 -0.8729124060746966 0.6169886540550407
Ni 2.2758996433190957 6.307294275322563 4.871760748593912 -2.6831598074745338 -0.2244033128138716 -0.09306287869495584
Ni 5.021650507185388 0.486142850912191 3.079608183414652 0.7528843116448066 0.10111274558262585 -1.1566508663137758
Ni 3.4112255680747503 4.198873418284152 1.1867665082436039 1.2322107031279619 1.5126833481315756 -0.3451911682279216
Ni 5.515675375416036 4.926504907468194 0.30087225993648653 -0.7135662307714743 -0.11573666614338776 0.37596804439946213
Ni 0.41752630400612867 2.266202020772686 1.62989716436307 1.2135270106755296 -0.618357252267793 -0.20073682243486718
Ni 6.970384472147877 0.9422653171400561 4.766842423735564 -0.1901819297371563 1.0868767829434314 -1.5475037982448703
Ni 3.580215794074672 6.795705224596044 0.8342452551187518 0.23005614022427479 0.09896407467073924 -0.6905216902471849
Ni 9.077782056332891 0.7842447638850324 13.202629663324494 0.8290370448479851 -0.48597063627255016 1.0323673390416412
Ni 2.1211882981450105 3.6016388092255984 11.719929829531303 0.8162956860219168 1.266337983828974 0.04252887450114611
Ni 0.4502137695863257 2.5268643514828595 7.2909411221669504 -0.7689742752281337 1.934228052719572 -3.0500917098136564
P 1.7251817038805415 5.633032567528975 13.036375049338147 -0.4667213011246349 -0.12360629869945164 0.3272350979701332
P 5.6348162541541615 4.038604481098959 6.061359563441825 -4.439504288208329 -0.17499288070154378 3.126053924272584
P 7.357848146260136 2.8895253936806804 3.1425094228606425 -0.6340569223912371 -0.5478236650236049 -0.1054532819395087
P 5.067585131696116 7.959842382260636 13.179793780609934 0.6638750341939341 -0.5527033617134094 0.36780247786953435
P 4.109229083632008 2.8588178202544405 9.763142988847312 -1.6078280490562247 -1.1270831799589878 1.6712090844160314
P 8.125068090698978 1.724571495298241 6.423449825919587 -1.119845010339336 0.3133115459105056 0.5918705188311743
P 5.441258091848379 7.916536348565972 6.132010451883035 0.9141788689236514 -0.8362518174288694 -0.09550079871248715
P 6.884185469029646 5.41739424236825 9.450365090078924 -0.3940873797079923 0.18446431052708878 -0.33994534644795005
Ni 7.49400915053228 1.3169333866726864 1.3975532057838207 -0.49775117384724593 -3.5250742225058196 1.8594084365055203
Ni 5.392328751372206 4.33830138542769 10.986596175841267 -1.308507160997856 1.2514978334923479 0.6719886644400039
Ni 3.1938504954105547 1.6556836402686632 4.511813726413678 -0.19859689327372892 2.5507942745252135 -1.469106234871573
Ni 6.784561877100798 5.656849477887389 7.056879191732916 -0.9140189463070194 0.36251757532151113 0.7799559710506181
Ni 7.6504947945072095 7.708267465514571 12.394262884789898 0.9350513414972863 0.3364131649249754 1.2451608355307267
Ni 3.643151768470732 7.97554821238662 3.539884761914333 0.4490133423219106 -0.46950734851020437 -0.5496936283528081
Ni 3.5272027500092564 8.635315119394482 11.733257723751185 -0.7004505193251227 -0.23741592302345563 -0.7636379506168849
Ni 0.4899083072562035 7.474191453344022 13.529890158706966 0.5953723613368457 0.4821605184978405 0.04213986659284355
Ni 3.4355306452990044 2.242657357320222 6.71412033714244 -0.07675360001197104 0.7891183542761765 1.1195688738598137
Ni 9.213304688549705 4.9955429676872605 6.345682027843884 -0.5223255207525004 1.0099159520166607 0.028440000508247798
Ni 4.620574487775652 0.2843318522264003 5.309037157453028 1.632012359611912 -0.42429578497057246 1.0646403401427342
Ni 1.758414602055072 6.542816012441947 7.413212840323496 0.8692629822475674 -1.649255720073392 -0.697275978251883
Ni 0.2207650160344848 8.99556349073613 4.225279490596389 -0.9564218367532625 -2.158735752321792 1.1093068298121733
Ni 7.950013330173422 7.362711039269855 10.150983114715729 1.0866446123279674 -2.81578862138757 -0.3288746904560852
Ni 7.855149365186521 3.3110105432122894 1.1046953314890282 -0.40988552308251347 4.926425461319607 -0.5397974522850187
Ni 6.575138291655198 5.220494014596329 3.3308169750113357 0.7942939849398449 -2.3960781417948347 -1.7378235391114716
Ni 0.30145993774036384 7.92498539047475 8.145845223535101 -2.26211698222362 1.2292523918305862 0.9906306214244874
Ni 5.266588232120889 9.197767839261896 9.499513166862288 -1.012711512483927 0.7102855031376735 -0.9055361056469888
Ni 9.442461480764475 1.7941258858561777 3.895504935854839 -0.5172517057740188 -0.8730656438231091 1.6598553499661088
Ni 6.997947124419182 3.4222468738535357 12.594207583996283 0.06259864866782767 -1.2499950236945763 -1.2342200202485065
Ni 5.8404659342138405 6.886541812939761 11.32923204993285 -1.301494734235765 -0.33515692392037116 -1.3435646668226215
Ni 5.797432147425127 0.24637593962486237 11.555915150433217 1.4341880828381495 -0.05456575106102215 1.3701313615675563
Ni 5.252947723350382 2.4364126639372095 1.6293338949024847 -0.16581481374670154 0.93737818985825 -0.35079334490604747
Ni 5.3316270791698015 3.0180634845862375 4.037837495850129 -1.041969895128412 -0.9418593655580553 -0.17803655262387402
P 8.784337443016655 3.3291290441944486 11.128366405158408 0.4844840244246946 0.467169444405647 1.011160365946723
P 0.2703993821188238 7.617430877170854 5.938990211912111 -0.22857132814863215 -1.2410180170069465 0.8045174624400661
P 2.9147786411635863 0.3958056948235266 9.578106154697752 0.5418715612052281 -0.5040871433676029 1.1882443248493408
P 4.45730144680067 7.260505795646659 9.171373971121303 -0.8602574363148474 -1.1755957828473946 1.0906164524915216
P 2.54951717162273 2.5946913823616677 2.5869182638055914 -0.19644770814121007 0.5718629653609958 0.4612245396761218
P 7.451247610649515 8.883745114985611 3.121075142320504 0.23417016239264832 0.11136064856287918 -0.6392536361008282
P 1.778326177486761 9.399653001759997 12.86722241397709 -0.4060427522976555 0.253298398581667 0.19861129145143214
P 4.153840024910361 3.468284764432038 12.834918910412526 -0.015327888606321989 0.2607725954715251 0.3350612788827713
