# total energy = -381163.21385660593 ev
CRYSTAL
PRIMVEC
9.25811758606726 0.00000000000000 0.00000000000000
0.00000000000000 9.25811758606726 0.00000000000000
0.00000000000000 0.00000000000000 13.55019091207608
PRIMCOORD
 96 1
Ni 0.6043143758952393 0.11024566578056362 10.016870458336918 2.930916193192049 0.5289695084315793 -0.8367385272573009
Ni 0.4999559471712645 8.12225777101762 12.190022875306369 1.595406792573736 -1.0380178524591994 1.3006735238860503
Ni 6.761073755477383 1.667831390580868 10.33749481369573 0.772169899347296 -0.47556949554388417 2.2625219309715225
Ni 3.530870193236239 0.4276593059149309 11.647554577387897 0.5352815666925362 -0.247554039898722 1.7468074877776367
Ni 6.4354009485271915 1.2772499203129457 8.220535468024709 -2.586506126104526 -0.49003015105390435 -0.9804953327626985
Ni 6.951503978809632 3.488199528676059 0.11537188556077003 2.6283279472363184 -3.0912355310418183 -1.1697354674118758
Ni 8.168039163130896 4.224793890519627 10.027384902628738 0.5939268871395706 0.5156625069100281 -0.6003057940827209
Ni 0.5099686014827929 6.55080338587643 10.252346053423897 -1.4869478910386842 -0.5718002304438604 0.10544993950539905
Ni 4.804009509282594 5.502303038128664 4.347646335196176 1.7768731968147657 -2.472484385769716 -0.012811292832055355
Ni 5.948886862470035 2.8753954588338284 6.187762964194669 -0.007244597377555265 -0.13855906335454202 1.1765306359568382
Ni 4.765893838639448 7.556892296360107 11.190248926917832 -0.13521380103139294 -0.38378471223040356 1.8897579953316552
Ni 2.9792252490361313 0.4159700064847546 9.509849641535393 -0.23215955972052277 -1.8344165424468732 -3.09734138682924
Ni 6.564514658216118 6.583179023534695 7.644787014346965 0.9885968788239102 0.60396653076376 0.48093153118674603
Ni 3.5104282693158924 3.5878076171991604 2.550200370757862 0.16527539630346377 0.9571808264064741 -0.4555580854189638
Ni 5.088909565804703 7.434499980134119 0.11522468148906102 1.9761324062628416 -0.6273499426847067 0.5681153253931054
Ni 3.0488740686252456 5.410990223080486 9.913997031694837 -0.1169060038611406 0.8229916099848537 -0.1905179729203364
Ni 1.754237403238745 3.37348219203792 3.934853714712084 -1.5177409651601408 -0.3332455658302712 -0.3566477468042955
Ni 5.320547671097758 4.798899028302506 7.284799919888453 -0.6572791261439713 -0.22724669579993764 -0.3384631054754687
Ni 1.0952538422213838 2.268544358683981 5.821012814743487 -1.174312802369913 0.7387401589339406 0.8726264994031617
Ni 5.173797247156902 2.370791010756583 3.997970006439697 0.6556860706252385 -0.590432500833067 -1.2110921759817916
Ni 1.8650292979646437 2.2533240131563317 8.070778007449194 -0.22584518746672075 -3.157427296377543 0.43850627214299964
Ni 2.27462694202441 4.953768821481653 0.3329367261113803 1.9107659650418898 0.8165252855342195 0.41801817949197684
Ni 5.612178379200525 8.349840820750389 9.30903551337114 0.44218063567079324 1.0602632941209609 -1.000111307221413
Ni 5.247028958302708 8.805155050099408 2.4105379617415608 0.0381032346296247 1.42034500630747 -0.7466884672467399
P 0.14774289416017722 4.694569299743456 4.724667440443205 -0.32515867505707874 0.0545958329680092 -0.19039790240270435
Ni 1.8575394807311476 0.7868640894263107 13.412643420403379 0.04551778192614096 -0.7408906296180402 -0.5724715454792721
P 9.08733322001256 2.1481147634141142 11.126712316645841 1.0700270583759441 1.2975524617585654 -2.9473733103068076
Ni 8.83633639057211 2.203135757009503 13.121801503930147 0.9698067427006007 0.005338124383461774 1.211450844872791
P 2.4569748285892388 5.313881826341123 7.1256251019706465 1.0689790767274043 1.3238101099035136 0.4963560932719323
P 7.711336216124245 6.513650559475908 9.529199107565068 -0.05922536132022058 -0.3307019734728111 -1.565398419137104
P 2.1083604059349623 6.111542732649639 2.1880033636001706 0.1228820189389174 0.6247197041507112 0.6908343363915973
Ni 5.884885494688625 3.5426557770906775 9.414727111046444 -0.15031491833888952 0.03806878184726347 -1.6727270637224545
Ni 3.6261917732561146 2.9433778172337846 5.504968450219546 -1.458408645948411 0.7254580971130538 0.8884876348051343
Ni 4.964517496151726 4.012227507724721 0.40621750528108935 -2.5023300083762385 0.7902786931328647 -2.3794096800002182
Ni 8.465595066572895 5.668745478454745 12.67913016013621 0.8780453564258878 0.3171381187454474 -0.9175647546767487
Ni 8.10043638755736 3.3547437617776024 2.213410416052438 -0.5058871726908191 -0.8256151636506297 0.5538125356171882
Ni 4.130694382038468 6.753870939893131 8.215182424360423 -1.3520621627706713 -0.23978416614531606 0.30148524269953886
Ni 4.131240610983802 1.4132701858191634 7.308160002513371 0.8663506936967789 0.180327919761212 0.6682862758877524
Ni 4.078386016934321 4.088032975596005 11.409667242635496 0.06174735641112592 -0.7569875351799028 0.4403047588043191
Ni 1.3623783127258011 7.180309100081117 5.646269546071854 -1.8766618242693294 0.07875186138892244 0.4079654232416651
Ni 7.381830548438988 5.1268678484466506 5.653139995230045 -0.49732179961931133 -0.5575249514717688 1.4464288478787153
Ni 3.0216459444179367 8.023584752383993 4.052441993654435 1.2689859629747824 -6.273491713537582e-05 -0.862595854640037
Ni 6.504688701525322 4.26129864867992 11.556985189192437 0.34511274958150245 -0.4105370406235833 0.6686225761812484
Ni 9.416616692872596 4.212610207603333 0.648660759762295 -2.654416416793254 3.064266715762458 -1.8998752862713153
Ni 5.294115745014158 2.2019414598239395 1.5872968761794597 0.7486394203255236 -1.0081835427065864 0.9374316688040049
Ni 0.0005369708276177939 0.31999850660110674 1.083599723638534 -0.08481323709165393 -0.3443051660785425 0.6758897992666231
Ni 8.233679217748312 8.259944497712997 6.629160390990671 0.018915863067896454 1.6263883285569152 0.5391523625018521
Ni 3.5945197525443824 6.807716152538391 5.858073059966833 2.0510414968669064 -0.43057441889043263 2.4476724689323586
Ni 2.699130155609429 2.4306354836828143 10.563728955677053 -0.8100733592612888 0.1656111823763277 0.03675571946279477
Ni 5.493868892887978 7.560826996390064 4.141318072119353 1.1053673855484512 -0.24724602173999996 1.6668024707079037
Ni 9.128587392561954 5.570276138410902 2.4860268019869047 0.2043029425195707 0.17425086032919668 1.7858198644850924
Ni 3.1954300720940334 2.6431463177714147 13.389106507730057 0.5685837803890917 -0.37375818123233695 -0.15393863113440587
Ni 6.23437018040835 0.38037254386078184 5.295767393214969 1.6101235299586205 0.34426017177322 -0.06137146112894592
Ni 8.283284212478936 0.24685752500893268 11.514193243290157 -3.190366470307725 0.36118317278080375 1.2065269252086124
Ni 0.28703868171486346 1.3615358240135043 3.218861442225376 0.0858265088475167 0.7731021813535782 -0.668837520405532
Ni 4.242912026892869 0.38679952918030375 0.5868859692919549 -0.9260542802049987 0.37502882041464447 -1.7204328544388499
P 4.217581816817657 0.743030605280807 5.100752549988991 -2.3812233361701893 -0.6813094276202976 0.004952201798952761
Ni 2.946692223376667 7.471837968888992 13.250637470087547 -2.2121193101492547 0.6438358561548718 -0.42139300950148073
P 6.218446217934168 4.031965814698534 3.170324834279358 -0.9212229202546264 1.3485788322077612 -1.076786745697281
Ni 5.341100692430715 1.9575641845515377 12.358465069059442 0.13744346169286006 0.10182802648209559 0.35747641335317787
P 4.635743219766155 1.65815665756603 9.752004968555582 0.4611366079480058 0.7182266123616211 -0.19219124685770125
P 0.6908685184365971 0.1163847236390698 7.606440816572652 0.39904986591959013 0.41159530668476857 0.5320676877409288
P 6.013267813077865 9.130531597282639 12.13671648511227 -0.04830434353234262 0.27056155653748887 0.5433386326690578
Ni 3.7018120787730484 3.476960173766956 8.469113151305562 0.043733179221892425 1.1786122010762154 0.06508259143194597
Ni 5.2726646862625985 8.223180512256613 6.8791064240701765 -0.24158188147568715 1.5927217895424053 -0.6784375053891413
Ni 7.143980246157458 7.1967792915006354 11.39926111832097 -0.14887458634793715 0.08800243345291296 -0.48254695530298186
Ni 7.496631208136585 8.066135061413844 -0.09971733431216784 1.0249108827635962 -0.62264970899556 2.138261800738156
Ni 0.6210197235047832 7.2713163972446155 0.9843147434237757 0.3583061083433249 -0.4222769547683308 -1.1515243437204878
Ni 7.015384991060714 5.396445720146217 0.9895539122401361 0.08671019700405067 1.910136044767375 1.2559489272851658
Ni 3.1561756529716294 1.453681869656261 2.885540504228717 0.32324037498844327 -0.4623581390599328 1.030401216454206
Ni 2.403240713356589 8.89830097245566 1.9765396226254246 -0.011983654724437427 -1.0147395986575494 -2.0292148879101184
Ni 0.8263425549974796 4.024226028286663 7.420287843625911 -1.9798625627292354 0.9760555518237901 -2.578226145483921
Ni 2.593615387982532 5.547501168825733 4.383554870575458 -2.2218288241275346 -1.1362864437248108 -2.0198000223541217
Ni 1.445442144887643 3.6815460590893356 12.13235313423199 -0.9481027753646059 0.36378435784907676 -0.9692027905680146
Ni 8.89588460373138 6.156787153935297 7.451670085253085 -0.03190096247365474 -0.7125650432004695 0.5048515323374532
Ni 5.5346509014337775 5.796942634489635 9.840677368430716 0.5998388817486315 -0.07211378724711452 0.19183772017302445
Ni 8.65879346710269 2.1611224188072695 8.780307187957282 1.1963260734162107 0.10288603543296475 1.1091445932026964
Ni 2.8672760895955385 8.950155689791648 6.575148532226494 -0.9251963030800776 -0.44541354078579415 0.8480485529534814
Ni 4.492529396793402 5.452262911865316 1.8718914148168906 0.08236451844084525 3.4963187476396813 1.3448126802971099
Ni 7.23512641508672 1.164847113104193 3.129904818136315 -0.7836784142075277 -0.5914236611017427 -0.6682024579246943
Ni 7.524359270700642 3.124929505674904 4.534477002359841 1.7782207119815956 -0.9486619903021856 0.3024671469968339
Ni 0.7509388894351366 8.082966319424346 3.225677268489035 -1.6477799068588137 -0.7405368458230472 1.0215098275018473
Ni 1.2200532690539332 4.264687119764542 9.498047393069061 -0.00039620699715415636 -0.9991957373856791 1.7183271209497568
Ni 7.992227507674657 8.931046934822628 8.929969289920306 -0.8395572276530187 -1.4533913952394775 0.026592919997180005
Ni 1.570621154546612 7.280167157782592 8.414316204158938 1.1155396980957626 0.8956885234289477 -1.5930097530964695
Ni 7.1594505608634815 1.0259753473409707 0.5132172749898806 -1.759578157179744 0.09484182497224958 0.16236336486299136
Ni 1.722333929584074 0.5395908749318601 4.675479986821644 0.7377739383659293 -0.8622086465039475 0.09277671491310474
Ni 2.6480994107503033 7.626865150069335 10.61943412417177 -1.4546895452256108 0.18462449025403688 0.4195693260291806
P 1.5089157999591534 6.160092301960461 12.070957000776296 0.50144610620033 -0.8435414091117471 1.174660929737951
Ni 1.3832831425320247 2.784434452258918 1.3046150646624746 2.136080219705805 -3.2840826663159635 1.9452298031467141
P 8.363144735910506 -0.1492019735124628 4.537240550498529 0.5613353263567946 1.3458017836832563 -0.5086354248599176
Ni 8.0012726886847 7.07370187456355 4.733407103568571 0.5204303606123165 -1.0127022565125463 -1.8372398708282809
P 7.595554195948587 3.854515472406288 7.777349372885679 -0.48012883277979246 -0.03978910697247986 -0.49341295148320824
P 6.524991753679905 7.131546594062791 2.0133823020824075 -0.5278667622857038 1.04223369031276 0.42487891116755216
P 5.162141276950509 5.581126652375869 12.424671720481172 -0.194528122520994 1.947098995144969 0.37680622403004144
Ni 7.912857664482115 1.6044595748042507 6.7026291099500455 2.129868691578454 -0.20763766331975853 -2.6127059244283455
