# total energy = -381163.20630898443 ev
CRYSTAL
PRIMVEC
9.30730294711448 0.00000000000000 0.00000000000000
0.00000000000000 9.30730294711448 0.00000000000000
0.00000000000000 0.00000000000000 13.62217865970601
PRIMCOORD
 96 1
Ni 6.906540147413977 2.9797144893569887 5.2450432023968006 -0.09577796363327375 -0.22737705073021486 -1.027225904050018
Ni 9.313725190707565 8.110691107249862 3.0630418437423486 -0.3168961779379704 0.2575540885342274 0.6479133686583552
Ni 1.1345695614750249 4.459426773600312 8.13873401164543 -1.2333137063841533 -0.392123314003086 0.5666112300437531
Ni 6.461343915766698 7.304799649268074 2.0441574067893034 0.9090099231282023 0.9867878506396297 0.04228564814208847
Ni 0.1831788947859514 3.499527370370107 4.519525891510391 -0.6514332088861555 -0.7073894125368011 -1.2191862658438357
Ni 4.899382993573278 9.321915617480913 1.3519360421971873 -0.4181433922159315 -1.6977978906481535 -0.3344624689565079
Ni 8.575032461479843 6.168508236710015 1.6300028926130177 0.4744009291570797 -0.43087652351188377 -0.34379094544628536
Ni 5.046373232245438 2.176913056021509 6.844109550064438 1.369792490170899 1.0666023489651113 -0.24596818346884086
Ni 1.9812270072605278 3.893794039172197 12.270940205426037 0.0011197154267400071 0.20953616589405202 -0.20017889304886816
Ni 4.565204273917485 6.420112562805406 5.789535328446524 0.4550916873055066 0.35555708484327797 -0.20784566556550654
Ni 8.317629685521046 6.498107763215254 10.657570394275124 -0.4973531670778789 -0.26299274305129544 1.812366247515053
Ni 3.7987106301761355 1.206757004718315 8.389300573439426 -0.39624273548809824 0.07701199587968027 0.7857460953698339
Ni 8.862376831677123 6.176596283148697 8.419500910705521 0.45462631763331385 0.8296973041398034 -2.714617511763183
Ni 3.7686573482998353 4.295934686440483 5.68122531094182 0.6167140602374154 -1.2062919263796708 0.2287962996752447
Ni 5.189175184499409 6.112171130733786 3.5623907573161913 0.6525603805120633 -0.7327435750308735 -0.2395175427474907
Ni 2.631249059363593 3.350480217701458 3.9211575104377037 1.5334084964940689 -1.991498604306267 -0.161568893986154
Ni 3.913376605003022 5.458398235460653 12.360764988141481 -0.15846043026415935 0.6606691256621267 -0.8239912548939615
Ni 6.491881177406878 0.017426063690615248 10.811447106549103 -1.803309279519107 -1.2265540190628166 1.257850772293569
Ni 8.487981255103556 0.6704013230836617 9.944517423769247 -0.2277876559050722 1.0670129541399687 -1.4681197025885877
Ni 3.9977752299811233 4.56019694482196 2.2585846411762116 -0.2274896650486792 0.23465610089013136 0.09551468266955809
Ni 7.703422135945081 1.395872097454314 12.41428663491437 -0.6595491531250706 0.1290845482052035 0.2327390863730766
Ni 9.148595018193065 7.455066058649574 5.532648177082322 1.1454778804160917 1.8065010469835276 1.9133473526158207
Ni 3.8412077763660353 1.2316540406486658 2.9129941559849093 -1.8508548905085545 0.9934074128386762 0.06812780601617299
Ni 1.3616119145535213 5.397444707121263 6.042526442711495 -1.077504854810228 -1.0450991847860132 -0.2013574867380016
P 6.865913769157534 6.724200771372293 7.041903702989242 0.07273188044708764 0.017431822323202235 -0.7045090056652125
Ni 3.918300168370183 6.664056978407086 8.110672492643559 -0.6663746606873362 -0.9348227704262481 -0.5457161317622989
P 3.685729277219677 4.535067226312821 10.087018750131422 0.30258953150731116 0.09591243232860902 -0.5358160990397675
Ni 3.8173903876012623 8.248066901766489 13.029205262451114 -0.6895354150745158 1.6989656857040096 -0.7700734218295834
P 7.773450284857216 -0.17369289141390898 1.9848736086352985 -1.202444784719439 0.9141565003261481 0.08378119628271377
P 6.287976779963093 3.140293390630388 13.181487633695237 0.08944919320176853 0.5862562579681904 -1.0786852482715745
P 5.813099558565575 6.7200217922572545 12.109409167040237 -1.933913606802947 1.6857846682373612 -0.743947671276809
Ni 7.230955506063811 8.027195290677458 8.971826063087574 -0.7168914384899654 0.14276127436134767 -1.051381675360615
Ni 1.5098307172416843 0.9900457581380204 3.7190317386261764 -0.3391457333647901 0.5958135626393223 -0.2761727320766792
Ni 0.253779442841905 1.2971495329260034 5.735605091065281 -0.22257937223125537 -0.36827864617500444 -0.1523316916586022
Ni 2.763487222540574 5.735141587368335 4.178249422471239 0.27591305065738936 0.4577934025073858 0.3633891792931871
Ni 7.728468088725856 5.202977915073133 5.6545254503910165 -0.37079369928737427 0.4136383052567263 1.2916862327857754
Ni 8.800408807294215 9.158265306167507 7.343430541728827 0.3695832239190409 -0.4153375473360202 1.2461869628023956
Ni 2.2923608443131247 8.95902386760264 1.776632007922899 0.41352569093826197 0.0395268544500287 -0.7767503196291268
Ni 4.099997340494411 3.20478369416736 11.665897557263385 1.980859636535182 -1.1369197064334355 1.199228077554354
Ni 0.4160029445821798 2.174651381355687 11.847236398216278 1.7086713430275478 -0.05119220660309893 -3.4825875140965183
Ni 1.3762429951077308 0.4998096250798436 10.305409964930568 0.5617135356318197 -0.1574582142518901 0.06540886442311315
Ni 3.6320168307321796 0.6126001783216963 10.941960626452106 0.9569360573855197 -0.559668737287649 -0.4172136813128105
Ni 2.289689648308635 6.346361492632659 0.3426465040630573 1.6864791232012244 1.6424106721271006 -0.31681133153364793
Ni 5.226404397105541 1.1863367816038515 12.626507107724052 -0.6654477779976927 -0.29243238846865116 -0.07523304960238657
Ni 2.416846023964879 7.666742054224889 11.213873488024143 -0.6979249246897915 0.7535399429509345 0.5335725544212295
Ni -0.1304055551864441 8.448192534130753 0.5574739524854816 1.0632953960790656 -0.47420758219935105 0.16286010199375175
Ni 7.808706349195222 4.323530840284779 8.482095316590526 -0.8837205524337942 -1.9625017028532847 0.16225743541274637
Ni 6.66055743242211 8.852436631911285 6.060371335043929 -0.49927018159493375 0.7107416168384857 1.2582292386789105
Ni 8.155589537652856 0.5320417466239176 4.08162751626423 -1.2271579711954028 -1.1346257681929364 1.3870649040981013
Ni 4.385210338269988 8.48114969459033 6.690683311262993 0.19889077036506392 1.4340222466842465 0.9476260928385035
Ni 6.025147846266952 5.92769107496725 8.911411427600658 2.3385731055998304 0.8249677598746179 -1.4507680986840177
Ni 0.9216324263226771 4.725671487553066 0.42411798220000146 -1.8457836466332342 -2.006102984483003 0.6200832338199643
Ni 6.5090159225088495 4.693161077644761 1.1981440263818863 -0.5085716615015176 -0.49782702139050394 1.1702846550471266
Ni 5.727202457780078 4.500081073766208 6.799279062974449 0.7124753117001407 0.7560033168897624 0.26880600729896287
Ni 1.2334317355506086 4.510626248236895 2.740523313474797 -0.8273825399636978 0.051196320368156994 -2.2960475735327943
Ni 6.406132993471804 1.1658700219736302 8.774372557458117 -0.2953906997660268 0.20789554496683552 -1.732055783389759
P 3.6570627835129548 7.476770689598949 3.1589284730003873 -0.11402919653397782 1.1354279523792574 -0.9178833143584321
Ni 3.9629659161943898 1.0276007263544562 5.266143789371641 1.8677784057367706 1.482840296628214 -2.201425320770518
P 7.954644862611259 4.498694285596629 2.9093159097794232 0.6753858630470111 -0.7999897497730416 0.039001320963861864
Ni 0.36624144828250865 6.484956543862138 12.660072035079425 -0.12463242597112084 0.008987548210590973 -0.49719067335808564
P 1.5233914579334678 9.02975006425114 12.83662878367306 1.9715812965570496 0.08111470519414418 0.6072374882055478
P 5.040742313838761 3.1865972238092644 3.9055873229955043 -1.8883351468421994 1.5325047537328766 0.8172950738207085
P 2.346985406509472 7.047043195789519 6.687809216049799 0.8345556606733692 2.0805695882330104 0.06928685932128067
Ni 6.8374054996043885 4.763049617009623 11.022631676518019 -2.8958322050047225 1.2243670387138268 -1.9372460136102896
Ni 8.388663023173546 2.118565572564549 2.6092875468472356 0.24900439919200343 1.8191560167433767 -0.8361453737579922
Ni 2.725243513890925 1.51314411716363 13.337257451430238 -0.4034387390159052 -0.17773444800242294 -0.18497493161492015
Ni 1.9608626279649737 2.8343437214331946 6.021506829274073 0.6628584200039616 -0.1490558491208078 0.1469190052834631
Ni 2.3626030611977447 9.554225904143175 6.241259702524287 -3.3804478699112748 -1.6126864055897905 1.5226492010950357
Ni 2.1036831948252477 5.863489297827975 9.887113700851852 0.39338366877274833 0.9322660654426654 -1.0535982233959595
Ni 8.991925184243309 3.3497635553587894 6.6437959101765145 -1.2159279068075382 -0.14333694435915958 1.7552710451639577
Ni 4.477855233840347 2.8122854129640618 0.8351117362260263 -0.048000953359310886 -0.3838405051690034 -0.3775978666934013
Ni -0.08404960110991881 5.809283564273447 4.147421772972732 0.5278935017585813 0.27524327828387435 -2.453674452152064
Ni 5.353141944119966 8.745709786672656 3.868385101568512 -0.8262563967790545 -0.41213215302484507 0.03189479182606765
Ni 9.075160396327469 8.814686210328667 11.787094466711702 -0.9386429155032867 -1.4192679711932072 -0.16900298166669603
Ni 1.6812619339897705 6.8154309568636195 2.508143222038896 0.04530643724628326 -0.5507894325201482 -0.6853486306866777
Ni 4.654405467321777 6.904073712078819 10.200069907861518 -1.4241882913129602 0.9938159611310046 3.8384533884294667
Ni 8.268403359152588 3.9908971329521408 12.349377502735582 2.1151910349616214 -1.9840282640711508 1.8695218707904384
Ni 6.029764268630113 1.6330966401805873 3.0799746203659324 1.8812826108707925 -0.6673876753328829 0.26841391406686677
Ni 6.961685918586809 8.612633966212037 13.228048348441096 -1.0387547306252238 -1.4153550092920464 0.1481122542606159
Ni 2.441770981804684 8.642389414387488 8.641351650086092 -0.561250222842156 -1.5790553477989064 -0.43708342365354397
Ni 6.517708943652382 2.517625502489678 10.745664949334698 0.12819854605582437 -0.4537053484809412 -0.013169961723054738
Ni 0.1397249578320741 1.9590663184567279 0.30556062392545885 0.6099170919202399 -0.09148267869202954 2.9166046616653833
Ni 1.2659328381557617 1.8747142299943842 7.937603190540803 -0.3610247928260686 -0.8779407125272234 1.6702204952505173
Ni 0.48954087751275727 4.487106693172971 10.504825450064368 -1.2875069045971053 -0.984649207030072 0.4261747471608402
Ni 5.469473926210977 3.8744441559201594 8.99095164033366 -1.25229796079614 -2.8209711940297737 0.8338036129986931
Ni 2.514377253689793 2.576671033683003 10.106049392885362 -1.147043939351631 0.17209344766656168 -0.2994417299069488
Ni 4.78804903327464 6.684030450970277 0.577154244999398 0.7226242272086845 -1.2534045635967572 0.872125134286711
Ni 3.097712478712124 3.607706154900375 8.029198222315669 2.592452316385632 -0.26762124296224227 -0.28911180873585046
P 4.8859246332161606 8.70269143150627 9.081743451846549 -0.12987104866224083 0.9623587710629877 -0.2013088928882533
Ni 7.3116032878718435 5.85750470190154 13.032788574164455 1.749779168811451 1.508363894820615 1.7978066045333232
P 8.619968121095445 2.8093349978650255 9.72360672200698 0.26784467182695804 -0.24356240224082568 0.3990308397561967
Ni 6.561611492618162 1.4131650667098623 0.8586657283116108 2.1404636934854815 0.3808585397225441 0.6348994728971904
P 7.432896062542622 1.451939291639149 6.651124480678032 0.0767937092212871 0.47934078966085836 0.6068163415077292
P 2.247173887512432 2.6025732583537198 1.7975278342284058 -0.15576617126144787 -0.5122586234348017 -0.4151051196102399
P 0.07062102412288698 7.806723893623945 9.478979150353977 2.2760785866100353 3.616712967159739 0.5909814313580015
Ni 7.070478985125078 7.315521662498639 4.634006651004562 0.267430724217991 -1.6765420665931705 -1.7110419001422532
