# total energy = -340872.8430766327 ev
CRYSTAL
PRIMVEC
9.18820343218784 0.00000000000000 0.00000000000000

0.00000000000000 9.18820343218784 0.00000000000000

0.00000000000000 0.00000000000000 13.44786448084626

PRIMCOORD
 96 1
Ni 3.0849944053114244 5.601707621383919 9.136357997712667 0.6054343735585379 1.4829565104911042 1.33901484266841
Ni 3.9139541119054893 5.578204197204495 4.339208971275707 0.3712305297144768 -0.5143142204122497 0.8453648354737312
Ni 6.776024327443191 5.305920979013312 11.22985429791885 3.242542895200964 -0.44384336808519687 -1.1866558973162982
Ni 9.119889062021034 7.930742595748473 3.7765904717638215 -0.7754020331313484 0.19944124355189521 0.605752419019589
Ni 8.24357335534067 3.318411523315366 10.425308566456588 -0.9851307746521809 0.35015236888793894 -0.6333002467308706
Ni 6.787987368210045 1.42826945855931 1.7171447343670696 -2.0053069709442695 0.7666929353931248 1.0749496924885422
Ni 2.247581551631719 1.5475782791104509 8.794297725610859 -0.045037499855612756 -0.00665144387824661 -1.9539836380799445
Ni 3.258715766124703 1.9443984055611765 6.410287892938905 -1.1111986475182476 0.1370030317213318 -0.4913113317591732
Ni 3.950376150000577 1.6859434334177 1.4038628339901922 -0.0068301355479559785 0.5861690975710228 0.7906304200453287
Ni 7.091841253125426 3.3431553549475743 12.457281575825006 1.3840469432073843 -0.9216561511373029 1.4279840109099664
Ni 6.630556691943333 6.332472998734238 13.408313914539082 -2.401700373077619 -0.6213245624262331 0.41619423890936064
Ni 4.2692895002130955 5.2680747693983605 7.145764980969133 -0.16647327326630684 0.5691897894042068 0.26095951467135053
Ni 8.737227956938757 2.6339638790723483 1.2414944172410638 0.5254756363457079 0.7241514624864883 -0.5277145529785557
Ni 4.746184818893562 0.6634213596878209 5.087609267323277 0.22276166344539053 -0.021843578237652702 -0.7123367292397473
Ni 1.5664232841894181 6.137554452783378 7.362181166307248 1.0436022885255123 -0.6834583556425003 -0.7408641472554789
Ni 5.850175016481643 8.699152042239955 9.653765023801068 -0.7203649988608626 -0.2913424978385821 -1.3153354967735993
Ni 0.4548307671462729 8.03694903831687 6.230744886480559 -0.9068337414124898 -0.8450894703251576 -0.8856905316759713
Ni 9.07936908523008 0.9572913428387918 4.86926999102318 -0.170460540048829 -1.1562554306475699 -0.5884938890494574
Ni 3.858319540597275 6.998479918845862 13.187593974749975 0.5766485596750972 -1.3369538463743231 -0.431618800994547
Ni 8.552140788576633 6.313205336300988 7.6309232509258145 -1.5379824890179965 -0.699401252125002 -0.6275993396913514
Ni 6.743387829129934 0.0557944460465728 3.874531206594998 1.0035164762482203 -0.294763350594673 -0.07403105887448541
Ni 6.034747645455945 6.911651397150961 3.673620114416688 -0.40991303388633915 -0.7401915466684865 -0.1730056750681859
Ni 1.8767640406726938 2.021643631157899 11.231023956205808 -1.3472230895108155 0.12980342864909902 -1.8264543501770028
Ni 3.8806468747473923 0.8626464165506798 10.076780718013929 0.7329628901305313 -0.29309727574615974 0.4973359406866983
P 8.328646930194965 5.001350414236322 13.388277199485106 -0.3195238453688045 0.13020014986688547 0.6814788633186264
P 3.537807443001168 2.279290041406227 4.118892393613839 -1.2026877539681802 -0.15472436026049483 0.014727793128477861
P 6.101417248992263 4.521542435092651 3.879238323173231 0.1263236976306147 2.155683081538397 -0.20954413631385202
P 7.911548438942055 2.0299222023798147 3.4360637108017884 -0.06351370428292932 0.9250620914950585 0.25770115563505297
P 1.641830869115349 9.031268840672112 9.932646290820728 1.3549371703256214 1.044179501185221 -0.3482620938437615
P 7.712752471175826 0.4083889932936937 10.171681995175616 0.2453002108675388 0.04432247606645915 -0.015232500679038282
P 2.7949320136303335 3.5402882579067367 9.921148173143587 0.44427788451945416 -0.6354651155926734 -0.244192836735973
P 6.013853671029046 3.6845981797839964 9.711590062788867 1.480606779312005 0.3304386925090954 1.2413095801054363
Ni 2.564161098192332 8.88185027773005 5.329724857442411 -1.0683789812495599 0.2811632433127352 0.1606103867276266
Ni 0.8994736544136777 4.743759133208117 9.816712297361498 -0.3692469236255447 -0.4725898440902699 -0.31537202798396013
Ni 8.438611347935131 7.60490134020707 0.09532117805496346 1.4150575326562855 -0.5374811454470163 -0.48625808560598194
Ni 5.5569978238635604 9.067608184937013 0.25955204362393897 -0.1954892008826827 -0.23012633134057786 -1.0952302971144492
Ni 2.636251741707484 7.327371657900778 11.125754710379516 -0.03867787618617209 0.7522037406380141 0.08300472312800543
Ni 6.324203615715676 4.1712881232397825 1.2944956494680335 0.47312643332003035 -0.35015391154983566 0.49347465795907913
Ni 5.785480876666427 5.805575477401533 9.042666806932695 0.531520042767575 0.37915158433376633 -0.8150019069111578
Ni 4.428098406982901 7.420374652249539 5.706224353355523 0.4869934211101097 0.44509395266284635 0.6588562408231041
Ni 6.154038089600379 5.560939563102409 5.932673137935823 2.0095788588467456 2.432347922760146 -1.0890303389513245
Ni 1.3608647987546763 1.0025340561536795 13.311637476489409 -1.4792080991922654 0.35355059593621047 1.63052549065374
Ni 4.544090286123263 2.766044302285491 8.614554416319397 -1.2894714845226438 0.04260189383092663 -0.5529553298232155
Ni 0.04198365758523896 5.472227459719947 5.26157135906443 -0.10467989410859391 0.41857045245102104 -0.11114853255207309
Ni 0.12392773037717539 8.676778767073069 11.398570844365228 -0.030119959313831997 0.6282649982998083 0.8596624830433259
Ni 2.405067357118554 3.704729533332518 7.747126458743317 -1.372351509147327 -0.44174431946432313 0.8759941303238139
Ni 8.142199907736456 1.9742416900548312 6.6772006062697 -0.49434677615138733 -0.07092902291039398 1.1022542938407662
Ni 0.8710315709315015 3.6609018033341396 12.822350027945458 0.7831181708286836 0.8255323741288363 0.26611149118593524
Ni 6.61921844900455 3.9816711706241574 7.5902305359118065 0.8022682613945732 -0.4992588687410241 0.08125637297833103
Ni 5.135341983747088 4.523389263966796 12.638787182519756 -1.627779809587803 -0.12178261522715154 1.0143583040587305
Ni 6.913176638907718 7.855601468719807 11.551755651862075 0.16291923736646136 0.08112601804805383 0.504947434485369
Ni 0.1567314539914752 2.3463271730767024 8.696720843632498 -0.3267211344481922 0.5141424707210759 -0.967652158251443
Ni 5.59058989532563 2.5385168226314363 3.443486860291451 1.3566035022844507 -1.9261355055194247 0.5896588558918361
Ni 0.8567237006687185 7.130247943144969 9.542079655572708 -0.46369742669664654 -0.22049369334682026 -0.8928849925418816
Ni 4.818973765863616 6.111864236205713 11.073684243152302 -2.4549600037327077 2.9152589462707663 0.17754032971374586
Ni 7.942944529802529 0.546030117176651 0.10902538335739138 1.4710625872669956 1.511306779499023 -2.8094557371910067
P 2.5618732355571963 4.761464801071194 5.990525741533682 -0.15108676350790753 1.0293264953327887 -2.653723247380972
P 5.526162213407678 2.2167918821926067 0.06868365771150467 0.19340892131488627 0.7129550795500366 -0.5362184766845087
P 0.7552510204682804 6.075580021160933 3.2150616931697145 -1.2044289050290031 0.20045142998396445 -0.888516688270857
P 8.885874710799085 2.065067080208703 11.99257716535457 0.3659255725617956 -1.8181183195074817 0.9162226388265575
P 2.05830456254019 2.841975614802597 1.3019849540218444 -1.069762748970964 -0.345789721043869 -0.041894840461573005
P 4.167980370032358 8.104335321714796 3.5636033239174045 0.05813444224888698 -0.7256887250666212 0.5481885045621914
P 8.122610658185817 6.12978123274593 9.673438804822563 -0.31226793513733964 -0.3249241904487694 1.3922011968834025
P 8.867342104634153 4.047109554911044 7.07827027677163 0.18223953496162806 0.6962799328872008 0.2689353337879755
Ni 5.086469930107387 3.6023086305459517 5.703064530222097 -1.206626169790638 -2.6122477538450046 -0.36275231704013655
Ni 0.9714044231904708 8.409732824793641 1.6523927088707235 0.3194202299114048 -0.2657337961315423 0.06618919423256342
Ni 3.3895006526649367 8.699179606850018 1.072889048055269 -1.002204442305016 -0.6788265132974438 0.17337565681309497
Ni 2.704538469034098 0.3382958651876919 2.9971119966918254 0.4296475362007891 0.8061146317238569 1.8848052793120702
Ni 8.246899484954804 4.288878749763733 2.9215619946139078 0.5706995411805139 -0.5838317076870977 1.3764506189173649
Ni 1.1837989319205573 3.1522888066758106 5.454911371679078 -0.5782459860692042 -0.6268012692700883 0.7538669872730501
Ni 3.518392769314256 2.806316197585887 12.724396429629588 -0.3239913942218549 0.07194383732815351 0.29711102489124314
Ni 6.752860866787864 1.693569642201485 8.56225516282867 0.18828882647950154 -0.12578273752548014 2.3414123748208384
Ni 1.7898160723341918 4.262306465664087 3.431276656854376 0.6961166678364591 -0.7259265521090401 -0.5379040919170479
Ni 2.7519955393572895 6.518773009939084 2.5175475049370335 0.6447876785451798 0.7622505833510549 -0.6787236691709924
Ni 0.9167759601495153 5.931839767891619 0.8812121002476866 -0.12539578649970662 -0.13419050197320115 0.2705821253627792
Ni 5.967839148632425 1.4984030147600693 11.455885938066881 -0.08175362432972372 -0.6644309066974041 -0.8987075127609296
Ni 4.129959584553681 3.9405080195984272 2.5308207835021608 -0.18772138401180574 0.5002556854366547 1.0836017117365855
Ni 0.716867300957122 1.2712706278502348 2.834272225110639 0.2672774864695784 1.092422395352009 -1.5638141053691197
Ni 7.813951342916316 6.336221785702652 2.105666994368836 0.6315148726956736 0.9162619767049253 -0.394426765325282
Ni 3.3019095100916585 0.4889704555282382 12.263309414819604 0.07456841943519416 -0.5953224819355166 1.5712235104593133
Ni 0.4391492604820733 6.118727824111119 11.791490578492198 -0.4178808825831642 -0.30136054419621644 0.1693552227997922
Ni 8.558462272484155 9.091635336707613 8.163875798268776 0.002614040584079369 -0.13808598037286543 0.5186822675729583
Ni 7.556929730496057 3.590841752760212 5.2423000213498385 0.39099665659781047 0.13605095222070762 -1.13762470292026
Ni 6.495719807724004 7.6428945610756855 7.527885819694197 0.508478330456763 0.6948539990739517 -1.1496286693596716
Ni 3.014254427689304 4.718243492494177 0.802504112677014 -0.578613653821268 0.7359086030224165 -1.8070646327964814
Ni 4.53830171801027 0.44140128912412835 7.733934036367705 -0.4721324448378772 -1.0719055063455796 0.08077660512843507
Ni 2.794849319800148 4.879891554100356 11.56006638179573 -0.10095128030409711 0.18913934740525493 0.7364948145431897
Ni 2.249924543486978 8.353831795588164 7.780396024267663 0.8363546615553209 0.6010491000066488 0.38162909933998146
P 7.1046863614142595 8.476273793483005 1.7202907751954648 0.16092920351962606 -1.444778456759486 0.7881667889961845
P 0.8467995222261088 0.9223486054836907 6.692249045722811 2.7819107376932024 0.13728328196591194 1.6938988127040633
P 1.5577036792065122 7.824444271146536 13.075573237099192 0.32229112370129653 -0.03965978048346718 0.14957932572444563
P 4.876877823400257 5.964852982542389 1.4838773840777975 -0.05674938897590226 -0.22903258405576682 -0.40446666605978726
P 7.486134623653813 7.432475516066701 5.4272760124513795 0.452677164326743 0.06057724736242471 0.38275241431114726
P 4.725548114160574 8.498674633259952 11.479500539506889 1.5171781506781354 -2.211696620789539 -0.12454886511837905
P 4.401590440306732 7.437620909944916 7.910934666958011 -1.142821159519535 -0.9310216515126029 1.080193200275669
P 6.096786394501868 1.2889579193066032 6.620706019127555 0.055969830497400376 0.6273424864855389 -1.576720786128459
