# total energy = -340856.5018614235 ev
CRYSTAL
PRIMVEC
9.41848299686853 0.00000000000000 0.00000000000000

0.00000000000000 9.41848299686853 0.00000000000000

0.00000000000000 0.00000000000000 13.78490190076486

PRIMCOORD
 96 1
Ni 5.246396285331921 5.70196829613472 2.3520485008176477 3.508038092959139 1.364080527387786 -2.013842776329422
Ni 7.213794892331391 8.011898283925511 4.297429520683488 0.27459073230154 -0.3029749398711879 0.07906193643017351
Ni 0.6473888305673191 2.3754166983781775 1.1337856517268563 0.8678398766477958 1.2068696532600118 0.2973671067661072
Ni 7.828181359329286 2.876677769019811 9.431684641106921 -1.4623560606319332 2.6209589084657567 -0.3294863558981551
Ni 2.853093888204218 8.86379063052676 2.9259279571878674 -1.1976383644697308 1.6843461360186216 0.793650180708259
Ni 6.67428536322645 7.800509856998531 7.206195118597324 0.16083998623992943 0.7330716477942536 -1.0619339969551647
Ni 0.4308343658498627 7.473905130543939 3.176247682577808 0.13122910535203205 -0.17831834553035095 -0.10198974887094048
Ni 8.063285525830413 9.007949927556895 2.1685303062075287 0.1547230747089142 0.13699454708089956 -0.656098989792941
Ni 3.3759515398003854 2.269091446570181 1.4647841003861117 0.3116716963142374 -0.5250547467582054 0.06438505114428911
Ni 2.6404057106572094 3.8552581271428386 3.6715675742983245 -0.6645062400200297 -2.8282078209875294 0.7393207140277589
Ni 6.0037082281192 0.4608049198208279 0.8802363286006275 -1.0286562087386413 -0.686496885358508 -0.2047760255012473
Ni 3.009798604262456 7.93235919706941 5.910634781545843 0.7696597313309325 1.4820959622630216 -1.1139486994595589
Ni 1.4333329609262444 1.641453174337645 7.282674140406707 1.965560801394583 -1.4598214671355374 0.522120603830546
Ni 2.3314229654350336 4.779220703776402 1.670523321357344 -0.08447539413626097 1.4962496280555844 0.348644931104477
Ni 7.965606441190433 5.941197758082024 1.5018646669879439 0.6893058155622128 0.13223723490157224 0.48212375172263416
Ni 1.112068514193073 0.160898766428519 1.797316819885966 -1.2026702704666836 0.23844230740544098 1.266800011067057
Ni 7.179445685728169 3.359064200222767 6.6574874992349935 1.390257185783154 0.5752262254062739 0.49049680627767783
Ni 5.347927529418217 7.411356986575747 10.020948247207247 2.1763308396957353 -1.2020902295934977 0.44436710179915084
Ni 6.369823489726113 5.456042292949442 13.698111342109623 -0.8756334045502855 -0.6520027082363803 -0.42154881835305463
Ni 5.585979681021293 7.561704226775149 12.59614697621486 -0.24550538489980947 0.21126214744622326 0.4940161322848459
Ni 0.30963167868391467 5.2015454704581785 -0.2906119946108286 -0.388912263264956 -1.0871904575291083 0.44215698152170946
Ni 3.953539994679064 1.1669688501651532 8.552401462960981 -1.6098414799418275 -1.610928285248103 1.244426528467863
Ni 4.0290950633302955 5.975151388409585 0.2701493989798556 -1.148260071146919 -1.6875777555820421 -2.3569613782990313
Ni 3.480063448161232 2.7319910369554607 10.370298609512343 -0.40886659489969585 -0.6408706028789608 -1.5973220073185779
P 8.059753594797726 6.61483590008427 13.040048545037386 0.09906203370118423 2.2611556467516154 1.37598473502454
P 1.1474725908647232 8.810114697312677 5.9839294143361546 -1.9145190043264189 0.4061221993853393 0.8624449308844695
P 4.53272017314314 6.187293293956872 5.607946408348052 -0.568144378858828 0.5461308507022142 0.3866995718843534
P 8.273722685999257 3.5737302591480797 0.8594874110939381 0.14045987992168066 1.1361817998261463 0.19583270026503047
P 9.078833428762227 3.288133606603666 11.557771496632586 0.045585659049598916 -0.4275896252304959 -0.3635251906504191
P 2.409521024429799 6.8957609851827835 2.2323132132647467 -1.442798707325296 -0.0970905117971102 -0.30270908780431094
P 6.59352187361235 3.978423626114685 3.4984699890070434 0.7815708809462217 0.9799104067935059 0.1993854506132953
P 0.6620251527667723 8.606788491622977 9.900220251572094 0.10291920266374534 -1.1097775988010048 -0.7237058903086375
Ni 0.7833050714913017 7.35058893584803 0.5196139261357479 0.025057200078943943 0.723752941496489 1.0125827002155463
Ni 1.0971873114420203 2.857652433857072 5.26966464697526 -0.30510124218557133 0.5951643590910976 -0.10900706072903807
Ni 5.4357737180631975 3.049723552655945 11.551016560801537 1.408182402803007 -0.6440623703433811 -0.015605567747740866
Ni 8.557228435372318 5.342436553972734 6.786003638259291 1.0601365387351096 -0.975447743036462 1.1159173931501556
Ni 9.081216304898946 1.0528545131197382 9.537704734073694 0.6437396968966397 -0.5801946251551426 -3.243633814272298
Ni 2.2928919524891116 3.7302371870684876 13.579616468735402 0.14385836408026836 -0.7699754627991385 -2.042025152300909
Ni 8.853995408462776 5.4111632226274375 9.20259323399584 0.4591784557803705 -0.643446076915621 -0.17063203262968676
Ni 0.18221090920388752 4.41151371858409 2.592346960557512 0.4005853287275101 -1.1833481730993038 0.1446641478110154
Ni 3.2703044187506642 1.4918405757930417 4.6276330493983195 -0.9878234909929954 -0.659262218012271 -1.8253762866214758
Ni 2.256988696231508 0.5801625262153005 10.118890107516059 -0.12272158210165314 0.3248324020659115 -0.10815705402391695
Ni 5.717367515437234 0.7117528580104486 11.968437123513395 -0.515048527475113 -1.060148622919968 0.33877472317861657
Ni 6.214296084012104 3.045494653899475 0.6072416059808396 -0.6420157722269976 -0.2557237201937079 -0.5945586071862986
Ni 1.5601528312065769 2.0762291752199857 11.709363860252044 -0.9508584837328722 1.469533809327295 0.5551183989128052
Ni 3.6861775247460664 4.153089388784478 5.9116274896280965 -0.9626575332503293 1.033832353622942 -0.15333853565656172
Ni 8.699023693231243 0.9727032248846376 6.692431953948256 -1.4888903594770357 0.2831283374589059 0.6874296815854225
Ni 1.0810817059329694 2.981345367863133 9.295738261038126 0.785076580106635 1.0391406532097331 1.9032259479111029
Ni 5.3429639890069485 3.0126147306058515 4.992629395254078 1.2497199156563188 -1.2790567169472231 -0.9527824402284625
Ni 3.682438387092796 1.7258521982947235 12.667842350633572 -1.5747484928934363 6.072254554427529 -1.4549266009370816
Ni 6.619742929599016 0.27931829194071 8.401539031754945 0.048638072722677526 1.227000619681932 0.9091189379022406
Ni 7.874275413926535 5.20966420259198 11.575320013699523 0.8819837722483457 -1.106484786982346 -1.3929645574119882
Ni 7.237425865560752 8.407710021655253 11.034716998746864 0.5479779312132821 -0.7309144922419347 -2.319682696453231
Ni 4.648652277360044 0.0016623622060511496 6.555561620721311 1.3457413627589663 0.6327304902703297 -0.6713592583861213
Ni 5.187257632120617 0.500862668821146 3.705394996956983 1.5210137223741418 1.4003852753560915 -0.16496712103442557
Ni 4.14598785278809 7.803043428859312 1.3557039423726194 2.1212349271628566 2.567020763686405 0.02457640378778348
P 4.1316905959677745 9.496091051722443 13.328690193056115 1.8691606307962776 -5.897745812451255 4.537604986437508
P 9.254271507017835 0.6801331277092876 0.11811059927786534 -0.9544703694538464 -0.8815932216781462 -0.12183917949669984
P 6.139805303912056 8.087462771059496 2.709794498649507 -2.535287694249182 0.08380253643895245 -5.041752036508768
P 7.090770670600852 1.149601167967089 10.472968548163578 0.20251422605026412 -0.6435018698542208 -0.7594701923924404
P 9.358195045723605 3.103484252214812 7.5536712028344075 -2.4879025200969993 0.5595412105708493 -1.2826416060850039
P 0.34067593968881665 2.07410059811762 3.3418048305763715 0.8800503026710585 0.2841549789512074 -0.7004685170472517
P 3.5466897951618312 2.148129872562731 6.480530219711193 -1.6628234314554975 -0.866262761968663 1.4575781796273155
P 0.45327107546603856 5.134919123457578 5.1128892922963685 2.2396519683518843 -0.5082744419760731 0.42160975349797714
Ni 3.451337075762048 8.45003668315097 11.65352167600458 -0.5342546680899186 -0.9600944005088431 0.1565560141525949
Ni 1.7980448686028372 0.10591178041510357 13.337912771368666 1.3012358241474236 0.4547301902010298 -0.5875662350288655
Ni 2.1761592772381317 8.652854290771964 8.026617488773198 -0.023727168413610746 0.0813288780874793 -0.01441668964596227
Ni 9.22920892440989 0.35691905504607335 4.549238308196808 -0.04461146806178769 -0.6846665170179886 -1.5180060458960696
Ni 7.727394175380542 1.749991769592792 12.634165623698975 -0.21451202184208865 2.1133143867641992 0.5912696520223817
Ni 6.639220351933939 5.972815604686635 5.779954275184715 -1.2302864895220553 -0.9816667273629804 -0.8958751855184571
Ni 8.254650258422748 5.667487230772945 3.9968216903260183 -1.8865554292339575 0.35898976467391075 -0.4502906663724374
Ni 2.974027206763407 6.40207237467523 10.310692799556449 -0.018746170259251585 0.9653016557413957 -0.1759238771562454
Ni 0.8726186597493291 5.032511960475175 11.11393868273416 1.1862337221772152 0.22977306176621717 0.6243288964701957
Ni 3.621971727813202 5.773435743270789 3.684125237354007 -2.117209350943231 0.5307952487864085 1.8098807620890376
Ni 2.3436293190839983 6.0136447274244915 6.499111944336225 -1.6612861688753646 -2.1839965837711097 1.1474704853660884
Ni 9.227786733514062 8.173406426188203 8.022606156968342 -1.3471870940665571 -0.44324147283513987 -0.3360537247030277
Ni 8.107081470635725 2.8530279588249416 4.528229440566113 -0.01583773836320498 -0.4360081883114943 0.2601161928344488
Ni 3.635788642013072 4.306036130223938 8.363244422726144 -0.6750819586533471 0.3638913157405862 0.017326921314221772
Ni 4.382429443840261 7.9010427419129226 4.053215797662856 1.9727521769366994 -1.6478698954694588 1.3528136962247155
Ni 0.8405440167311582 7.872523576134323 11.899292274224422 0.5678492162159123 -2.5040302788967974 -0.3575980265327067
Ni 4.581168848428845 6.942994676193245 7.6729383917944425 -1.2590735889570768 -0.05883815318413093 0.4206782428226432
Ni 9.26151432025553 0.3617987709608331 11.555924532164559 -0.3087228980985586 0.8832053033602726 2.173811929928624
Ni 6.820610911289966 1.9859906919555324 2.530797175761227 0.6598743976749732 0.022087061707026477 0.939259208931047
Ni 7.661116312241835 8.847223519362773 13.127650794979044 0.548031667269353 -1.095257550807959 2.4822525209000736
Ni 5.334110615218347 2.3039680882076166 7.399611196733444 2.706296136381681 1.5039400547213064 0.5722342326574855
Ni 8.509872304086057 7.439461739113178 5.766582855219101 4.140351036076076 0.15258983041599525 1.621669068704375
Ni 3.4163097384005505 4.601531608142628 11.59510071117912 -0.4268692021247036 0.2137563746229867 1.2992007959952656
Ni 5.68960182827894 5.291510817722771 11.36635402053683 -1.1572969845382068 1.2351062795082022 -1.1199676519601292
P 4.601785907176981 3.747633124714813 2.519011828291358 -1.4781259218716802 -1.6144499252481164 0.46101628032005765
P 5.426524767998936 3.6684896141343724 9.30818572784559 0.4818679269580862 -0.6475567566498847 0.876970121083838
P 3.6759490524754064 8.351444005683868 9.514021959189186 -0.7169557160689976 1.4525439596375178 -1.663128364290426
P 1.7277170578799819 5.192541400945515 9.10976560982236 -0.24395089592849598 -0.5246937638743608 -1.4277829506427537
P 7.335801917924516 6.812492179156165 8.863498657561392 -0.22037105172602692 0.48878290891036463 1.276355773076292
P 6.7528355093934 0.2604116296606699 5.4273225134881855 -0.38196591385410994 1.6722552662923587 1.7105374497020092
P 4.546659527618809 3.9266313894513694 13.38525006568942 -0.5205458031442582 0.03143867812525553 -0.3902708341753795
P 2.176470087169008 6.4425059211374265 12.781443380368902 0.948668675170405 -1.297635765500991 -0.3213184753753821
