# total energy = -340894.9108622692 ev
CRYSTAL
PRIMVEC
9.05467488512003 0.00000000000000 0.00000000000000
0.00000000000000 9.05467488512003 0.00000000000000
0.00000000000000 0.00000000000000 13.25243195494329
PRIMCOORD
 96 1
Ni 6.263535219895956 1.9953515680651743 11.420150907223702 0.6664965309771811 -0.49060350705887124 1.100595932301737
Ni 4.77932911085526 0.17823222290903307 6.077538613165316 -0.5714083943220805 0.3020480571815443 -1.330961119125998
Ni 2.741248531414972 1.452732058703783 5.049348574346942 0.6662383922197881 0.04753352680458911 -0.7045061774517352
Ni 3.414400235729453 4.427029815542078 4.928221470327382 0.23901334941756255 -0.48122669382966154 -0.6043198003381205
Ni 5.048923004621443 4.551404831487948 2.6967502365427842 -0.31553426459343725 -0.17418863963269354 0.2336592841945008
Ni 7.2120848646584275 6.050351951445931 2.43750674178124 1.1293511500575584 -1.3061612864734988 0.7858209144718273
Ni 4.855116740694144 4.189254049763212 11.71574620575038 0.5911490672841173 0.9135566619586202 -0.887447366466078
Ni 5.55304203583768 7.7825837183775155 12.350445421697264 0.3657378820310217 0.48366718495035416 1.0483097213035106
Ni 1.7855366387191007 6.607730581074633 0.3637299170465872 0.9954254717099696 0.4602729743961299 -0.3425940969247067
Ni 2.7964548849547186 1.7399463500406318 0.43789857099357316 0.29871873569799523 -0.8745717960549905 0.2549814427110447
Ni 0.6178258290645942 9.000220195105577 4.632175248985176 -0.3364483890382851 -0.28012400341494337 0.01524021398852214
Ni 8.757880873121357 2.2843134116790726 1.2833082236450806 -0.3328403599720526 1.1244753100224956 0.2009985607366861
Ni 7.097099546698571 0.5774166254272017 4.9186008781286 -0.7897937830766463 0.7336640299626139 -1.1868682704374205
Ni 1.053701585660795 7.510300586133178 2.5647031944604173 -0.6691087717890476 0.002024743739512642 -0.3949067902854941
Ni 7.441331126577291 3.969614798030616 3.9062203018787662 1.4610957058622709 -0.3262619354235865 -0.33026951392108284
Ni 7.490805870835315 3.9431479829745752 12.62901159293147 0.9681771775169777 -0.7700078586989706 0.6797695939370034
Ni 7.928526970198679 8.780553779347947 6.839964885747 0.16327996313998974 -0.2680382758950029 1.456711717861962
Ni 6.941775651566405 0.5653947334156023 0.4887378547756981 -1.0575741773245722 0.40880257443097984 -1.3331516990194137
Ni 1.9009837451044984 6.67524223795381 9.203151760508577 0.4343873648786196 -0.03472171975190149 0.01309462840042906
Ni 0.20521243803817582 5.066670167642257 1.197540531009491 -0.5665436100306114 -1.2343876561746223 0.8225038717151576
Ni 6.253240054408882 2.067399617124673 7.039228402303198 0.8286716910887665 -0.4074265200190596 1.069648334880287
Ni 3.313594538836227 4.3632486847672745 0.303809699696312 0.35986779640348987 -0.13986389820889458 0.5281899499530774
Ni 5.9519910168055725 5.762105427157873 4.679606353093303 -0.5873003829619885 0.01781517380454996 0.7675781662115555
Ni 5.1760053683954865 2.537473070300982 9.403156854948145 -0.5449332308496873 0.5259114383315459 -0.606168423511085
P 0.13762562735640912 5.671169326026222 12.20236255017109 0.1557054932268415 -0.5927475221194888 0.09130295858105565
P 3.9895622470790104 6.180703052898809 12.601380346669062 -0.8400786473741274 0.23356672448069452 -0.36664676699853627
P 2.587690297909877 8.63413968442623 1.3707781951826665 -0.6228389421882304 0.24677525275116857 -0.23712718813844322
P 6.312041113927845 7.660753066109631 5.729171763209248 -0.01393692179606632 0.21654010801571097 -0.10705276521614468
P 4.735160406153458 0.8814255279737473 12.744691404464639 0.6502821260008479 0.7154253954674001 -0.030538020687857083
P 3.9352794703903475 6.01918576005938 8.258120762455231 0.6531684464097074 1.7961024773580228 0.20777470311825508
P 4.781058553782287 1.2286197975159414 3.9264439185149844 0.2875406075939887 -0.7712278471490008 -0.05645422633298664
P 0.2338677680442832 5.557116639592459 3.467088484148747 0.04047404885464643 -0.3577111550718033 -0.69643805573162
Ni 1.5183784525307742 1.1755141285786583 2.586437130888407 -0.0450423849516192 -0.25043933186631706 -0.03125355869764295
Ni 1.8816791779818578 6.4710502617893315 4.576714459077631 0.7200914334845018 0.7588407863385576 1.4451106432879244
Ni 6.0809658076568365 5.675461241981255 9.02775546181287 -0.3601017667911669 -0.541781572594583 1.2017230760620659
Ni 8.71964298055151 2.428663040698368 10.103429121854434 -0.3588164723208401 0.08728715255344321 0.905706312676266
Ni 2.400801805690692 5.05355899822688 7.001220498478622 -0.9610027712557254 0.13515980786500595 0.31022930744075605
Ni 0.24940015755749975 0.063922383704969 9.278862425609871 0.8630856497922619 0.942834327876815 0.0701090981122599
Ni 1.3561730043905373 1.028031582005689 11.462744098473657 -0.8145920730672487 1.176895732605741 0.46332230274541497
Ni 4.07506554320429 6.919999158165865 1.6947608053351375 0.711140137828485 1.1956843260671537 -1.1453446972723371
Ni 5.642402623517484 7.77827369307246 7.908190170124828 -0.6196430609587522 -0.03263166999209219 -0.20704450982044983
Ni 5.4638715963331 2.9865758961526954 5.038362537156558 -1.2413232069521913 -0.12483605734149467 -1.205498483944098
Ni 0.8994361820373705 7.485083316228604 6.930359517313017 -0.3923318304694663 -0.49544438009094033 -0.14401083049773264
Ni 5.124076807209584 4.637261259938641 6.988206214085859 -0.10778861494090469 -0.3206281341765768 -0.10295288411515817
Ni 8.342705914534434 7.1473348836574875 8.976627333897905 -1.1323714249411208 -0.3438271980008595 0.636562205311594
Ni 4.651893614755801 0.20000328350456648 10.558702708725884 -0.5111607623849327 0.1051411500157286 -0.9092130402779438
Ni 8.11883812957188 7.0347671639254665 4.5490560487901925 0.5456749941117183 0.9497637080067967 0.4085038122436384
Ni 7.308652973646684 6.141804169053188 6.98246826653163 0.4903775070909942 -0.8494762865389435 -0.734951895536102
Ni 2.5069678701902047 5.352752624602778 2.501595731506404 -1.4805486723805596 -1.3894254339104781 -0.05343909365574667
Ni 2.242833945455425 5.445572098136638 11.384210185704049 0.19171610699349562 -0.41963617471137404 0.38665277780681795
Ni 1.1598767048353185 3.1632054415848487 3.8716314433381998 -0.040416199033517494 1.4262590577990597 0.0628210490912789
Ni 3.5109773993927202 2.6756111922629917 2.7761588309184155 0.15501695180024916 0.29685545723701134 0.05291715971400564
Ni 1.1311371663516125 3.414581329229666 8.32124180742176 -0.672284855524184 0.1337413302509245 -1.3290654447651822
Ni 3.6710459442304506 2.724904843020804 7.222628128240793 -0.20532572735713026 -0.4781866214517571 -0.038785862518946106
Ni 3.9171429563440765 6.7764282311974835 6.226907248542998 0.44144478594603326 0.3101169502326078 -1.402661472984778
Ni 0.8426171908782324 7.651309040073555 11.393446859682383 -0.6997051565186659 -0.6668546856475484 0.11727752826794642
P 0.30650165457696915 5.626004607073252 7.843703680166698 0.22623676647818455 -1.0543181322811197 0.29949058086701325
P 8.332528459822498 1.6351203774426903 8.039018452950765 -0.32251866633107035 0.06505353796622344 0.0960885528951571
P 1.775413512057228 3.355626340235522 10.438503708894913 0.07586039877374032 -0.33198495395029276 0.5734051130371352
P 4.007191699324687 6.278230957438192 3.7379944003239687 0.3854163342965556 -0.047008764649370656 1.1647246444608457
P 6.6943294928761965 3.9475304456797153 10.483389543857555 0.1219703057579254 0.3892573053092006 -0.7641706831919033
P 6.418994935153281 7.596310944059052 10.088162034319026 0.045984437149914355 -0.3820571880163356 1.1708425844331256
P 2.4247152023937377 8.430608699537528 5.787774525345478 0.5912804506556592 0.4362982087480873 -0.3986148352647006
P 6.926663398973681 3.907273360582501 1.7305684231321332 0.7048992991250956 -0.0003735812893348405 -0.8226545383604089
Ni 5.359434974760616 2.966664665804343 0.6403520495560132 -0.5897370174279392 -1.2210338605755358 -0.15765696052625752
Ni 1.1303313002756672 0.9165504232749422 6.946036781626402 0.5150073898245324 0.7864012124553296 0.550063352987401
Ni 6.734333047073114 0.4245166667953787 9.234096112357369 0.5959544590925607 1.7261322188164725 -0.5420638797216922
Ni 2.4212925352397234 1.6003866441019543 9.194802444681285 0.9589420320719549 -0.4582407744574495 -0.0789377521474834
Ni 6.649925366624119 1.8160690028549094 2.777630215607641 -0.5574336773095432 0.5773916084887089 -0.501118290547266
Ni 4.370094019075303 6.75971330112788 10.478658476164506 -0.8786976452979062 -0.36503597086799067 -0.7141185037305184
Ni 8.32394462791243 7.081932966055783 0.2851326215519073 -0.4867429956622005 1.338672885947959 -0.14572447075472966
Ni 7.603482246667463 3.932662669312278 8.42414728344995 0.1957026024450694 -0.56468547377595 -0.8470208830199154
Ni 3.042081053967792 8.334185465349442 12.360159277048657 0.5272664096975436 0.13978188001804961 0.17401868971373255
Ni 0.2669037498205282 5.066280816616801 10.018666498145022 -0.9896546306644635 -0.7100502471984158 0.6020037506104342
Ni 8.5506374714783 2.461395690861757 5.949864979113079 0.307771847039199 0.2924087343195674 -0.3287718463296338
Ni 3.5610316428514244 2.2656788905072176 11.426127898198212 -0.37885719302179915 0.36801382254939197 -0.33350396169798047
Ni 1.2105647755447662 3.329413056079779 12.676136649024238 -1.130778112312072 0.11657304600175407 -1.252943564799939
Ni 3.068765181224088 8.396300535922292 7.980773350477454 0.30965466588420865 0.16437885263112334 0.1375082534925245
Ni 5.988897872148858 7.993023420299322 3.385757582268361 -0.9106873108306253 0.36548771369342864 0.20292148879101182
Ni 3.2065954442357367 8.53923763563993 3.5478081954659157 0.5581353313622581 -0.471654219649878 0.6872682163068938
Ni 3.4120550749017027 4.400191758810602 9.399473413153826 0.39865211626053926 -1.4350195776005092 0.4132742370490883
Ni 7.003211621513458 5.9574147671369335 11.511300698685604 0.4539115509544763 0.2667100440018826 -0.8851853099047786
Ni 0.6186000037780022 0.1887483224663665 0.4362605802841521 0.28429458985286526 -0.5458372307211955 -0.83948009455818
Ni 4.745165822040192 0.5185893073507083 1.7307277854123202 -0.47150560988715573 -0.15890034601505537 -0.20235353210268375
Ni 5.724600963263886 5.528295609033657 0.4860033429224911 0.6136333644295625 -0.05649330710103819 -0.35319809769279814
Ni 7.754514225844596 8.869126610301828 11.511022720162776 0.4035480109002599 -0.09234322692011193 -0.2300484269147909
Ni 0.24500049096983975 4.97681157283687 5.641374917903779 -0.46553705100854664 -0.7239234056360823 0.3483790790376
Ni 8.168394365905 8.937842538957419 2.275362865431075 0.21752149809237378 -0.5577537796531233 1.7377093821311105
P 8.620295086334995 1.6851836755764054 3.6789153622821797 -0.11440740580900295 -0.6404288873558518 0.051017114477815366
P 1.770994830652046 3.464454479188157 1.5208494733411722 -0.15986939479654402 -1.0753055331660641 1.0765843998784879
P 4.703315114141109 0.7924561022544029 8.148522976126694 0.06599764704704762 1.4232356975917035 0.7278651638926497
P 8.392388916317703 1.826146856141729 12.35464588543469 0.05075923283073839 -0.8259023558737453 0.21724818982632907
P 6.410700852843554 7.524914831600318 1.228809040223663 -0.6636629181831281 1.7454476313156326 -0.20969351740752273
P 1.7549046731581752 3.0912569939504664 6.070846302864967 0.24693543247811664 0.28578942923083683 0.18433832647218573
P 7.0180793978808955 4.073870326102888 6.06126464576873 0.2045104305446865 0.7815881073374022 0.6582270918795373
P 2.3026853472756192 8.697957033901078 10.144670450125302 0.8777093132427077 -0.8745949359834421 -0.2831609904690543
