# total energy = -340862.16356957157 ev
CRYSTAL
PRIMVEC
9.35328983350967 0.00000000000000 0.00000000000000

0.00000000000000 9.35328983350967 0.00000000000000

0.00000000000000 0.00000000000000 13.68948511636619

PRIMCOORD
 96 1
Ni 6.374912313873357 4.876833314294678 12.44278325113077 0.20373035784555235 0.17912335793014958 -0.0326686938776147
Ni 9.096242601502546 2.0699204258254547 1.8080114780437644 -0.12431412339975363 -3.1437307727270567 0.6721663276684489
Ni 0.3358981460270554 8.929052547948928 2.8716021107566383 0.10727053765390558 0.1780794900466675 1.073677767754654
Ni 1.6134985945913578 8.460705272335481 6.266539487327658 -0.8678810142983763 0.5702372568321147 0.14937980811912985
Ni 6.6495529596073375 3.8822138398981334 1.0343176419096989 -0.9236248448278995 0.03972354384186707 0.5449270602021002
Ni 7.194400791753093 2.787719937985754 3.2110881787161785 -0.11505275270248572 -0.049584238686030735 0.447556555270726
Ni 5.476734609669335 7.894728358736432 5.196090087270959 2.068801649063805 0.20517017561587247 -2.2900183366195788
Ni 1.1031737547626037 5.668795060559965 8.93404533399575 -1.3046672184264758 0.13250514385097825 -1.1025083188331013
Ni 7.918551187626003 6.073549319439924 0.5122862246807931 1.0658724127776225 -0.9752212288479528 -1.0894519998697754
Ni 7.494800397346467 1.3838285657796598 7.864978350158083 -2.0201813169529403 2.382519943494426 0.27843478863797855
Ni 7.551247500742053 6.611110938902141 5.914501304578246 -0.9251919322047034 0.9909628079529257 0.4311683437206897
Ni 4.027638788298226 8.862279412714283 6.5378382026485085 -1.55341322175077 4.870695000526521 0.7412423565305041
Ni 8.808610236362357 4.182164487585462 2.0896455784933834 -0.7997897179470935 1.7056212433473144 -0.2835302008830149
Ni 0.9037691007922369 3.7804032814124753 5.378037761327901 2.3571796649574246 1.5197955336963247 1.5361660046345478
Ni 3.58590162190772 0.7605524640925082 13.55797037119599 -0.8535586841384333 0.3470145945899056 -0.9412132473336242
Ni 4.947113933170308 6.4335761469300445 10.243567625008899 0.8176545140426564 0.07654559776622301 0.5751408647813192
Ni 4.557259464797252 9.254612502860303 11.201283694857427 -0.9424710310001253 -0.31172748925283733 1.5246099243658324
Ni 5.549924101644555 3.074875285350769 6.956215527990055 0.4601719300418914 -2.639608148135828 -0.7183453973276726
Ni 2.5146412916332253 0.378443454927718 9.014525715299362 1.2507840952547749 -1.7314813989435278 1.2691965363236917
Ni 4.907961062447206 8.76041273449037 8.908213418476622 0.6957356303479566 -1.3511836168204598 -1.3074375820827613
Ni 8.473369626601865 3.2849501722214978 6.630981067560564 -1.9341306079097595 0.6019878097708342 1.917652664859394
Ni 7.012675725991232 3.169259331807248 10.925783481799163 -0.04395737941755655 -1.1716931053588788 -0.6679288925483335
Ni 2.4004937440210097 7.965373755910726 12.200055094555928 1.5155629836722158 0.7522124823887626 0.0010340976914691867
Ni 0.12483181044714178 0.9333198842997784 8.606729766605941 1.707294517284679 0.08448799254175127 0.384711337809731
P 6.9388127971569435 5.421896272103749 2.965293078445659 -0.5465049462121813 -0.5414457865217192 -0.6530103235652882
P 0.40563814475748844 0.22818753239277514 0.8190432612895742 -0.09926026575491936 0.04671668733024858 -1.8929399926040624
P 6.377353522487483 4.7698316800203635 6.164101323102506 0.7437175575438739 1.2518873556212826 -0.9740971425458383
P 2.150096825213517 1.1061948673387054 11.133357299001625 0.11074564068669959 -0.12943601800735127 0.45052078010537244
P 1.8755497123766296 1.1725471045364324 7.2434485076596555 -0.7367874060829439 0.1810002632378883 -1.8044768174646473
P 1.9857221118623958 7.717174860184917 2.1688249171984353 -0.970159240944013 -1.4370412360162284 0.0340293216705672
P 5.410092420490621 1.0077047266998465 7.356866498674548 0.15346271993925184 -0.7665216999225831 -0.3754044585865083
P 1.107775573299576 4.794234412871909 3.2315943310748336 0.8400753049400177 1.5936782399184037 0.4768563326761078
Ni 7.254607917611814 0.3606712691510898 3.428435248335883 1.1641911405548788 -1.1145711635349063 2.53261606095429
Ni 0.11321221864128667 4.25656990722289 10.444556726256021 -0.10954647817227586 -0.5304221817177058 1.451127024685333
Ni 3.8592889268206556 4.7366275015523716 7.061392335442087 -1.0343524877924704 0.25510536988341875 -1.9490687172768304
Ni 5.284365500218299 3.7594612657533677 4.370779186547187 0.5848645198269863 -0.06292826409310452 0.47736386844014556
Ni 8.17312902693355 5.465819320578589 8.362700567432537 0.17818259128343505 0.2792480285678933 -2.438746370087322
Ni 7.230233244629396 5.445101783872505 10.310523149392875 -0.017094750698757655 0.9426121845636798 2.020322984737127
Ni 8.90905521455046 6.564961807476488 2.6737613268256655 -0.3203643389922289 0.09726971768745184 0.6786712186665022
Ni 3.175226730641777 5.248467574314031 9.378488407099153 0.5956968345557999 -0.7076475512941942 0.6110877151895734
Ni 0.6065168771860397 8.940033310067639 10.534468964902485 0.940007399950981 -1.2390657783765822 -0.3031649443948069
Ni 1.2834677671989423 6.888155380091411 4.4290548580809395 0.2913687230908272 -0.1014521311999156 -0.9861923831474757
Ni 8.56092577157056 9.116062222396538 12.423508927026829 -0.8816598132500235 0.039180783964519614 0.8497747916159688
Ni 8.384971685559334 4.918726698902603 4.7126185421975855 -0.827619338564852 -0.647985102436555 -1.5912094666629368
Ni 1.4695046995167869 2.7256795673440113 3.5883839849965664 0.21668049024831718 -1.9452436871037855 -1.1066277403181133
Ni 9.21212986100069 1.7871891844929353 11.08465004284048 -0.28883155849127035 0.5768246802416452 -0.513386823501974
Ni 3.144800479217446 4.5638535340423045 4.085394416924141 -1.2562759716072815 0.2677544261059969 0.4411740487831499
Ni 7.655564740869802 9.32122663216989 9.93304963060801 -0.6816904651088 -0.44238349571021873 0.23880200473770485
Ni 3.771564422637193 8.317618646362712 1.3285328523472886 1.2123481598760797 2.1378421967022345 -0.20834754490258958
Ni 5.8961735333928855 9.23450292998532 0.08500924418085443 -0.22774908935765292 0.02411849031475846 -1.1386410599999164
Ni 6.013473139637134 7.751407900520931 2.493361622215612 0.06534252996155197 -0.5680474482696475 0.705142011263521
Ni 9.205096187139302 0.8644020397347922 6.112217689756086 0.28095446973603877 -1.2925845762303287 0.17737012268446872
Ni 0.5535211376931837 6.186097454511852 6.543943094841763 -0.863019829551333 0.48316016340694856 0.47967529018214167
Ni 4.711747750925651 5.858330123229085 2.915682294498596 0.7045493719848447 -0.41018299971827415 0.480127804338528
Ni 2.5985028871667493 5.332385289585811 12.585989599211818 -0.18272778745195625 -0.8372905431060289 -0.002959596848956193
Ni 4.889768913962631 6.97577699808807 7.2273084709373 3.531786344418672 -2.899457974682768 1.3048636507079978
P 8.26378111079602 3.3112983893325767 8.944572461563558 -0.2771402381962711 -1.0329952024336273 0.47668406876430164
P 4.556586027938184 7.60752624492287 12.940944137692586 -0.5688267496378332 -0.017513326293415 0.12260382557686626
P 4.523288316573099 3.616094041089319 9.76384674910895 -0.3128001534917258 -1.4140208638616552 0.8909528085161752
P 3.268479029043432 7.6832598316990195 9.790733715707287 -1.0480356417065178 -0.2108173465993208 2.3589519263664984
P 4.533558228673904 4.328674417591833 13.517997216965384 -0.6275461178559127 -0.1254893746547774 0.2793439307158092
P 1.7746277164133546 4.604110092951103 7.191716397606527 0.4497036835207158 -0.8932989401508485 0.444729370234576
P 6.8325874859284985 1.0189193210612892 1.579876324073361 -0.04129011699803856 2.2005855984780425 -0.9989303995394343
P 8.571410809334678 8.213712950982172 4.699107715212512 0.3163091950862488 -0.2524730744668942 1.0201386581859335
Ni 1.7547706823605247 3.1837475775669435 1.2997537152407639 0.7329122393982539 1.4577072490060121 -0.49315635538771196
Ni 5.641651813823595 4.72658206840459 8.375062810441309 2.0122805740486247 2.37450298672722 2.0046379699017027
Ni 3.379306158808849 2.38208646987312 6.284240588102496 -0.5385877482476337 -0.13011556057287912 -0.9370226062910443
Ni 5.466848182446612 1.3008274728993907 4.954977243828911 -0.6003438464095081 0.07614373434211404 0.7220261886133694
Ni 0.5055490501031891 7.418440140159796 0.13529159432904453 0.2650647950889758 1.684174129217132 -1.1688227257896193
Ni 5.282784794257428 2.364343279294591 12.935262949523164 1.961072940826558 -0.305504391161261 0.9015938331697892
Ni 7.620031593264196 8.589294299258846 7.236302594321756 0.11297812956164414 -1.4960457395748945 0.4771178138676105
Ni 2.185732859005925 0.5547454833161302 4.384605219395465 -0.44479956135087917 -0.1732733269072758 1.3234833226917144
Ni 3.5025544573082072 7.919870001475013 3.7675649559574995 0.3371294742657097 -0.3045201728711207 -0.4579255572098758
Ni 1.1116384819495142 5.504410993919135 0.9810815228713139 0.6925436057732202 -0.9603070307402816 0.10051162166351724
Ni 1.0971408829001095 6.415851662930933 11.084910064294398 -0.8017576403067418 0.1678714391654141 0.2896777085416495
Ni 2.0963715291233362 2.6741616476252235 9.639464831896827 -0.06491521261614627 1.046731321072797 -0.4897128769238018
Ni 4.905875278842034 0.43181239067997496 2.720087235426825 1.1441735597823715 -1.239529348276562 0.3359022867268279
Ni 5.619662229717046 1.3312350177443035 9.636110742207075 0.4410591204718404 2.960377950096592 0.09820148547310184
Ni 2.766646976270716 7.1702412444339885 7.853233424270123 -2.309555892431874 -0.6385023597571003 0.10513857891256731
Ni 3.5356557495893965 6.240748726283252 0.9166728992751781 -2.3015551336145847 -2.4497874583928323 -0.8401426678428433
Ni 7.842527648868866 8.31181960674295 1.2817411499186067 0.9026495281278133 1.0668062374458014 -0.5865858733934672
Ni 6.46804301950879 7.615326888540421 11.708329271314103 0.03198143800260299 0.12063693165848256 0.36559621424683486
Ni 4.390911207317471 2.3193258959237615 1.6522801397130011 -0.026945418240592305 2.1862447563753378 -1.4410351876669698
Ni 5.725494702777701 6.067198435727314 0.6597567375403085 -0.24138159253942304 1.1897980424897057 0.10775056261411765
Ni 1.3687791226374069 1.9813354189887373 13.019644587964523 0.8442937138967395 -3.1698992035923084 0.2542047124460203
Ni 3.5776613736738327 2.9271868408410273 11.638868935945977 -1.1222793308124415 0.2894041431652887 -0.6748904114678314
Ni 2.2011190205777127 1.0132231676283294 2.0129018364286315 0.24191046845969952 -1.2255615732425602 -0.9155819199187651
Ni 7.981816839219662 2.422483328127558 13.480679461683245 -0.07330986443774472 -0.25244813476622974 -1.4529339959870848
P 3.4213679026315407 7.0564771816998535 5.723915867474772 -1.8841046537006199 -2.118620629468461 -2.1111562027706157
P 3.663328154121251 1.8513808117678157 3.6000194773949277 -0.1653008502247605 1.951573228866239 1.5620685834329227
P 0.13959597825326134 7.588754192476319 8.495242294587047 -0.32823962797524764 0.43918787159105654 -0.49229220761520376
P 8.419550797614592 6.663601600750696 11.89269851207678 0.503853687200558 0.033310441226671664 0.9429466850849632
P 0.5812947961559594 3.7947792876956594 12.99603033743547 -0.7725023429860501 2.6089719113072096 0.02666002578968957
P 6.52151577677682 0.960049715630997 11.714475317982078 1.2089285926715696 -0.17648309209382507 -0.3647984009358879
P 6.497066277476728 6.971596077588016 8.785090454059368 0.6430113033710474 0.6114654102439663 0.010699131585058995
P 8.73936783264446 2.329034610642008 4.751538516006927 -0.7027920229741057 0.3565703565991407 -2.3818473429074336
