# total energy = -340889.4978449447 ev
CRYSTAL
PRIMVEC
9.03971374318861 0.00000000000000 0.00000000000000
0.00000000000000 9.03971374318861 0.00000000000000
0.00000000000000 0.00000000000000 13.23053481142655
PRIMCOORD
 96 1
Ni 6.566122517298323 2.432306694173916 11.658985057741766 -1.3557005308542072 -1.5225332443424617 0.36573968180323463
Ni 4.606032381294456 0.49244924511243254 6.146205222065079 0.10182931203367625 -1.81271643176562 -1.098416665262231
Ni 2.35374254342052 1.3110206212880298 4.7650698703100645 0.9992587294131305 0.3638707469152959 0.7792160075608
Ni 3.3683238371678628 4.727444774433205 4.78858035739779 -0.30725505530378056 -0.7916254369687463 0.5588752948520761
Ni 5.3763606140181235 4.2480235645371796 2.624819146560241 -2.6143856261236134 0.2900075810772425 1.5285678805723157
Ni 7.105847656509262 6.02139841647576 2.4994328953302265 0.35634667062410885 0.03380409303363856 -0.6936234691009603
Ni 4.7569684789966145 4.633585428296683 11.28610862405386 0.7825432721618201 0.43289586793475765 0.2917263635405621
Ni 5.683719915567568 8.0997280061506 12.575728627404528 -0.5699114980615798 -0.3140548518344333 0.6089521569038092
Ni 1.7826315186479909 6.292951412521328 0.5438888312874555 2.3450026632752583 1.2581559622388139 -1.2283149676179814
Ni 2.7908669334597813 1.5663021328834623 0.48544527502800827 0.4846269777604621 -0.05686894527290206 0.02770286523190713
Ni 0.37412933799056797 -0.10765575700751853 4.806441927467246 1.3178310095019434 1.5212764891172252 0.3157525512518304
Ni 8.567506064951196 2.387198523392712 1.4627675812986194 1.12224822046419 1.130124023667841 -0.30600961293245366
Ni 7.063541796938914 0.703477742831651 4.8646423154313 -1.5064247688163734 -0.5537719121872399 0.35175288060583937
Ni 0.9295085492138929 7.610598143865994 2.4839008594512153 -0.12764010244919308 -0.15754151799431576 0.40611988539249405
Ni 7.843587721764744 3.933848318945846 3.608971860414475 0.3336965373247608 -0.5234976866837308 0.6611812894118548
Ni 7.823591875318247 4.180894651466794 12.630331209362385 0.6653978985963638 -0.7170223076408747 0.2601478174033326
Ni 7.795885153185101 8.3310000384685 7.113899329398002 -0.20693343816388232 1.3123913265436107 -0.2773729230323675
Ni 7.068875227953124 0.817347398956404 0.5031766732218624 -0.5573076932546401 -0.8177524730731014 -0.11070167482264161
Ni 2.1040204556788837 6.621888510394365 8.992225256039946 -1.7932331262300276 -0.07638336115674588 1.4248760614086042
Ni 0.061699661092190654 5.088509014381674 1.4221901149654188 -0.556987333800744 -1.7462282182353988 -0.4653470464849276
Ni 6.512869564578469 1.8102749627860517 6.961153481036447 -0.46770757629730425 1.3519420922530394 -0.1321171643839402
Ni 3.571852988498286 4.039667206153216 0.21773777314082368 -0.49881149679096026 1.155513410275223 0.6683613521000619
Ni 6.253059156477749 5.51983894801397 4.725205637378595 -1.5516414745623277 0.3641137161640375 -0.668563697918855
Ni 5.108947806793759 2.9656678750221355 9.65340798695755 -0.134914010402787 -1.398211150522908 -1.5153295275051708
P 0.31713123193310766 5.724669818100404 12.35688258537838 -0.6359351132505563 -0.5772229441213284 -0.43046000479975544
P 3.743806420281867 6.197501076794126 12.48830194145396 0.8618471493994705 -0.11661726897612819 1.6306954405727014
P 2.4220827781110823 8.509055276920883 1.2412358403668393 0.6901871897259017 -0.14298855988080536 1.365983400837454
P 6.250347242402728 7.639055162226562 5.682475147007133 0.1443720704918933 0.3550621474847304 2.515022516242243
P 4.599053722408066 0.9892248971458839 12.501016298609024 1.561217805396853 2.2838739142847375 0.833715424160261
P 3.921961095583665 6.1012914051259175 8.130970160266216 0.6456191733075397 1.1963679823977396 -1.6452985351978568
P 4.8640800452464115 1.0822073910648151 4.042113352648887 0.8475363892037533 -1.0833458869720374 -0.02369837205820435
P 0.06401473174090136 5.721831348035215 3.470673282301921 0.6228101458328241 0.11371809305146223 1.1234270712636394
Ni 1.4319177507525238 1.0531627913213262 2.5248091793015686 0.12774783167165096 -0.8895782967661517 -0.09700797938563292
Ni 1.641937416435834 6.782967166737107 4.8183888129390775 -0.7647602371467862 -2.2086282662768606 -0.8310648739112914
Ni 5.74484645881857 5.555618134377098 8.997596653851208 0.8459947557482463 0.3205422593309899 2.440875243504867
Ni 8.33030398052258 2.1885236982565788 10.076030868466308 1.9368762889756963 0.6558223390927866 0.9213825857609422
Ni 2.1424482781219494 5.434079185248181 6.926912853925215 0.7914775985369724 -1.2334869987372241 -0.5957757674228513
Ni 0.6093598608866438 8.891534598348445 9.011277356388337 -0.6103963455495036 0.02934811414481397 1.6677900314321534
Ni 1.6043502873560251 1.1340501484656582 11.365995284904507 -1.2873014734545185 0.29381615619005524 -0.2204453566073881
Ni 4.304729687845896 7.036449775329441 1.4230497917272011 -0.9896374042732828 0.2713763391293003 -0.7078594101946841
Ni 5.584843528392255 7.881491240819972 7.965179101232444 -1.403585270350628 -0.08145717613522745 0.41951044776678714
Ni 5.089422025453598 3.072969275257184 4.864153266926437 0.930281945133101 -0.32123902828769835 0.5289499680475536
Ni 0.8285928026541631 7.382218819894784 7.052139102224802 -0.05505040400692454 0.36844448232890736 -0.3463705332480035
Ni 4.9582557813583525 4.255128779413738 7.209979733161967 0.5869990496714859 -0.04028121611754998 -1.5327531222982569
Ni 8.205908481901306 6.96256819621225 9.475047206186051 -1.233304707523089 1.333640208620058 -0.9330047433809028
Ni 4.687850828937879 0.408917771744954 10.31240762704476 -0.8437339847385276 -0.4960221069712812 0.8857820629485131
Ni 8.08689161286216 7.240620746324286 4.62674417305676 -0.4733861147393203 -1.4560149489052536 0.31388361636389167
Ni 6.856234045330626 5.916076713515478 7.08382691422008 1.5046674198056345 0.32145937182862055 -0.5308240451418149
Ni 2.122127001986449 5.442242046613999 2.750403367517732 0.2567313355226159 -0.6548455770018141 -0.510307927466334
Ni 2.352567380654677 5.041231312340451 11.288768107790098 -1.2172628235688778 0.5148397538984165 -0.10560549124665682
Ni 1.261284117152121 3.152509715077588 3.616870762143656 -0.6359860210931498 1.272284431220396 1.1228454877285565
Ni 3.648256647705248 2.1753980341334707 2.74812716763743 0.4128759731694051 0.9793455354289715 -0.02349422646719825
Ni 1.1585025737087757 3.1043551608187756 7.821613985986196 -1.024914739418338 0.85333242706024 0.4556095074821895
Ni 3.5312104362272856 2.427777797668629 6.81316975379063 -1.0174649680085122 0.597286547640423 0.36764229814258614
Ni 4.1956565037484985 6.772634774111271 5.880522616020578 -0.08744990338355262 0.5427341663158395 0.4014641317880376
Ni 0.8802855008095215 7.422535942476782 11.119801397374475 -0.04326703821875129 0.11372169259588802 0.6545442437113114
P 0.049011519106519665 5.56772231086528 8.058546686950029 0.16939070402341794 0.039224492718261485 -0.7188570468567683
P 8.338177571053729 1.5709033470974167 7.981677482493522 1.5500157660334466 -0.46596873922932647 -0.5276633880256462
P 1.6456798578593648 3.265551333438101 10.195780858277068 -0.2079546803395451 -0.13566914340125666 0.7337123667020461
P 4.145377616797585 5.966681030155394 3.2746100304200336 0.9327643452353226 0.5869198596941182 0.9429582550491888
P 6.689523647425421 4.177097971761763 10.429577682598815 1.823623308486111 0.35290087816735355 0.5938880634818352
P 6.2313276850232375 7.815799642209349 10.540436210128934 0.9731154953588597 -0.03899746430911994 -2.1659248138710634
P 2.4451702066031054 8.385021366842945 5.7366799815673195 0.6131096307156086 1.6890294004269042 1.5585582562868192
P 6.985836418975941 4.003517391533169 1.4586662632458274 2.23501138425608 -0.06919070006304859 -0.8951097681073423
Ni 5.465763381358026 2.689504625049031 0.7199887796917451 -1.0389843301375268 -0.8779453405129137 -1.0857591243992204
Ni 1.2140244945380656 0.8231960936448688 7.082186206204692 -0.4314074563146892 0.8477639318335269 -1.9036005576417023
Ni 6.815040070531037 0.6228353619254297 9.226974866173386 -0.2078261251814808 -0.8698211687438826 0.1577430924821606
Ni 2.6553435474173335 1.7411663524409002 9.223349941026438 1.0041661940170772 -1.1851780272191912 -0.7208159703553522
Ni 6.533208920141136 2.0258992508910745 2.780040068500934 -0.3392809733910737 -0.6744147573829933 0.3342153859427083
Ni 4.057222329932194 6.821702339442008 10.407217951050256 0.7817251471358988 1.3881995319231768 0.10803261263091073
Ni 8.379199791295232 7.2849063031694 0.4864667626629333 -0.4999798060674487 0.2084838133701377 -0.3739170754077044
Ni 7.642173863412839 3.7815291450654267 8.46559685386865 -0.3833000592845011 0.5353584426770587 -1.3436644256252794
Ni 3.0804451183906623 8.56483934944409 12.414197081411258 -0.16615137115051387 -2.237743695585578 -0.6185937937586314
Ni 0.17029193242695023 4.892790175587315 10.09041305277751 -0.22813604038342647 -0.5944187391743248 1.1679511218179435
Ni 8.747622358100594 2.3637856652116866 5.689989860909019 0.19489733293495468 0.9413526011249659 0.3734709890092213
Ni 3.496362340363249 2.663180979094148 11.515857464632955 0.3217511920374265 -0.4892356801770671 -0.3218458086337619
Ni 1.2553179061870718 3.2496866360992205 12.720881116356022 -0.5493622131553184 0.3906040491450821 0.29772860387058403
Ni 2.985907793735385 8.707124441246927 7.9931479750595065 1.5608465381003636 -0.7678399045133744 -0.2762033282042985
Ni 5.761551849520708 7.581842814957175 3.6720555016562852 -1.2000040364884301 1.6088140671185776 -1.4294811642807832
Ni 3.3448567407053367 8.121251564192693 3.729502881478841 0.22994429723675883 0.5930185163926883 -1.0964842241262085
Ni 3.204460949041432 4.228967848303356 8.805820034150573 -0.47451174370333116 -0.8497915037865171 1.3210361467028024
Ni 7.1841496555687385 6.148216558337388 11.542318514234307 -0.14046090836294517 0.10986555207459145 -0.20429368654819008
Ni 0.5978071069270489 0.3239652554021638 0.30930103202715986 -0.049709194299669225 -0.795637643451933 0.11654502097729608
Ni 4.855998541302846 0.37591196950921596 1.7610501064389636 0.144843353701357 -0.2848098389263869 -0.2788068272654166
Ni 5.705279632463995 5.417581707958463 0.28951852282123053 0.20924948789156864 0.3235905592390105 -0.20463230083453143
Ni 8.045155255247568 9.037354218162394 11.56762880829649 -0.609041374183506 -1.7055495095691142 -1.1738551460072042
Ni 0.009516106489253245 5.037136322087168 5.897722479055727 -0.6829572476363658 -0.6423497585276485 -0.6884912900807175
Ni 7.955002191680243 8.809056251613432 2.7614770166574063 -0.3723278765437136 -0.03081004340232113 -1.0368857957372852
P 8.654802579026164 1.6444866156663551 3.588808779266684 -0.668385520469778 0.22108350441201924 0.41411061690745454
P 2.194300075236376 3.326081255592599 1.7551227662423232 -0.9559140438789084 0.9523836621281467 -2.018042930453699
P 4.781556499943483 1.1611692892158811 8.262812574937499 0.06633549000244059 0.23538886529109787 -0.453844959382599
P 8.60680169989827 1.806333647663686 12.384097547092587 -0.14696888468479205 1.7384100077425608 0.3067907140728523
P 6.458604163937273 7.795369889510847 1.456973124891655 -0.1564264305532661 0.5200763197070075 -0.6385062164118422
P 1.8113326092753104 3.4116692638003023 5.781108365887052 0.11031240980402293 0.04162101797489606 -0.0772937887861572
P 6.9258398399228644 4.040742932069642 5.9293831719102545 0.33392048041010874 -2.5599579433023525 1.1398962725632562
P 2.532213608697738 8.548359951581538 10.164331694720392 -0.4496658883042449 0.11006404123864272 -0.1823925155997246
