# total energy = -381172.6677751829 ev
CRYSTAL
PRIMVEC
9.21904734958934 0.00000000000000 0.00000000000000

0.00000000000000 9.21904734958934 0.00000000000000

0.00000000000000 0.00000000000000 13.49300767171159

PRIMCOORD
 96 1
Ni 7.246973396771208 8.636726370190773 3.4833553324864077 -0.1973671346316859 -0.4422243444245351 1.7436779410097194
Ni 3.8808778952266074 5.658098216271687 9.22765256484302 1.1249489072248047 -0.21326400836760045 0.6336884833082248
Ni 1.5200918670579942 4.235396367066031 7.314276131183288 0.7933449907630142 -0.5003402747306609 0.9732612769081044
Ni 8.38261254473812 1.6016619993902064 4.540910069983087 0.4857369229951893 -2.1484027458269 0.30057661484234044
Ni 4.211399186408171 9.09528179313429 0.1590553047145596 0.5883501643827416 -0.6560105438441928 0.5262353973298679
Ni 1.6404741893900494 3.1284653330324965 3.2759940626504283 -1.5973531176668296 0.8636600342384934 -0.3696611283448279
Ni 8.292855898220665 2.813634860705977 6.458725475016909 -1.1216614947227843 -1.7865562284304846 3.175243241513041
Ni 2.6337620248183424 2.8177281177985973 1.2299776610947952 -0.925703067513167 0.8924826148971404 -0.41941583117045184
Ni 2.7869549372238995 0.9983583115565382 2.8899455264360725 0.3723049937255782 -0.3964417388727817 -0.11911920946237549
Ni 4.097894273515517 8.218135518185338 8.540588298989737 -0.5806985613747547 -0.24180685300229968 0.4620760890431396
Ni 7.401613699635193 7.447672060974674 1.6172587839606896 1.5881408550399423 -0.6615451005091768 -0.9033756076605604
Ni 1.2554498893535997 2.8847690312615093 5.456100588274641 0.9475960109315165 -1.5027640321353346 0.2518976615793984
Ni 7.264452710842397 5.656282063913024 3.631602225905049 -0.02733108371478519 0.023015487058566812 0.713181850848862
Ni 7.410408670955821 0.42701521761632777 6.477277886217784 0.1891825419383645 -0.030006830774735416 0.3821991129108385
Ni 4.77536519853416 5.3007126206579285 4.609940453897773 0.7319560461325717 0.7672110126801239 -1.330030894002245
Ni 8.233586641805228 5.725434139254788 13.271195943787497 -0.44033844025573193 -0.8296391972083582 1.4741018883139516
Ni 8.898252309838174 8.116993347998099 5.067892951134403 -0.3483790790376 -0.2759490461016473 -0.07119950296296125
Ni 5.975510021899859 7.969193578383493 9.982464845102916 -0.022576085528303053 -0.15907492391970668 0.8639068601419766
Ni 1.6252351038627952 0.13226567456716182 11.756376449998127 -0.06503528313377832 0.8795450808998659 -1.0733072717891128
Ni 0.6931184143504074 5.784592767100155 11.778046743065499 1.0620586954584872 0.8673102293965709 -0.6779618513043033
Ni 6.669261784813922 3.4609318432378045 9.154722523833337 0.8932670584716487 -1.1331304145943324 -1.2764084806910985
Ni 1.8120130063323499 7.40661042338339 3.8312185739313214 -0.7853969395605312 -1.587652345439298 1.6442464397842587
Ni 3.81121877227202 6.509726167724304 6.391570245364924 -0.18100746232673987 0.31921325610692125 0.626143066860799
Ni 7.343589014633051 9.012752879861464 11.871998056198137 -0.917199143807214 0.5693473980279937 -2.2515163238896383
P 1.0308554540148394 6.587876033431827 5.900519523772608 0.9249978139160262 -0.482509160086511 -0.38486560399940817
Ni 8.178779404382647 0.20721192126638407 9.071281846762178 -0.9048619623980997 -0.7139369838473317 0.21443874540199198
P 3.1057127237879327 6.08249706820584 11.671033883426501 -0.0344538108024955 0.4709121992775309 0.5648996466692852
Ni 5.996787583543478 0.947625893131565 9.24032230183038 -0.4005673310053811 0.31800329495922003 -1.3028029115242272
P 9.11302845958315 2.182342144644393 8.908191364954286 -0.14357040052620434 -0.005027278011262309 -0.48045973375664996
P 0.5646712692601898 6.53326239600687 1.4528462907404511 -0.25675627522328043 -0.19545191988684404 -0.7377718814834004
P 4.561547829729797 3.708076068775999 8.617512031378975 -0.15896153827029397 -0.8662141681189146 -1.22355328456328
Ni 1.9574158235954207 0.353592879469831 0.4673789733114142 -0.6961495779569237 1.237048233725921 2.3300822945200004
Ni 4.064613512019214 3.59451584159831 6.05212676000715 -1.4151500923700917 -0.8835220632697428 0.8422640850612204
Ni 1.2664943082656692 0.17868081304512165 9.21082688124 0.9845309362846528 0.256405576752081 0.1041157940750078
Ni 9.371807123073792 3.530729251904981 0.7714397543415401 -0.3513530740642594 -0.5194916508481311 0.2538851243230724
Ni 3.0203351248357833 1.5682337331338094 7.350599178356538 0.7924880420793577 -0.06160286041346164 -0.09206349089616403
Ni 3.9023582759153568 3.1531355041582874 3.739803420767557 0.4644407326205743 -0.416370873696541 -0.23937098986729746
Ni 8.356660926009008 4.481987449753871 10.521320937537082 1.014109164162402 -0.0695128592891577 -1.3674995803716643
Ni 0.7678968743850224 1.0869164818982233 7.145788818965442 -1.4372250698922604 0.43300025472310594 -1.0293915442427692
Ni 7.682720896185126 6.651837785027769 11.195202887361678 -0.4446802621641955 1.2215725066878254 0.7060282705232163
Ni 2.1654528496135828 7.315636862595159 10.13782331176761 0.19620936687815888 -0.23236370531152883 0.2705191333353277
Ni 3.6073026604889953 1.9789422995216992 12.605127136724153 -0.673820318332104 0.30135154533515196 -0.20605154977956125
Ni 5.162436127116919 0.8844984653349078 11.347133712163675 -0.08573266358212978 -0.03148444376152642 0.20783743803539043
Ni 1.9297771191727293 5.020877652663809 0.4182239339147006 -0.6322877463059562 0.9031400946109867 -0.1829481309928785
Ni 4.932079787086971 3.3913649107582757 10.78877933425453 0.7812394657487319 0.5072539711313586 1.1818345646682549
Ni 1.5155745337801025 4.760882074902389 9.723641930184247 0.17018568912088755 -0.7443623902167245 0.03200174971757714
Ni 2.283263057691492 8.355692926020888 6.624810303454718 0.5415411744490028 0.7348783619856892 -0.27802881144881153
Ni 5.431364961911557 6.677706432329328 2.5265389708962096 -1.8629125930040369 0.6383105554612685 0.24676908210358148
Ni 0.22062286967321829 1.4481556393694486 2.341738554116671 1.4281537037186114 0.5139033581270762 -0.605226628423106
Ni 3.190269827512057 7.767195028481697 2.0828216049134416 -0.12847596808692713 1.041838254646554 -0.9485969413922051
Ni 0.38978225045424536 2.5588203876428732 11.01275056198189 1.0714450217693936 -0.18916737242971293 -0.10228825394796578
Ni 4.655213352389751 1.9355113667213997 1.3695807755719036 1.554949198779322 1.0232347806127537 0.4216218376828352
Ni 1.311769050567149 0.4319050004134577 4.561932264010793 0.6877793516153574 0.8410392115151838 0.66608618291264
Ni 5.211472240800806 5.898392689512996 11.365754344316095 0.8138724212924048 -0.05161181063902079 0.6539878569872092
Ni 6.721930203215134 7.721994038560265 7.7274323546839945 -0.4212181744865133 0.31320253113646707 0.4605557957438714
Ni 2.0962731171293014 6.366047312344838 8.108379991913337 -0.9948922249143188 0.7448264743373366 -2.2483037304896114
P 3.907557818708685 1.2199749945508926 5.143710397822932 -1.703259427983357 0.1940745799233432 0.30414736291273425
Ni 0.36392190029544247 5.441634980833131 3.4750840030641132 0.3257695691682002 -0.1717373498787236 -0.5959081792356575
P 4.524358192090992 4.4416448978680485 1.9922287907872038 0.2841405807735042 0.1891601733408613 -0.972240548953074
Ni 6.46567755874111 3.661851764581411 5.245798442284278 0.5864706879718417 0.5184207863814556 0.7966048924612087
P 7.870697274830447 5.13650294648282 7.782429504485198 0.29763964370120355 -0.9183252869918571 -0.37503344840033476
P 6.224663999794339 0.7675271905800357 0.35182927568195205 0.6464763791015123 -0.8188243659810415 -0.13223260691588193
P 7.057383684812354 3.9716025417321794 11.941554847725408 -2.366754967350685 0.2743845298280049 2.225372061394103
Ni 6.587221481058909 5.817301947651091 9.306303024830115 -1.3381563513228567 0.23635971384479942 -0.08306540116261177
Ni 7.2077555686811055 1.377344135476623 2.476371680083348 -1.148655506813125 0.5430211014286389 -2.1151948916163636
Ni 4.847688626217953 4.099443073496508 13.184436409614213 0.03781912773030261 -0.147672595620036 0.3774078621697823
Ni 6.279037941984143 3.4423923387034376 2.9801059672342833 -0.15411063793589588 -0.7350447123602245 -0.03433039785075377
Ni 2.005410184911141 7.385074728409605 13.244183212690457 0.494052127729104 -0.5624247027662314 0.26271403546861205
Ni 6.9088648294922885 2.9443701733871595 0.48984579208329493 -0.3515957862026848 0.4607224032287227 -0.609807305815253
Ni 4.160980215598398 6.335062093677504 0.4158657015626911 0.12684871689614927 -0.15950969746428012 -0.4251895004294355
Ni 5.51293509424377 2.0067100706094734 7.1273571772868936 0.8048481063066074 1.3734959071644153 0.27406262771221185
Ni 2.9619877731709363 2.6056531489728503 10.010125675239623 -1.3179713917345495 1.3963324454429564 -0.7816145896999636
Ni 2.633522329583189 5.459897913942321 2.496071862698708 0.8704762858293783 -0.25522004108441204 1.0046716728985858
Ni -0.19138373860350263 6.418927768838685 9.20617126224952 0.19714550553918306 -0.05806887911827418 0.06362631860139364
Ni 7.211572254348549 1.9454587189802668 11.171077561943484 0.3856526186770778 1.3061561442671765 -0.8915405626988452
Ni 2.404843856199314 5.033977919169694 4.936834971790514 -0.7084667047613799 0.2778963996360053 0.364012928920115
Ni 3.8560878764832394 8.262340850976134 11.514636430107892 -0.027476093933081713 -1.2726677827017436 -0.3245711779847249
Ni 8.408379782517112 1.3527016214933496 13.266271128609844 1.3288785255653566 -0.131724814041528 0.3689273355025969
Ni 0.2758265261385535 8.38134953522981 2.615606032660221 -0.43468021352869013 0.20956444802882618 -1.2679973738092678
Ni 5.570415855443063 5.101498223102913 6.934150832991474 0.4609581733886126 -0.14635979034588342 1.9989656021072737
Ni 8.809417568071312 8.120201576530153 13.150905811930501 1.9493507672936234 -1.19256583504283 0.9822405975885794
Ni 5.914452270268276 1.4783203628087567 4.579904797123547 0.3149650223535285 -0.6901421954205792 -0.05720987355208858
Ni 6.169598629041593 7.613310687513197 13.172224859287896 -0.7708491236533433 -0.4453860299819684 0.1742133222230419
Ni 9.350050170959866 7.861810113034759 7.380917859889196 -1.0530860596462315 0.7695782273607197 0.4300956794818012
Ni 9.086284002768531 4.674084742634331 5.8184146866850535 0.2717378362337772 2.076530128056314 -1.2403564721635476
Ni 2.4334782177526426 4.080617778489459 11.926644882194115 0.5598628555763261 -1.307922749249296 -0.8237323448056201
Ni 4.859756359403177 -0.14276616967638306 6.573213138373692 0.49523689206582455 -0.6905651418906108 -0.6653230794943703
Ni 7.426117927905877 6.250154666148156 6.002364185379798 -0.3904130161801985 1.337389134139529 -0.9107626441532509
P 1.4503774298183707 2.2738504101879666 12.948227818227519 -0.8235413118407365 -0.20728876462077203 0.15120220603984927
Ni 5.0750211186659655 0.08929108461840424 2.6872407974953236 0.004505344069521273 -0.8698998445006179 -0.06509313295490725
P 0.2594313720540592 8.062739253425871 10.756207517511431 -2.1318705524998314 0.0928384213889756 0.42442202613579166
Ni 6.704054470101192 5.058316204585273 1.4829215894189518 -0.3210459384402858 0.6933416761944833 -1.6513683955410206
P 3.30899272129305 0.6522854091372707 9.76250113732637 1.3561209062210775 -2.52541491522016 0.6018751954523699
P 8.44499783921055 3.4740597668862074 3.7975128143449965 0.24650760091207868 2.036436602469538 -0.5889335476900374
P 5.96770148866236 7.303126615129652 4.5978367664272755 -0.7585425383718484 -0.15836427100592726 0.7762330136730761
Ni 3.7606522967021525 8.11368370994348 4.532031205330154 1.805299827586575 0.8251595641704498 0.02456740492671898
