# total energy = -340862.4601004571 ev
CRYSTAL
PRIMVEC
9.34925721921417 0.00000000000000 0.00000000000000
0.00000000000000 9.34925721921417 0.00000000000000
0.00000000000000 0.00000000000000 13.68358297772205
PRIMCOORD
 96 1
Ni 7.5278070086234585 2.983572411805047 8.639581429249066 0.5130893468662131 0.06539780867951964 -0.13822096328883293
Ni 0.3730484583810616 6.6305400794493625 10.857252392386126 -0.11799589449120969 0.4418615617684777 -0.02628952982414827
Ni 0.8618996234352059 7.933536731098433 13.675619686601898 -0.11436678237905465 -1.0189888608522062 -0.6767740016437893
Ni 5.923324854274882 5.735563718333114 5.207684078350477 0.4100138211302616 0.6754833078568238 -0.15197533676044794
Ni 1.833669849736541 6.770704146074816 5.247585773918165 0.6725939021241707 -0.17387290816448764 0.44299927491734675
Ni 7.2851937796392985 2.202600895167906 3.136797390988916 1.1540843911381802 -0.5406883395304044 0.3412085294310898
Ni 3.423651305890341 3.7838875419592677 8.788431890905317 -1.0448896398783682 -1.5723193146266532 0.4594836457256151
Ni 5.667080408032191 4.591046328514892 9.464592622769826 -0.258221032694265 0.17551969973929127 -0.15914228682253237
Ni 7.946485452568299 4.866643737532042 10.415930047069429 2.6545426579584737 1.9853490397651035 -1.185398113649797
Ni 3.017117547280776 6.1943224286615814 8.766141391462387 0.29569511838032303 0.5985965247010981 1.9559968118552313
Ni 5.176898843653019 6.957175084498287 7.996686290064656 1.9679658112916494 1.4386147511509355 0.5957297446762643
Ni 0.33119744264985956 1.0054191385339704 0.008931345574125924 0.20227768455942585 -0.07229607846124969 0.021199516895750586
Ni 3.7320459097929035 4.278556749880343 13.605121611335809 1.764135180422807 -1.0380667034192639 0.13297179907475162
Ni -0.10887584188100706 8.242754069650344 2.117712442944111 -0.21117858659348146 0.31208384415099155 0.9769397542009562
Ni 4.245965238657268 9.314235060824085 3.6051587235713187 2.240132250422413 -0.18344795344743245 2.2528805512270167
Ni 3.6108982326762655 4.95289998611038 5.120998698858445 0.318113081064207 0.2384659615545248 -0.1436015108744559
Ni 8.03733218651971 6.033973315354941 12.702606943994898 -0.696060103566911 -0.4486497883349047 -1.7832970980632386
Ni -0.024867154776572944 2.592343387524849 4.571411018167589 -0.532931835513437 1.945018715577173 1.4435114171216041
Ni 5.674307383986131 4.968859168456275 11.838502765669734 -0.1439781774875843 0.5188763858616354 1.1733216421012373
Ni 6.879707137856177 3.2060379911375354 10.938491829454911 -1.356016262322413 -4.455754431518604 2.0629367056425956
Ni 1.5732369361880727 4.3769576837939566 10.473524277301072 -0.06996743032807304 -0.5374610908423583 -0.7837560615229986
Ni 9.046369487659339 3.8618977455293577 6.655366097493467 -0.06177101056020974 -0.25177424862765674 0.16764338231500805
Ni 7.1822771544116435 4.6788452045607585 3.395238912715664 0.32497895494610485 -1.0154965314282318 -0.3441948657529233
Ni 2.5077139097304517 3.730587425641785 2.102400229208841 -0.7831693357815931 1.3443588805891427 0.24907201920514527
P 1.3921698685296442 7.1343248133149295 7.726366536837931 -0.8694933530908187 -0.7690802046783787 -0.8100347927138694
P 8.608020206189154 3.040256959293716 1.7788794617928505 0.7476171497085964 0.9680938737745522 -0.4703337010662416
P 3.525782593498162 8.592706122602408 1.6930149470986917 0.1023594735055334 -0.7921211456582422 -0.15340898388318097
P 8.695772335948126 1.4951519385589513 6.83191186428343 0.23792602989065473 0.2018107722253363 0.5030671867435207
P 0.0729765633972546 4.440495236941407 12.118646718550275 -0.44656205256794057 0.5058581192250965 -0.7574500766386181
P 4.576835457298864 3.0486712909347853 1.827250649620143 1.1745328888005189 0.562002013406516 0.6164109271746997
P 0.3189246724884913 4.0721064484380225 8.746546282921813 -0.5843351296860775 0.0432176730380546 -0.3118552730799532
P 7.063513537926642 3.8169745638234276 5.530055822034594 0.5776080953748891 -0.011410041609154544 -0.4354235194526178
Ni 2.013446719876672 5.023421434519918 6.967749094593897 -0.9356540080782918 -0.49626764732318407 0.023755450548384894
Ni 2.960732176028234 2.2717573520001153 3.8838797194787817 -0.1589008602356876 1.4036572612391438 5.291668920212713
Ni 3.5128619198004314 6.439235574960967 0.3766226794770402 0.23001345991179742 0.4721995506303867 2.068414440927715
Ni 3.7351031169558246 0.7539839502870186 11.808494454260467 -1.62073164449177 -0.7275805427726953 -1.1154707925310403
Ni 4.685773004278572 4.884360580265183 2.746090055270464 0.13371381944709876 0.16559729841925672 0.7863906709323683
Ni 3.334646375642588 7.6557328973398455 6.7570906924053045 -0.08690662928557291 1.2464263325067113 0.8481210580626297
Ni 3.943909431257645 2.982151324683444 11.61848388699332 0.2887032604435221 1.373277363395706 -1.385690649458394
Ni 0.14776033824586324 1.7222921465809224 9.020642201203902 -0.2230948784150932 0.8089945243748132 -0.5174681926601992
Ni 8.042165752584634 6.790627413549392 6.22229447181371 0.7807149607038296 -0.7064067369085576 -2.4337301478196536
Ni 2.108874589943775 8.750932954484023 3.4709501338962663 -1.6555220126980779 -0.1857596322997446 0.6523742326431862
Ni 8.638676421134782 5.598494255900098 1.1710393631508718 -1.135419210628509 0.6438703089372331 -1.5745492323984365
Ni 5.864873297141588 1.3973306586028331 9.590959990281139 -0.9571905965984869 1.6109923057168192 -0.1274758089571869
Ni 1.52490127553882 3.8741265741810453 -0.08609731120289504 -1.5308363648915184 -0.7127301080234241 -0.20796393631092572
Ni 2.104302803085461 5.839396570783907 12.188378154711291 0.7662010833583708 0.24273887789826581 1.212554362349615
Ni 8.362480659645378 8.219624006894781 9.8653709785369 0.2239672537177175 1.3041231729975475 0.2506506765461748
Ni 6.519340012183945 6.734634711106766 10.325960273460169 -0.2799784789760146 -0.7173408673225581 -0.8980081727010599
Ni 6.7367663417891706 1.4986579100760633 5.79845897749863 1.1955835388232312 0.6074321207148571 0.17228268085923235
Ni 2.6455500112685426 0.7700179266919448 7.604445676136053 0.0748574114305227 0.1524841580760664 0.36583841216462804
Ni 8.006367446080574 3.0708664279524496 13.319394281948547 1.1621090612148695 0.8664473671756432 -0.46806213142324554
Ni 4.999982846270852 7.1409160397671 2.66970849233579 -0.375603719081508 0.813849024253637 -0.05191622925331704
Ni 5.111304453882196 0.27242427106272965 7.439052638473461 0.07119076121221288 -0.24088716940150776 -0.3344604120739788
Ni 7.360530095599004 6.9324182509587855 2.9949532628124618 0.7908502493656187 0.9514061287062259 0.3725335647966165
Ni 6.851706112006175 4.960145660579078 7.427859707539364 -0.5391904148286392 0.08757511610750723 -0.69826970962372
Ni 5.330553888676321 2.8299547638112617 7.535959561057916 0.08456949651196403 0.13245269334648802 -0.4649312991037477
P 3.283300254117308 1.6628776159375955 9.510555441896296 0.11619817916083859 0.26142822677765304 0.7961086695510806
P 2.382293621991627 1.7605399585182713 13.661101224818102 0.3663996839847367 0.013757458795408564 -0.8687976125753746
P 4.572469354102887 5.048383951721757 7.523986902058413 -0.07717808914389934 -1.0760912622921532 -2.1590190878901656
P 9.426108274620788 7.024788913862967 4.283152844807843 -2.270733520248038 0.2689818707551948 -1.3548515525903506
P 3.7851403424480496 5.017428560540001 10.64997374674003 -0.08759002850584269 0.44340550921683 0.9989789933891828
P 4.68480068151116 1.3266409235604735 5.426594135101745 -1.8077364620525254 -0.3433559147913958 0.317397285944105
P 1.7046874949363302 0.16598297580320528 5.827345378022421 -0.4109296480763116 -0.49139334995001815 -1.2337590214516883
P 7.597945137480459 0.0476316615686165 3.165395834385434 -1.2134105397023232 -0.8137605783048888 -1.6876772572743837
Ni 5.342408747032849 8.869668523196887 -0.08962104630902722 -0.1115084869946531 0.05948144319508465 1.103605922772654
Ni 5.473317048853126 2.972661828443794 4.169894071067576 -1.5095201199122452 0.9566385807497589 0.5023141106275801
Ni 7.230425829913317 0.961075610785536 0.14089891825544035 0.7293420055484923 -0.6150911799220116 -1.5006868378913314
Ni 7.423843266569359 8.493538549583718 7.528995299236324 -2.2328010068683226 0.6773787251073237 0.44188315903503256
Ni 4.342281288175372 7.092627125404742 11.787435252014347 0.47019871815027403 -1.1526515153463954 -1.12536362616472
Ni 3.868900339306203 8.842864202291393 9.469067177351398 1.0654396961155779 -0.8853822564069331 0.3044810921030691
Ni 1.561671904810292 1.9671865943655498 11.280609204723403 0.17310671942242445 1.5918381013858713 1.4381437250517877
Ni 2.4644174988084613 6.444957320476894 2.9199946568508666 0.6233081685151652 -0.5487564612505195 -0.1619519883571856
Ni 8.640817401074566 6.20689717983629 8.300516586514807 1.4212664896804748 0.20263943877421878 1.433613698391918
Ni 4.935874988423284 1.9997220100443505 13.75555864196927 -1.0902045617650837 0.6923533441392851 -3.155536250002417
Ni 3.145753979557965 2.7643416755256807 6.20172797543146 0.070403232313911 0.10922997537312155 0.6041711905753981
Ni 6.874265870061619 8.538321492428965 5.0910595719537834 -2.3125936508169334 -1.216559626854266 -0.4207018969717271
Ni 6.33678641260226 8.613377330667301 11.591226127104944 1.9797643465884744 -0.8003571604147893 0.4344596128774518
Ni 3.2122458980371693 1.4260983235579106 2.1176572823255753 -0.38397548808497095 -2.56435195860499 -5.665661586053359
Ni 7.310932285203591 7.716269338868648 0.3818180618025314 1.1939406039031697 0.708380829915793 1.0844334636092614
Ni 0.27916508563296394 4.918410575639375 2.890301415415272 1.5576586272906852 -1.0656286721979324 2.6685641690485458
Ni 8.609403896281242 1.3059416677234434 11.412382312851236 -0.6474935075121171 -0.49032557080713624 -0.19675958295467405
Ni 8.844397480501543 9.572050182306443 4.80276026186157 2.333728375913019 0.12859835259740432 1.80211963008638
Ni 3.236750301627438 8.470717012321664 13.202961435328122 -3.7784379271077833 0.6800454733062095 0.8490505118554346
Ni 1.6520698744075113 0.2387884477904248 9.901495574123485 -0.4085048406849029 -1.9237999154077123 -0.27592359218035056
Ni 0.19539760936890713 8.90173647600674 7.848246260807342 2.087238515612754 0.847408091156005 -0.5055763263186196
Ni 0.8757140861383657 1.3340548846619935 3.0736609209830226 -0.15215685664363474 -0.2012893525042275 -2.6508274138904153
Ni 6.281943668817248 4.357268147753855 0.6491918640291438 -0.34748022137241447 0.4673975012560531 0.445123263238885
Ni 5.7668743812952705 1.0290353626732376 1.823309937634909 -0.05588472698276182 -1.5140774002656248 3.0361360189645126
P 6.2940977034099035 8.76706042346274 9.447583518820274 -0.6788820491257276 -2.1558789995992873 -2.2893719612848313
P 2.307995073600986 7.841540038489409 11.13320974781237 0.5832151571490214 0.28744213434291144 0.05621948461436124
P 1.5249667203404729 5.909188777117885 1.0592185051954905 -1.00777550863489 -0.7166479550205915 -0.25379436438147907
P 8.799726728744846 8.553495337155026 12.10499025829682 -0.6586834626906656 -0.16898292706203802 0.3127808702180162
P 5.637957471296712 6.433158557664639 0.04446039346567134 0.7536430441877021 -0.6427889029475963 -0.5778371806665596
P 4.377331654089115 7.2526677132178765 4.930016743749624 -0.022672501896851275 0.07301238780198394 -1.3231099985126955
P 1.7270041722999212 4.085803110498207 4.439638844965494 -0.1380013910788591 -0.5246284578540642 0.5525848338576742
P 5.745445883382681 1.1887674249928664 11.770029739551926 1.5091280266801494 3.2066497808487804 1.3942328826014505
