# total energy = -381172.3990409982 ev
CRYSTAL
PRIMVEC
9.15329155049919 0.00000000000000 0.00000000000000

0.00000000000000 9.15329155049919 0.00000000000000

0.00000000000000 0.00000000000000 13.39676741303967

PRIMCOORD
 96 1
Ni 0.7817377687821235 5.809237083886458 1.9108475234780389 -1.3898820618319223 0.5496190663611309 0.3933355891436323
Ni 5.7817131365961 1.63602269467563 3.6843251953599614 -0.6232696019677458 1.1041101161025824 0.5783161771855072
Ni 4.232509411008948 5.1472069755825665 3.4994497613105815 2.2120717447407707 0.0914281713050103 1.0766810733573522
Ni 6.806250198171484 1.743317576663521 13.042195421326966 1.099628683292461 -1.4487024744042405 -0.6692105874742346
Ni 1.6270433157957356 0.40525190885887213 5.5057230937963295 -0.34577969374153994 -0.10455879514969736 -1.0192989358934574
Ni 5.553933479688688 1.0955757562612765 1.2631716067739953 -0.9170772735173689 -1.3367293890683432 1.088087258311765
Ni 8.666748211553054 3.026114755564307 6.568273774625741 0.003994980092006023 0.4765403440975858 0.05911454677396916
Ni 9.070252757080457 4.411108433133818 3.9510951277155746 -0.5548844285251283 0.41864938531807255 -0.4041100540513169
Ni 4.05324219861065 2.791378597180117 2.2005665880738876 2.400233044503473 0.6118837287283075 -1.623334886442572
Ni 4.65592236536792 3.3423243608495556 5.210672236950186 -0.20495625983285345 0.4920667218679589 -0.6484682127205607
Ni 3.053931608180004 3.1903248035819463 8.94575792519123 -1.389922942372187 -0.3831275382623789 1.3136233991784991
Ni 1.3625681135983179 1.1656991218054868 7.622747591108957 -0.9549863898583164 0.43770871594236876 1.332302463645241
Ni 4.845972155055225 4.381470075526176 7.934851945193765 0.21755055155809627 0.5483540836057782 1.0319001695972359
Ni 8.922079275625077 7.685405532173614 0.8773155224273516 0.10727670830149266 1.6940016568305147 1.102575681735927
Ni 2.3063273784203204 2.252286345895452 12.334537985968542 0.819627321498311 0.008191791782172988 -2.8911628245535113
Ni 7.84583527083611 4.911820933507784 11.556694027355132 -0.4447234566973051 2.5424803553428794 -0.12945375861916414
Ni 7.918301878983025 5.545695517413555 0.47696153980561645 -1.0516482987584403 1.2265036254408554 0.9523011297166696
Ni 5.581896784967054 5.092278073790267 11.071919237996124 2.7126771002073604 -1.8084499431797825 -1.288402162717865
Ni 7.891986166159685 0.8033962869325884 6.685402037582716 0.3733979696794408 -0.9556739028436446 1.0885747394711447
Ni 6.426059085882706 0.7234999521426458 10.256136717118302 -0.7328083668305378 -1.0279725524080554 0.5341420537714543
Ni 7.666870117054566 6.531962667575241 2.939023018391607 0.5576290811498009 -0.724644600072823 -1.0325861399206668
Ni 8.34337157908844 5.325705311501853 7.714716201948535 -0.3082865818920884 -0.8347358950049752 0.5562597116061001
Ni 2.311416608448069 6.717069679897467 0.2765511395636201 1.6036512919707158 0.9582275225034336 0.26288218561536014
Ni 4.668727820060043 1.7093680187985587 11.984882253846255 0.126218282401002 0.35549769236025225 0.3845647849295377
P 7.096555988747149 4.292362783583493 9.285246181207722 -0.16672344160389996 -0.16230962880692046 0.174927317570931
Ni 6.623532194909046 4.157370041768323 3.9290439333633285 -0.18211946444399604 -0.0913942327432813 0.13633171668592003
P 4.857789054274332 7.47047709641541 6.729290239268055 -0.5465980201466198 -1.1143613615169454 -0.7986874860218504
Ni 3.674140328000473 7.514101683307945 4.485693112914584 0.2918266365638522 0.27152777710550013 0.05359156007321092
P 6.561683404805636 7.501653206981078 10.821948341377787 0.9743257136168768 -0.02947075576560731 -1.2437588129768773
P 8.083884920713187 8.997786148933542 2.4837602712186895 1.1012975863544519 0.004241291774857211 0.5346135940912342
P 0.22813480461438357 8.21142688331507 7.041970335382981 0.5437890899429151 0.3850743775761046 -0.6843731541472858
Ni 1.7805165529814524 1.1730309082303545 10.287310997025685 0.6726790056388093 0.9767962866445564 -0.8321025711471862
Ni 3.55409491106896 0.2504999568622264 7.377076910798242 -1.189618579489048 -0.8962814198179404 -0.5433147214096579
Ni 6.4347547127286795 4.647904082086792 6.232537452761004 0.7890065112886605 0.8583802738967927 0.39022738253195377
Ni 4.5748516632892 4.9476286095303585 1.1949759244021656 0.8636752037471449 1.190957867125762 -1.083866535362198
Ni 8.791461807107144 0.9758873176950192 9.64339525243567 -0.11964088629380039 -0.12290772997053026 0.6916375490191831
Ni 8.378318845717835 3.5484107170991184 13.144425787173935 1.7770056086275718 -2.9253754658794784 1.3320890620828543
Ni 2.2177143642141464 6.334745850708572 11.23405972682442 -0.7492935089697547 -0.5205452889236261 -0.36609963624581465
Ni 8.525897363231124 6.234636302482879 5.482439866419381 0.5853332319332887 -0.5868887493458667 -0.9477204523245226
Ni 6.533308201413513 7.942732013774501 0.996612200120969 1.0090363776251847 -0.2287119674915545 0.1138114240962169
Ni 7.977331455330057 9.089383136141597 12.13962779853891 1.57793074727616 -1.0798293891783468 -0.6435059836192788
Ni 3.6135272322383316 5.495544633740832 6.286486952371704 1.2913021099734796 1.1440771434138233 0.5078458390790865
Ni 2.6920104655591865 2.4285695852918687 3.898459125423187 -0.23513843984318858 0.06428529234163122 0.1399312611117203
Ni 1.9877470706581166 8.260332919355106 9.131705209665519 -0.110496500790371 2.4336458156359635 -2.3979118525694636
Ni 7.121782459891889 7.157855581365551 6.9565527352104155 -0.4463100844581346 1.1187458637378864 -2.4354766981971157
Ni 1.2278408172342357 4.751784786376211 6.5781739746221675 -0.7189334086206587 -0.27489463669520403 0.23828829832607995
Ni 0.40546243456145886 3.353738515246323 1.806648284647314 -1.5651559641089947 0.4563751820036205 0.8835459745291429
Ni 8.817576147519313 5.993501993398337 9.942906508189225 0.6552204438427296 0.639347481366215 -0.24187138769164798
Ni 3.4934635087239854 4.1949900694914275 11.417810221358673 -0.59844431539395 -0.030700000187018094 -0.4604845761863037
Ni 1.3816984926594587 9.185694068429314 12.827484833904482 -0.6058287807834792 -0.941454931030785 -1.4331411296308738
Ni 8.14259413186063 8.59115117774159 4.9051728979517515 -0.4593880006880153 -0.029265581733336692 -0.2561011581377848
Ni 0.7817606520106656 1.1262118226333522 3.0616707160729204 -0.944275945419348 0.32110275982015024 0.6091205641608736
Ni 8.122758949360394 8.082347167755161 8.816090568322362 -0.024717300241021947 -0.06198466923291261 0.7520160501072404
Ni 8.099225837127767 1.9048365570046175 4.500764922561509 0.21414795363445052 0.21215560579477008 -0.5102583051753213
Ni 3.345280873977187 8.942637568147239 11.346150933514721 0.0730355277304355 -0.3979885145346113 -1.5341739139051835
Ni 5.215261697266577 2.89981764059511 10.084121657509547 0.6818285333485612 0.0027490235000468786 -1.2404266632798506
P 1.0810037163257087 2.994032469148374 4.999258665096038 -0.9770184299576917 -0.2606468685269382 1.4642383652563105
Ni 6.042527022226791 3.763412379188658 12.925428713380956 -1.1006370699523174 1.5480792111323662 0.4720470842129225
P 3.198864824473833 5.317366663021135 9.520747554754356 0.7341944485447872 0.338169742604766 -0.5107828102202235
Ni 6.030966415167356 6.480045198659074 8.736741600359146 0.3654234361143965 -1.1191742095245565 1.9181812836693546
P 2.69619351973667 6.423898909108337 2.663250823927558 -0.367208038818645 1.221878210853702 0.406141739769365
P 0.27654473225962833 1.7445258111305406 11.82676005994994 -1.070837984313014 -0.26876486964838225 -0.057108572087533914
P 3.827659331643274 1.094660427119595 9.346335248123536 0.7040374653454325 -0.12197827617772539 0.8535627979034913
Ni 1.5288468054761573 6.194142141254894 8.392739856345026 -0.02271698198154152 -0.7269076850753868 0.03277230933501453
Ni 1.1329211852418766 3.914853585679842 11.01032033274839 -0.8775036249898049 0.11473265035890563 -0.6509611543457434
Ni 4.388481496751455 7.696453554913709 1.9253564057028305 -1.4461388274421223 0.18924321997297083 0.9902485554947205
Ni 7.699922652360682 2.8204586040113346 11.053122954071696 -0.6509662965520661 -1.6961917225032983 -1.82111828267607
Ni 0.5590198820282104 7.586147240049685 3.725976332623031 1.7785174172864078 -0.5075838436669516 -1.2904685583285904
Ni 7.120729831378955 2.0132664471281934 8.4564412726312 -0.44456533385288594 1.8516305923323142 0.0568666312800569
Ni 5.722289968718144 8.70778241697463 12.369570378208113 -1.3989020059423456 0.35934663379269727 -0.2849144828250513
Ni 3.5955135547300427 0.21990141898495957 0.1808498164842652 0.32571686155339385 -0.20181282910786535 0.7271449978971736
Ni 5.792065509188515 9.07213833511232 5.543809939381691 1.2331931216458891 -0.9982930230657517 0.9320650051754529
Ni 1.828022135434716 8.772395501085919 1.6742742995064948 1.0040654067731545 -0.9669296782631219 1.2494653764433514
Ni 8.915864190753059 1.0850403178405237 0.7774952182104304 -0.6715225234368629 -0.021715537300220668 0.190981028599684
Ni 4.944113745626303 2.0905476865603525 7.3690659501502465 0.18717528170034864 -0.024758180781286394 0.49635532194098386
Ni 1.398192723792557 4.526384985237171 13.332810593152521 0.707387355654272 -0.3150426696689994 -0.44472397091793736
Ni 5.801896144170173 8.9401661794647 7.9999730369786874 0.6738997654197878 0.7856543069869759 1.1916466656626703
Ni 6.122041664764652 6.5938846840099865 4.559227910169841 -1.0397214654138673 -0.38530809085346546 1.8062369946888635
Ni 0.1664086686159581 3.202114242926802 8.864533447816708 0.1390671133392121 0.6197672452414423 0.09660997261626587
Ni 0.263957125903226 6.596154700281357 12.478995231108696 -0.18131548048546192 -0.7827091083157229 -1.3683498441871014
Ni 2.8997810274294427 3.109510393662897 6.689166786342452 -1.1427679376840965 -0.8187868278748867 -1.182110444037461
Ni 4.418412759684436 6.798652966295529 11.049706945714941 -0.33694898282378744 2.197248049464377 0.6149122311419862
Ni 3.9817366860625003 0.981205380008188 5.145242679244519 -1.6812600408941305 0.2948458830061502 -0.7322301257295647
Ni 7.351850439653504 2.368789439048658 2.097518833303398 0.6384457954875521 0.2152758965913067 -0.12366209163805154
Ni 3.8924188684172316 7.406834261194303 8.75273789243917 0.974667927447644 -1.4938060516110983 -0.4507665775675914
Ni 2.456038612833727 4.3297631323125945 2.1711204495859975 -0.4655308803609596 -0.4449270880676789 -0.1820508159895897
Ni 6.206727916953014 8.574446420905904 3.331976564902848 -0.4818057062615831 -0.43581612690534627 -0.7802066536088434
Ni 1.7217341155026742 7.060125888908231 5.875849246843178 -0.5982959627415438 0.3990187555713386 0.8971764208283839
P 6.478827810900638 2.4323132814813455 5.932275627111268 0.9677588590326366 -0.0199342770300818 -0.5411285123916164
Ni 2.226025552820613 5.079262093395559 4.558839810613768 -0.94661153553106 -0.3768818144629832 -1.3923577770659246
P 3.8524372915085885 3.3157523558665454 13.311121869140381 0.5209597507532254 -0.15649559322830467 1.8797952276919883
Ni 1.890301130234717 2.0148225066690517 0.9326471690419909 1.3911519296832815 -0.6246880795818274 3.470860198357261
P 3.7097923980689624 0.7700279630725937 2.592837299045434 -0.35986548241064475 -1.6978937927960693 0.47700494243883007
P 4.779931157482913 6.978386996556084 13.33323988251997 -0.7986761731679407 -0.4443997548092991 -0.39867628463025534
P 6.812565969249085 4.415749151882143 1.8811606534258867 -0.6276911280742092 0.6801853413181834 -0.7413948229479683
Ni 0.7564664465094424 8.041871313110011 10.73882181004685 -2.4116438574435755 0.6206054248720215 1.7753629308178265
