# total energy = -340865.2493088006 ev
CRYSTAL
PRIMVEC
9.27910668541763 0.00000000000000 0.00000000000000

0.00000000000000 9.27910668541763 0.00000000000000

0.00000000000000 0.00000000000000 13.58091058058510

PRIMCOORD
 96 1
Ni 4.739238677422739 3.147732730678171 13.265058935898631 -2.4318879524045927 -3.055163467909609 1.57765049703158
Ni 7.350202935947845 8.164518761819693 10.874615426440187 -0.37109246147471575 0.1409851562975314 -0.13139648416783178
Ni 2.354443360074512 0.5717868920721358 10.77470079166911 -1.101873770572896 0.008342715537740469 -0.39620853981605314
Ni 8.663177943687476 -0.03772235154534994 4.621216794279931 1.2581413069507945 1.6095409179822733 0.18814407337152114
Ni 6.814742817807495 1.8555150841190051 13.184592380384654 1.546691329645904 -0.03362797246709047 -0.8165674516260646
Ni 4.135289474403973 8.512039857452596 10.132418671899059 0.14456336056709296 0.12252155027570512 -0.6028594137425101
Ni 6.378912465869497 4.5086621606711095 1.1299548395736103 0.23705391169834655 1.5202696451192657 -0.7929279578302538
Ni 8.543922867294384 3.235448124168982 10.081571024247419 0.5073280189024038 0.3482016729194713 -0.07376983479329877
Ni 3.002588947224954 6.11111745305401 10.502050022436215 -3.1640800258073702 0.23118948249776958 0.7107644996566211
Ni 4.332526161597528 4.865508758309543 7.279286436816048 0.4074440035205564 0.008760776911765557 -1.4539673223476057
Ni 3.5412967526309105 6.179170419928189 3.995652840642578 -0.6189681463789146 -1.4217058912107388 -0.24656133696814958
Ni 3.4949847322233536 0.7632853798226866 6.688096005197881 0.14117516082115042 -1.6405013709195295 -1.6032612556211485
Ni 2.4222829074998065 4.0907497633327905 8.156422741421856 -1.5239506935152787 0.6316130888364347 1.0339603945603741
Ni 5.527860657470399 2.2347892821030735 6.889269817268 -0.4564425449064462 0.24442629290301776 -0.9167273463771181
Ni 6.871818601723922 5.449619231688687 10.591426375985723 0.6183150861759481 0.6985165355272035 -0.3631354114111681
Ni 5.577039921778162 4.865026244772938 12.462943279217697 0.6942595600230624 3.146404205794162 0.7184317863938917
Ni 2.450547065817062 1.6927873938991438 3.968179262196837 -1.813012108629168 -0.04603688765440458 1.4606784158191939
Ni 7.733671290057783 4.967736674324381 5.052193245621817 1.277574990195374 0.1374123513446085 -2.829735056265333
Ni 6.38443353422103 3.6721414330089837 8.854780357430526 -0.8450889561045252 -0.13516777828480595 -0.015094946659909486
Ni 4.742068804897054 1.6507344833627686 11.090049369338264 -0.2036622236117783 -0.7964549971469057 -0.2922110164864645
Ni 2.8087762503199962 1.794078120160192 8.561053025754491 -0.8261872341040158 0.6490621375508177 1.998041033410475
Ni 6.112360853321414 9.240793042535406 5.743950633196126 0.22289484658914516 -0.19334155841206058 -0.540937479426733
Ni 5.529660804126191 2.4556876908031944 2.2457256369923435 -1.16107830595751 0.01145246481131576 -1.0131889663409777
Ni 2.29312702449985 1.8946636343292802 12.829586757470496 1.1348455975132263 1.187395346585484 0.00013832535007718113
P 1.515862670775343 8.1608163983369 2.6613423833892025 -0.8270891770929949 0.09152150234976496 1.1785183558108283
P 7.339791778484956 7.74146573949524 4.704875362420674 -0.874360965595765 -0.8547028250452054 -0.09060670384497943
P 1.2612254309388011 2.5248912668800445 10.48086396653669 1.7504561402738175 0.0627570286225629 -0.6670611452313995
P 3.3783370847492202 4.948046410388328 12.568969133512002 0.6969692456447416 -0.729229648340344 0.1129994697178828
P 5.458907617268323 6.845271078104202 6.068276746378063 0.41831025681109896 -0.3145644444810002 0.1774156312104235
P 5.308511859551295 4.4079838554372905 3.051535305960242 -0.11369418179206224 -0.12881715347642977 -1.382716911542051
P 7.564216247644879 3.9860257676766717 12.871497697677833 1.5777993639046182 0.6011879395773582 0.731770926704959
P 2.1670703630619292 5.519630090028702 5.592822753978366 -0.4952227509984374 -0.5302620019907577 1.0356853476712808
Ni -0.0862214573486315 3.0028580413126753 7.772246391488016 0.8935907603596545 0.8670050394513262 -0.5879405876491487
Ni 0.45357849888921653 7.434076779358766 0.5094470710534843 -1.334387628309044 1.1511317362677596 0.2351245558861176
Ni 4.010773144640598 8.356800406156577 4.61727874149272 1.1415965430838146 0.7587729092150997 1.895135971814117
Ni 6.701695463644949 4.993254217125579 6.866630653294776 -0.825088087502566 0.2892781591103856 2.871392069684487
Ni 5.45652288690472 0.5535358175500714 0.8658900275603348 -1.2367409868981476 0.03052927893710871 -0.2606975192592156
Ni 4.023810289235392 3.8866372582426214 10.726379844710113 -0.22541015681183116 -0.80905983039511 0.0037280995838645473
Ni 8.709406452136776 8.814724310607176 2.046792729135494 0.21421068855158595 0.41374603447918423 1.0156924494891217
Ni 6.4324714684325945 8.255723099344412 2.2810901675828625 1.6034476606003418 0.5675977623267386 0.44821064391495713
Ni 0.0435403513040232 6.922593872345069 5.09934688098649 1.052285418121807 -1.1992507032621733 -0.3037071900515221
Ni 3.650780929907762 8.994813209038325 12.762510880507943 0.30188556346175105 0.831036334666201 -0.7031841162062019
Ni -0.15568113676414116 1.7655448677552155 3.124451452537005 1.756065773151111 0.48143932406109985 -0.16481671149949037
Ni 0.10368473573112444 1.0263434087836238 9.1597669569011 0.9161485910555125 -0.9609991717112999 0.35623559896754137
Ni 7.673756099560569 3.6009799654662955 2.8034528269363426 -0.17745471197847504 0.31788862375822674 0.9658446727290592
Ni -0.04619974321923174 7.603800915859392 9.233796596254642 -0.8664584229192368 0.451669548997835 -0.29171607912791697
Ni 7.879511006496488 7.09951859546887 6.967781265048079 -0.8677961678940539 0.372930543124719 0.3226217675678379
Ni 0.07846412433706715 5.184979115074076 6.827232495120373 1.3122756269013527 0.1565560141525949 0.6836087651774356
Ni 8.020469912930308 1.1905743142521374 7.055310148498779 -0.5217879030814756 -1.0435426389321705 -0.7068080861120344
Ni 1.7159666018691053 8.551197686769344 4.897086485548364 0.9824645406739274 0.40573859079367547 -1.867771977978867
Ni 5.964720990226917 6.2718686935950885 3.7442159646286304 -0.8774591449051147 0.10896078087213494 1.531297106578021
Ni 0.1637502477532038 2.836019706925203 0.28209040424804205 -1.2150213358328688 -3.3324841975478026 0.5330804452761594
Ni 2.1668105480806807 3.8909613218591157 0.7919123512030422 0.6388152630118288 -0.6241556041171251 0.04118598732000649
Ni 3.5724838294872114 7.246360455406677 6.955096726499265 0.08904270179196924 0.7847937587588936 -0.7929390135738472
Ni 1.6671677809267405 6.023968085058063 13.013893937704347 1.0055666739090294 -0.7084055125061411 -1.0584766345341836
Ni 0.31025898776862326 3.538485183369542 4.830688911268998 0.6685482712998874 -0.27722637015217416 -0.4099168905410811
P 0.708267701722008 1.6639108145546602 6.007719441712907 1.1059358564574115 -0.38007486747898417 -0.34753781408322726
P 4.973313417314752 1.961974272685605 8.884726817751366 -0.5806054874403163 -0.43818179892404535 1.330430700543825
P 2.4001893549872055 8.864543833261589 8.336017063477986 -0.1529148178555818 -0.7494356909745737 0.05944519064051052
P 7.516029847729743 6.794764901570775 0.8092846943420979 -0.15705943615157467 -0.871597543918015 0.5921916496160188
P 4.510490144646323 5.36605159879138 9.282742027079282 0.7000797662492653 0.30915664320186753 -0.44156742756682665
P 7.699440666278284 1.3847488963095484 1.5811977873635317 -1.2967698179562699 0.11343167215929495 -0.010143001971272854
P 5.811040428818389 0.019840585460917333 12.058313922795712 -0.020115539802952456 -1.0040258117844707 0.6015923741046285
P 7.409218053117162 8.733949688758292 8.32460932997988 1.8403269943940368 -1.8612426615007813 0.00032601588085105147
Ni 0.5239456749178015 8.595644606775796 6.776249372514225 0.15842752014369488 1.0687358503683466 2.2821643877927986
Ni 8.054143790321417 6.547458155848033 3.0293712322384443 2.2344249156249907 -1.0433084114341773 -1.751262438225197
Ni 5.878499532878285 7.092420079016901 8.889534322815113 0.4337638723620078 -1.4185318643581313 0.2046341006067444
Ni 7.802503701875707 8.573606728902034 13.331048229493177 -1.4823746698457052 1.2030852465169153 -0.8539492347086326
Ni 5.5014337622348295 4.013130037684781 5.090342436064932 0.31177839709543076 -0.6103117562554973 0.979037003049617
Ni 6.758483595260707 1.4399410216119226 3.852931831889504 0.2611929708383953 -0.24288980165383328 1.2298555726322238
Ni 3.508597181419484 0.2927725116199474 2.689318889405789 1.32770147453812 -1.4953721105466373 -0.9578215453142666
Ni 0.9113186770316468 4.065965269942971 11.980684918041229 0.17465452352551855 -0.30733835904620616 -0.2915594989453947
Ni 0.618131389352349 5.4288804287211665 10.01967010496495 -0.6904766959418626 -0.45020967662285694 -0.4010273013609352
Ni 2.7484342209250165 2.9297386823041505 6.059842966504606 -0.702848330133338 0.6117402611719077 0.4309318022298514
Ni 2.7245034053307293 7.6569423586311975 0.9429799162287266 2.2653447451322988 -0.13496800356917402 0.0041847275053089215
Ni 1.578951315686379 5.936493948335554 2.158047359927425 -0.15020204691010908 -0.2269368778690027 0.8257609451998746
Ni 1.9291633521965006 6.63170316351788 8.39328770863035 -0.3563505272788508 -0.013092314407583903 -0.05009254578101696
Ni 3.5419834065099245 3.664365541784473 3.9645798967958967 -1.281839936119315 0.6042794340184884 -0.822166542980397
Ni 3.9923819556107882 5.185879188401971 1.4636825434341576 0.09313461247315573 1.2874709091528471 -0.09082781871685003
Ni 6.979131468086052 1.0853770841658874 9.42031684338234 -0.756158097300072 2.0888534255083573 2.0192091828476584
Ni 5.353756782714439 9.057623480755167 7.919300742964058 -1.3822957648442322 1.4640856417285302 0.4995961974757847
Ni 6.58338685611212 3.266356827831088 11.238094729385638 -1.1156996207123946 -2.4196929530002973 -0.7899351937505169
Ni 4.986545423145482 6.597658121867844 11.221376563252939 1.1041939340656404 2.3581173462803453 0.5458110054689503
Ni 9.01726864670338 4.952574614347233 0.6161614350480965 -1.0791051094178126 2.4304324509049886 0.7792178073330128
Ni 8.49350948182569 6.110699893262718 12.194407793705652 -0.13821736374440713 0.4329778861256027 -0.4164690898373021
Ni 0.5496729255252936 0.43222170743058436 12.693994886220754 -0.03698377631320082 -1.0850171040268735 0.3348219091784556
Ni 1.5141181987583883 0.6374254354419969 1.3477215498390385 0.06024377528240592 0.7278304539999724 -0.18676647629770418
Ni 5.347112942479654 7.5976859846935785 0.17883065159338846 0.5175851778540377 -1.6035831577369415 -0.3806770198393573
P 8.567890799314565 1.2973211551194057 11.326859589818564 -1.9504334588348409 -0.12463808239807568 -1.1049997177963873
P 7.9459401297378625 5.304558960193728 8.835400943561327 1.9627187039600973 0.21569241530343497 -1.804496872069305
P 4.60784652976275 1.4472993530451408 4.74055259889934 -0.3734306226895891 -0.06535667102893906 0.09990509842776987
P 4.574970655528333 7.580157752565773 2.6470414244927634 -2.5075863716791718 -0.22141363405792838 -1.6317909876297252
P 1.8297098890171384 7.971930906969192 12.1104235289277 0.2803278918956333 0.21259346466313708 0.02232026076375511
P 7.307342743148305 2.8108083746376193 5.782099823639242 0.6700207420803557 0.9825928387216755 -0.8946320571399753
P 3.4832837789606947 1.7641158853583485 1.165652490086516 -0.2139947158860379 1.0074384370104457 -1.2303533382042489
P 0.4721645491549622 4.0462657269004465 2.395441236204888 0.689136122753568 -0.9572312200284353 1.1661935156968886
