# total energy = -340896.2189113147 ev
CRYSTAL
PRIMVEC
8.99525268132053 0.00000000000000 0.00000000000000
0.00000000000000 8.99525268132053 0.00000000000000
0.00000000000000 0.00000000000000 13.16546155319447
PRIMCOORD
 96 1
Ni 6.334807726433265 1.861729449127981 11.19006280517827 0.18810242150030831 0.5052410544663879 1.3700992227780406
Ni 4.728768333697881 0.35125652000281904 6.019775988351243 -0.8363567184378499 -1.0138751937747248 -0.23473143421275705
Ni 2.7122575723325246 1.4472731835769213 4.9498050788065076 -0.31837173404223235 -0.7517440273927763 -0.23588046021553571
Ni 3.539020238052838 4.408240496250656 4.9612992126344215 0.1773960908263977 -0.5853265470650694 -0.7794090974082126
Ni 4.737565690783262 4.4700648676696995 2.3354869177315716 1.830349828576667 -0.31046790581412337 -0.002678575273427645
Ni 7.118770980075621 6.086970525598479 2.7259879259676225 0.9511934984747876 -0.6036412862138573 -1.1954421281493606
Ni 5.007234369783918 4.243654358631823 11.339872441279564 0.5615955219967166 1.672971575633093 -0.08345415196059822
Ni 5.588453624093548 7.7985692081057945 12.472405332960111 -0.17765885756948113 0.5845598441023738 -0.5884967172629348
Ni 1.9477960264213623 6.517033554486079 0.25108898466542606 -0.3275163766559779 -0.4662693011888809 0.42144751688849996
Ni 2.6122123724310837 1.6446829980920283 0.29626854059286506 0.0987730417058557 -1.7395808881222106 0.945647628955894
Ni 0.4863409275266373 -0.034423032816295066 4.8240487482740395 0.9710678688012115 1.1501989400408448 -0.26764643977322294
Ni 8.524917868566282 2.362774016625747 1.5208741397568861 0.36585255323201504 0.4018461977178047 -0.03339323074846507
Ni 6.804512833720942 0.6773056435226487 4.8244040607534595 0.4668704251079895 0.246164358640047 -0.6875978317321707
Ni 0.7736942732244909 7.268119159716299 2.304403822221823 -0.3679803982082953 -0.11304497824383755 0.7793098528261868
Ni 7.466572423538057 3.812197065584474 3.8594941039842023 1.0186217073207746 -0.43406340588029757 -0.33122493585581664
Ni 7.487297485628771 3.8979847900459057 12.53338774873172 0.9341319150068106 -1.2259017301907984 0.6400805028774976
Ni 7.846693809748728 8.693326988558619 6.9294829791723656 -0.07617793001415912 0.3162978822323392 0.24071799081349507
Ni 6.705834912221319 0.8839068071889238 0.4780140221545132 0.40889487703447003 -0.12508571145845554 -0.7318236343197655
Ni 1.8140456148645807 6.468297275663385 9.1707967979282 1.244811679721424 1.1961481530774496 -0.4786095679217887
Ni 0.119413777893509 4.836198636019668 1.394183202474754 -0.2655903285751426 0.053243432705172816 0.029982405294703203
Ni 6.258878798869153 1.9451874031547358 6.9303645139314325 1.5840324892985236 0.33377778418465737 1.0935529094120262
Ni 3.1741817860835395 4.081532920237319 0.36846533783517343 -0.03374135811650318 0.5353232185637491 -0.5102356794675019
Ni 5.851753664222577 5.568960911614998 4.793031318108588 0.3289639077357818 -0.38189418007591003 -0.367651811224283
Ni 5.070776834457878 2.9230163417706434 9.393557033443326 0.6361104624861561 -0.40455305512600653 -1.380949278118667
P 0.1876364725179019 5.60361062479791 12.298660229099628 -0.041168760928825876 -1.0133823132987063 -0.15439088818047603
P 4.114302625617732 5.851097010779599 12.569223935738314 -0.828169040420735 1.010224741506331 -0.02289644498219928
P 2.2956244556417285 8.398786435998579 1.238927840423064 0.5530833707606475 0.9255955954010253 -0.14403756997060999
P 6.393007011036963 7.6646748725067155 5.667994145594041 -1.0465315463571654 -0.49092592339529645 0.5998579079120249
P 4.675246580468825 1.0474162130663254 12.759003976961171 0.532703778663031 -0.12938613860602233 -1.3460604366612816
P 4.0821266069117925 6.187150654289573 8.3029564114859 -0.7778538371059507 0.5524241399100938 -1.164167743516111
P 4.616282699390426 0.9145923125318285 3.775775287630785 0.9109372220579022 -0.07465557983236175 -0.2972740328316687
P 0.3720058692756704 5.48275041027932 3.520760774711718 -0.882274564015887 0.09507656669087497 0.09032362538692186
Ni 1.5442869833374895 1.0015854008474943 2.6675331761888486 -0.8390692322730066 0.5397869107620574 -0.2744606344815789
Ni 1.9080280144842763 6.37782302457467 4.786474678456713 0.4911308403172509 0.3537904798611584 -0.7550818335167577
Ni 6.091809971520703 5.696684503900609 9.079652400517539 0.2154054801906355 -0.3062556675049887 1.0277830621050688
Ni 8.630306248537984 2.5095585492630166 9.996969375075096 -0.11643600620325753 -0.6753866343779594 0.7735032734467389
Ni 2.473199738077832 5.18457577565129 6.864774729755803 -1.0363918868200022 0.2105504660911793 1.4689990198697473
Ni 0.4830531626854238 0.21119054156500877 9.256899356232154 -0.2662025082378448 -0.2158345973082541 -0.1826524541293306
Ni 1.2370271435394842 1.0125326233146812 11.472843863957413 0.5123838361587563 0.6248310329175949 -0.4776893701003644
Ni 4.098237104396371 6.855884721568194 1.535237759178089 0.5668362015703657 0.06630695075735032 -0.9561410722880501
Ni 5.684073159694368 7.807960251865649 7.971529026410497 -0.5245929766304385 0.4077247679857688 -0.25313513353092537
Ni 5.254963627586982 2.7018320745186633 4.894313365248516 -0.38682709860115316 0.3132837779963637 -0.6250896858956202
Ni 0.829813855417002 7.491084486991701 6.764413796486574 -0.11670468648361192 -0.8148931492474354 0.8387295895454007
Ni 5.051661922590357 4.6316106098950165 7.14074908085958 -0.3974071881098446 -0.7293458622032343 -0.3629238096209943
Ni 8.195493726254597 7.1769792599319615 8.910239410330183 -0.48626425625356895 0.37555306834923063 0.5901054565109515
Ni 4.567519434809801 0.1548451785311448 10.303962055869587 -0.05486297058646681 0.40253345359281645 -0.2631454665790758
Ni 8.261338975605302 7.076196449313751 4.718923029679528 -0.4933422461462729 -0.8033087868439455 -0.3097379696266343
Ni 7.2299792885076934 5.8865832824583615 6.7947601808048175 0.013788312033343996 1.7076164194004722 0.5760829169796142
Ni 2.518122029779666 5.2198821422771795 2.431436579104409 -2.161237178587407 -0.30647935348002053 0.3826976498138119
Ni 2.1811868515106254 5.3238942485944225 11.383608259157715 0.6920041883299825 -1.039572598540829 -0.4219766499190927
Ni 1.3120205648286687 3.446180235518872 3.864010620336523 -0.8500853808778521 -0.28807513994121997 -0.05817840811294496
Ni 3.508229488254004 2.587916195040885 2.964348628142441 -0.0663498881801438 0.27646018141011097 -0.8087304720801491
Ni 1.0989500154611604 3.242662644458802 8.167286413014986 -0.1832216963692393 0.6856815885460643 -0.6665528381364134
Ni 3.6879816218298442 2.5663455792016783 7.0053552366448235 0.17293779794472797 0.47781483993463514 -0.22261562478582952
Ni 4.136943676521519 6.839207523167072 5.921797897507288 0.31745642131681456 0.3794503465211078 0.33313218018085855
Ni 0.8654512473401749 7.473084986451979 11.209955806399456 -0.49072100647334205 -0.5456873354068924 0.5583086237153287
P 0.32809554349623476 5.6716237300357095 7.854145477038636 -0.4809922092213523 -1.397805173333741 -0.7756118351493093
P 8.397769972449858 1.5822649399985111 7.883833408863372 -0.30418798634268257 0.5666163722500758 0.9506468819426982
P 1.7678639877926516 3.1894917060828427 10.498981831757307 -0.19157392498867654 0.3652439731137387 -0.34523102032692154
P 4.081694834784903 6.067073026750972 3.5986344758973643 -0.08509040201244054 0.9828350366394687 1.1272261332947553
P 6.956082840764575 3.9521002299494365 10.281303913985777 -0.7370306324420016 -0.14416638223899042 -0.3450405015826703
P 6.413381258274579 7.658468148182674 10.304105979911885 -0.16537489799580551 0.17651445955239278 -0.439310770322166
P 2.4971181148570025 8.319988022841176 5.747119086422403 0.03984618546266041 1.0060032472258156 -0.7270346975715544
P 6.813723972427926 4.033714157184266 1.6456427915490939 0.5862675708221 -0.20089520238960243 0.048264748543658816
Ni 5.3141793757394 3.13425185959887 0.23384868344881918 0.37705073594067967 -1.0843725284643388 0.6809810977466014
Ni 1.4058860261639983 0.9919065090030462 7.118064852743103 -0.07757918123705994 0.593264056744591 -0.9969761040265409
Ni 6.946215048614612 0.6149262650154986 9.292051004512576 -0.542485283529827 -0.29789161181100954 -0.8184309871973648
Ni 2.855587927954675 1.8683499550736258 9.147296700396952 -0.18545084281007415 -1.6695198696390665 0.5542179985857228
Ni 6.327017837643962 1.9852432631764152 2.5351284544275408 -0.7386686822660569 0.35911394895660087 0.9871208084990161
Ni 4.186273642018687 6.674864257369615 10.457023475801519 0.030823927359392076 0.22530062781716034 0.11258346522638676
Ni 8.204300078592622 7.154626057112767 0.22559284057257908 0.09041387110788299 -0.40133197708554746 0.25461660317245827
Ni 7.552387133757419 3.948933901018911 8.112241763513378 0.6778641493841745 -1.0191246150991222 0.09848379260021103
Ni 3.161543456119367 8.26781555750865 12.196430981856334 -0.16330181751686068 0.5410084418739843 0.4810346324235135
Ni 0.14848643443742707 4.922696985439939 9.93082638286189 -0.5748755269350744 -0.19264376101408756 0.7931758121750017
Ni 8.695278958382266 2.389301016671544 5.877891169828909 -0.20836888505882825 0.19311632977513193 -0.21865278348333955
Ni 3.6431133016438713 2.4493353328145226 11.513340491358626 -0.7875286411915533 -0.2247830647507935 -1.0486830454825293
Ni 0.9570768907672632 3.3715016480722113 12.594778548973345 -0.29857835346538897 0.1083318890388844 -0.30361720144087706
Ni 3.024428820073902 8.489260687087294 7.8811609193029755 1.35475462200117 -0.8552589546589916 0.979352734517823
Ni 5.684792779905851 7.8018164943101125 3.5182852811842165 -0.7881444203986814 0.5978694167270865 -0.03358092127923894
Ni 3.1071761491418175 8.250409743643402 3.3384315012535044 -0.0832345797506244 -0.4572218462746319 1.2853361221980315
Ni 3.1755850454959313 4.432275811314192 9.22846176452487 0.43885594217293444 -0.6768151392943699 0.12450309948210818
Ni 7.089572389994694 5.8537326198041555 11.411440470362088 0.6233199955897072 1.438570013955929 -1.261823126677756
Ni 0.33648631516212796 0.1826602987554961 0.4804211517619243 0.519265393769938 0.40039840952768463 0.1829563585229946
Ni 4.576397749168974 0.2417456157445821 1.589229064595139 -0.14439752441319004 0.23981784759672892 0.20251345471931573
Ni 6.069510740217369 5.695704021362463 0.3451046667199027 -0.1526358531625823 -0.5153750575765963 1.1888233372812622
Ni 7.932742396536822 8.7748689537723 11.585342991143833 -0.7739501311761703 0.19138520601663814 -0.5986037237899497
Ni 9.030514033901678 4.825647204668797 5.699131212619651 0.8454717933652407 -0.3098629252402728 0.04875582924746442
Ni 8.001187273901511 8.87178380575379 2.648509116373028 -0.2450767820028231 0.03139934024688786 -0.0319770671272288
P 8.523082837027001 1.6867537947058602 3.7821871037150996 -0.1936557472183697 0.06154501059233271 -0.9201721103926088
P 1.7093048930832124 3.06122839863862 1.6243807128755607 -0.26498149134655014 0.5126453173502591 0.6127656171126286
P 4.802304524058813 0.9806174669354047 8.172829287693936 -0.22949049752879186 0.012889968588790704 1.0506249997002486
P 8.30789840328826 1.8077669285193905 12.30673076977141 -0.010366945056620855 -0.38371992043073916 0.5389230200998654
P 6.51474876031462 7.860609465588283 1.318507941035189 -0.8747893113824354 -0.7297544104955626 1.326513881987922
P 1.841022377542554 3.1888170621345773 6.021157659157291 -0.010240961001717848 0.1652517421543799 0.1458082887177876
P 6.803478379666935 3.8578929490136527 5.994010886204355 0.20991591783097396 0.6539189514224867 -0.5953366230029037
P 2.339071525910022 8.521373739024728 10.043074542499554 1.2218728115370634 0.3256626112766907 0.6006564925539204
