# total energy = -340890.916769631 ev
CRYSTAL
PRIMVEC
9.09901930863676 0.00000000000000 0.00000000000000

0.00000000000000 9.09901930863676 0.00000000000000

0.00000000000000 0.00000000000000 13.31733450115514

PRIMCOORD
 96 1
Ni 6.605642122174925 2.020391674371266 11.308347256770096 -0.44838110805455034 -0.325661068614794 1.4587014945984813
Ni 4.47246810726984 0.4050755873569081 6.101389957398374 0.5837800285135558 0.05075923283073839 0.0020918495320222034
Ni 2.5525296026842423 1.5296087874238575 4.905093704361987 0.815894079708124 0.3492090311380631 -0.6390464051860284
Ni 3.2053751170820624 4.327711813961851 4.521940383487382 0.22941979219185651 -0.4782681254219699 1.5328716501539923
Ni 4.942869191652041 4.680680959100044 2.655649694939492 1.2809688463682711 1.0389442209282107 -0.21604671331906017
Ni 7.285802891617725 5.925936303682241 2.4959218757650774 0.10454876784736833 -0.0801248304770491 0.04813207962053646
Ni 5.0396372587417675 4.685940192083388 11.203913266170913 -1.3792847459320505 -0.07584574348572098 1.1752515121340987
Ni 5.760570732333987 7.814064637835711 12.664158411936246 -1.0026582420129828 -0.14490377462564724 -0.48671908440280043
Ni 2.0019297648155487 6.576843727032567 0.36731374859535887 -0.18576554583701554 0.6850740368690524 -0.257085376427925
Ni 2.820886970119815 1.7563927370378072 0.7653248575988617 -0.3020444576371185 -1.5886417059357607 -1.3594366008578715
Ni 0.3561447027700049 9.217852190495417 5.023964198510263 0.9824527135993856 -0.11710192192203057 0.6934985134873217
Ni 8.388694984889545 2.362924244713793 1.7798481882220007 2.8801860138270334 1.1900471823860346 -1.7937211216100397
Ni 6.757859611064821 0.8333873395400536 5.100779026829791 0.12808567462704393 -0.35792635640640297 -1.2396298784101683
Ni 0.7250817163553785 7.3984942419615205 2.4030327204760416 -0.006189930860795791 0.3450651841730186 0.03768337348338671
Ni 7.596397905262091 3.88266969553913 3.8215151888245034 0.4453479776551814 -1.0255896539981757 -0.32686974421091447
Ni 7.707396838071454 3.766447925822432 12.62347396827115 0.8901562807568089 0.2584460042208775 0.4143803256290734
Ni 8.077772406561095 8.697988838816578 7.101215642627058 -0.19273863472073902 0.346639470638674 -0.1344527544956523
Ni 6.879286019650849 0.5973515074045399 0.22140460957977504 0.3334108877635419 0.3332103417169617 0.064914698395514
Ni 1.7290319868978157 6.4698483625842265 9.187522430454969 1.7196898056252383 -0.36024163480314086 -0.09482948367707539
Ni 9.300562273226552 4.8783207508495465 1.394870514037428 -1.2623921118073484 -0.14657576301143144 -0.03249874395865371
Ni 6.782690833922166 1.7748728446315294 7.283649153819875 -2.0767293885513136 1.079806249249895 -0.7521422912724595
Ni 3.381359243606031 4.435926446956502 0.6384608752570444 0.4080235301731102 0.6648304561286679 -0.7823401550120785
Ni 6.185385731514538 5.592257078828977 4.721141566897683 -0.70577964484752 0.6752393101668177 0.5552834637357598
Ni 5.316474911887507 3.0291089209690214 9.302877063660745 0.63031571018125 -0.7324057320754805 0.11137170430647271
P 0.06602339178277081 5.77076163361659 12.69095320309429 1.8325915734229923 -3.1020902143681353 -1.1205847167188379
P 4.03220297382334 6.2272321199062315 12.662867261139814 -0.09137494946957166 -0.2027307129364444 -0.4241230068381341
P 2.3840976619322034 8.621811851729113 1.3897568653581216 0.3931926358078648 0.006636017259278894 0.15849719703936574
P 6.34783961678205 7.854664460624085 5.884863331905747 0.22980237234225584 -0.38123777743883375 0.24602089108364725
P 4.708678640570198 0.969154711975646 12.721809796334975 0.9537108655800027 0.5197587884665887 -1.3324675284681957
P 4.175758196623022 6.291816956784734 8.275884437396819 -0.2556820683224952 0.21700444924663917 -0.8991368869888643
P 4.732563565451302 1.293980591339648 3.8366040920360587 0.34678910884266084 -1.8986290725690398 0.5186539854381843
P 0.24918937400527483 5.6978602933699625 3.6402135955955757 -0.9943183546887199 -0.6290594691766456 -1.024956648399867
Ni 1.1562760377584607 0.8595133528014295 2.8010083433054356 1.082025625498717 0.08312299387342459 -0.9521723174482892
Ni 1.8744980036879864 6.441705096810035 4.933792920197222 0.3069202976721811 1.0293216102367821 -0.6312058260956871
Ni 6.111510796234661 5.651482593515111 9.348289357599448 -0.2874480478801823 0.7979560071724644 -1.021379215461254
Ni 8.845520332920277 2.401886244081749 10.246024049622045 -0.0116290995984961 0.14233035747151615 0.02040453179828099
Ni 2.560145481589188 5.2397337856218975 6.95810718166039 -0.5604940614024219 -0.19852335972331617 0.16075642538718765
Ni 0.7946837523117638 8.71223790257422 9.063351757737838 -0.952311928349947 2.107691641260783 0.18509191680875867
Ni 1.5845304661218915 1.226156503696317 11.444050936072674 -0.46084067397414186 -0.4103519211959707 0.8140940503849076
Ni 4.134257570953418 6.917929553353724 1.7286434587864163 0.4922397571107135 -0.3147302806349031 -1.0963947497361957
Ni 5.75412862688034 8.122057332045411 8.192117958559514 -0.7184546692120272 -0.8522517924015516 -0.5665520946710436
Ni 5.16543119644891 2.950602585016961 5.2035751940085575 -0.19013976364531124 -0.20591888085643895 -0.3821957704767288
Ni 1.0714185865427772 7.414826981070694 6.978735567640561 -0.5999988043652635 0.1564670539832144 -0.20109780531871177
Ni 5.218533071346481 4.51214892913898 7.238836485233423 -0.562084288707677 -0.015031440411825726 -0.11912075212427227
Ni 8.220344935308527 7.119509220331233 9.035850882705212 -0.257051437866196 -0.07031452925484664 0.5183012300844558
Ni 4.958756078830101 0.42542827306130876 10.44955272646985 -1.824247315223355 -0.3019027898529317 0.842275140804814
Ni 8.189462864814635 7.329032330897772 4.659361957577596 -0.8449377752386416 -0.06368879640821289 -0.13510812869146407
Ni 7.167269971074437 5.865882778266896 7.1780832452568 0.3676785506971603 1.4295295010202154 -0.9622279019120783
Ni 2.154474818389528 5.38430809854984 2.5365662837465632 0.7599165359012396 0.11063739724360945 0.8460258660964978
Ni 2.292215768046725 5.443124157380869 11.490355843775506 1.0056337797015389 -1.885662485106043 -0.20494546119957607
Ni 1.0773056518372817 3.225884305913303 3.797703965997319 -1.037109224602001 0.14110522681516344 -0.0042682883580507135
Ni 3.7733631802641994 2.8087488787707136 2.765038101385444 -0.5476747981505664 -0.9989211435680538 -0.35929238351599413
Ni 1.1551659574401771 3.3854538021570777 8.285632216454008 -0.3708281520697356 1.094368463334786 -0.8027567709952175
Ni 3.5409196408308032 2.7965015991935838 7.08247803279557 -0.5495792142621309 -0.4433648857868816 -0.07779592523355634
Ni 4.359503786355974 6.78990635599101 6.0195415517667605 -0.16328690511852526 0.7007140573991546 -0.028410947042525263
Ni 0.8523551545523004 7.220754004770104 11.33997635672408 -0.7975271471651619 1.4906770190638134 0.049353867842779515
P 0.2853607042452176 5.540665641085794 7.8559219450502065 -0.6559843185919476 -0.268828375896466 0.44186721819543257
P 8.834292143471409 1.6838553575512718 8.061448766470924 -0.8859676965967581 -1.6497010351409265 1.8168728771361549
P 1.8422874764197559 3.388966023491975 10.404792832193614 0.3601781285550571 0.5261490082636486 1.3830105315230696
P 3.751270762126554 6.254474582799192 3.7796587915119075 1.634548238659888 0.042330642447410964 0.6649181307464678
P 6.939912783263341 3.9768081461371847 10.49025081866345 1.2875518989024277 0.1962163088566943 -0.0035049278294649318
P 6.580956483621618 7.851288724574222 10.42191900575979 -0.6412580681253666 0.6697284076509176 -0.621140214329569
P 2.5153874071167515 8.53715457893148 5.759147645762022 -0.5726008719682848 0.02468824677529942 -0.13027933984425305
P 6.7440836962953 3.9175826314510513 1.4219182579237397 0.4919816183533204 -0.18315921856242004 0.9602296405351268
Ni 5.08966366521655 2.925889649406646 0.28362097181197304 1.1752584541126339 -0.315525779953005 0.18165409477180328
Ni 1.6113634731597481 1.0294539109040541 7.119287204267576 -0.7178532881826023 0.45830890869122354 -0.4444594044026409
Ni 6.881269605793356 0.7820770614840424 9.319310801880842 2.344310265193924 -0.31888621178480564 0.1689415323011413
Ni 2.5547770603778166 1.7122533958575281 9.243055563229957 1.5147132340774108 -1.1033706668333965 0.2901487346407971
Ni 6.38666513086497 1.789895325004368 2.2785827078755414 -2.8503614742664327 -0.06451643451583082 1.8797175803765176
Ni 4.263636522147477 7.106324741796864 10.305379680279911 -0.0477160751290404 -0.14382648240106843 0.37098936023794815
Ni 7.990303536891744 7.1031582831840545 0.23927144329274053 -0.828440806024883 2.207179449645476 1.4962755961975136
Ni 7.774975252201723 3.887655957952404 8.422241248147317 0.04986397470997864 -0.3911180126670232 -0.24950627852908644
Ni 3.2557836823549433 8.444926922323914 12.279886821626253 -0.05536613547513046 -0.13839939784822614 1.559762046786933
Ni 0.10861226012505346 5.086287929166688 10.302942053089188 0.030820584925282404 -1.5386620315835242 0.0017115833744680198
Ni 8.655551014189735 2.404870722314511 6.059467137247062 0.9345993415615323 1.0165691956671201 -1.8242177475370005
Ni 3.665721785466694 2.6243663577075984 11.664067035352694 -0.4032736741929506 0.42296086820923284 -0.6486908702543279
Ni 1.2076672970835927 3.391422758622603 13.054489948901786 -0.5667436418565595 -0.22563409989717917 -1.5749773210747906
Ni 3.0915827854389852 8.492260019174008 8.091106109007104 1.4213762757854616 -0.5790862225823125 0.41821923975918934
Ni 5.43017625334056 8.05462450221918 3.6435556652751298 1.576537466473059 -0.0978890964390056 0.8311762026781749
Ni 3.1743019671891224 8.365892843269718 3.5190519684625157 -1.629015995987749 1.0138633667001828 0.638887253900345
Ni 3.5105471154010424 4.4119050367903645 9.087215754875237 -1.1812897479083784 -0.014579954696703923 0.9840583675236084
Ni 7.341170422246873 6.108089565089786 11.381952861087505 -0.04692057581093855 -0.2288379515464575 0.6875332970428224
Ni 0.5645358953726546 -0.12776660502684792 0.24971347749980874 0.03798239278104427 0.18052949424905684 -0.13638391008009415
Ni 4.596724310765591 0.20387079996229465 1.3830718160971134 0.0524841859416451 -0.34889741343491526 1.0004391228744771
Ni 5.982013557793571 5.444134148490128 0.0515368436291691 -0.34174409021958563 0.18735114515658058 1.1069298449395646
Ni 8.335365634516918 8.960995983078783 11.341041851849251 -0.6559398385072575 0.20477705394251186 -0.0314060251151072
Ni 8.936155661202436 5.17407526450112 5.645404448821558 0.15077900245950163 -1.3099158684199246 0.8182620657196682
Ni 7.974298362466655 8.821890180571238 2.4283489210462106 -0.009891548082099093 0.7124341740495601 0.49897938982739226
P 8.437210954209942 1.485815208965667 3.7531842858227433 -0.892431707054547 1.0001881832059356 0.22266627551810686
P 1.8938789141629386 3.3373017935967733 1.7785834245806775 -1.2518217924906698 -0.2151275439389005 0.3090751392316548
P 4.745302192054557 1.244518324043009 8.26665530242276 -0.28363073101662123 -0.9982282312660873 -0.3454994434969598
P 8.589819700916939 1.6511079881619042 12.653411560592598 0.6335486152962508 0.4599019642099564 -0.4143003643207575
P 6.374963792427981 7.693084081180797 1.6749346793213924 -1.411813314687375 0.3169396295813961 -1.3652292962802488
P 1.5736207423381037 3.3986928748054606 6.007769240981552 1.5632908858757981 -0.3808546830678022 -0.4298817636987822
P 6.915418224109081 3.8951444505913178 6.0172112930002655 0.7331490379994083 0.2089638383303498 0.2683979732272668
P 2.416590258789506 8.396538339269549 10.351071314101986 0.3732925544498281 1.029069642126976 -0.7738891960312478
