# total energy = -340864.4312631718 ev
CRYSTAL
PRIMVEC
9.30024934872793 0.00000000000000 0.00000000000000
0.00000000000000 9.30024934872793 0.00000000000000
0.00000000000000 0.00000000000000 13.61185500547476
PRIMCOORD
 96 1
Ni 5.383430660119793 8.585664570577231 12.474380566736995 0.4366527638740286 -0.28178956404282435 0.7278168271532175
Ni 7.758537606005505 2.2697723232274036 0.8606218121351984 -0.034117510508999305 -0.8409049999301647 -0.09742192699459996
Ni 7.174956267740785 1.0424928357441123 11.462311636264127 0.1601049078461178 1.0817721147270143 0.4655545345100433
Ni 1.7035917512520788 1.91236374572795 7.065260758223525 -0.8245090750706445 0.17585882824626486 -0.05283925528821868
Ni 2.338808073182606 0.5626474072968953 10.362963586967389 -0.7820910151157499 -1.1225194718477054 -0.41772147418716443
Ni 7.448606800770811 7.579768215511243 9.415782495297897 -0.7521736587310272 -0.9123248464340481 1.77586275327238
Ni 4.602963045881525 6.151882352366666 3.7955972508510656 0.7259869730333303 1.674017243288788 -0.5049608042218078
Ni 6.82865218780923 1.2945760908344761 4.153889352026357 -0.005327325750184373 3.0918860201416236 -0.5273384005860595
Ni 7.8207748737813665 8.726070433041691 3.575331078365005 0.03951399893422227 -1.9039270877431855 -0.8055387046157289
Ni 0.17788307674365852 1.1774580524152565 3.726245292422405 0.8179427347070365 -0.08638572378509639 3.048456231092763
Ni 0.5689232154701097 6.0200327191840035 12.967836909916723 -1.047736365298544 -0.5049718599654013 1.466970676585809
Ni 8.725214810113512 3.294455181716469 3.1483677970039095 -0.1150427254001567 0.654043392815493 -0.04975058906056593
Ni 9.176453601986944 3.811158427844875 11.781781707123104 0.8135757159875924 -1.0961389249716478 -1.7091233429633017
Ni 1.980655475745605 0.2562097756689876 1.7962203734269175 -1.1616912569511606 0.05775520453259731 1.0813962194448345
Ni 3.658615740149167 0.7268665578874912 8.205634066876641 -0.4373402768593565 0.141164362187873 -0.6220074474258707
Ni 1.3224675382432938 6.366318198617119 10.96206239105459 1.169563974831018 -0.9051522399450088 -2.038721798959289
Ni 1.888173797508432 7.044483071442585 1.0243257289190426 -1.233289023793805 0.6225759183348311 2.0428155094126885
Ni 3.2774915271403824 5.754045591510717 8.844507246800214 0.07461135685798764 -0.5914036064970847 0.7837030967978762
Ni 4.565762049004142 5.499999983835071 12.11442837107605 -0.4080875506418262 -0.9931973537103991 0.12929177912000311
Ni 7.228693107730164 5.316589768980355 3.4695528338189336 -0.13043334892361408 -0.7549473648214224 -0.9293728030552704
Ni 4.075769118633697 4.051607071161837 2.4756156692241027 1.6277055047064417 -1.283295437618919 -0.09041387110788299
Ni 3.882798247581494 7.2055447874232135 10.91642141801065 -0.12296686534323986 1.0522805330258007 -0.20220286545743243
Ni 3.8341300434166583 5.519270100217556 6.466352609245322 3.335539696544675 0.4271589654509805 -0.46423658702956827
Ni 8.39309361024146 1.164363301514418 6.829952362650095 0.6921777377933692 -0.1741187056267066 -0.429335404277009
P 8.043422840092502 8.44665374549567 7.638605312172511 -0.9464246163312344 0.5212639122572055 -1.8306023109071055
P 3.2079721642257737 4.6961515430593685 4.398711902551177 -1.39504380853852 -0.8933932996368679 1.3592198568613754
P 0.8175030666795462 9.05114204400548 5.368393087157033 -0.8147036589444486 0.5182526362347074 -0.40859688617807693
P 3.669562133480337 0.5090993623666689 12.290879209439929 -0.564877278071782 -0.27185379298635115 0.5163309937319623
P 1.2653361072888536 2.3792920580344177 1.834660163500317 0.508770150665569 -0.046195781829772055 3.356306753888697
P 8.747888817710276 5.517028740155693 10.417806226588949 0.22122542930652225 -0.1357511615921017 -0.6095422250793244
P 6.54297643253859 6.939287952522566 4.592980158369479 -0.5512751139073151 1.488422675811998 0.5307967914483053
P 6.651733546909617 3.057968444566948 12.329427812429195 -0.2000361968234168 -1.6811996199698402 1.146106000918394
Ni 6.141856683708212 0.34848591839841325 6.127566850782687 -0.9765252923713569 -0.7752943039088906 1.3550875798605566
Ni 5.217504913797447 8.866643699992101 3.7218620849653274 0.004237435120115283 -1.6798726736283003 0.8756382896462921
Ni 6.260964975460372 3.1831683995577786 2.428967479189709 -0.12581333365309944 0.33659391347721385 0.015473927265883026
Ni 8.878083006531897 8.209915901617228 11.55112901630888 0.6042267264036819 -0.3280516803341576 -1.7516661014215187
Ni 2.8352367760128385 0.44035936033664125 5.767764389134174 1.711998864738884 -0.7153642032121615 -0.959699736173586
Ni 7.130333671986365 0.5908494830296391 9.262935689452718 -0.6247335881077821 0.9359728248702913 -1.8905622364005057
Ni 5.6782950616191465 5.993740914640913 9.41364529802729 -0.8334338883641002 -0.7610326517835538 1.1877596719034382
Ni 4.882779644143978 0.6549561008985887 10.463201673053497 0.3290474685885236 1.9761015530249066 0.7630054592392086
Ni 5.267837862572546 4.022534492102163 4.981503649657175 0.5240360756857039 -0.6390983414698864 -0.7726154715251469
Ni 1.5135225579563116 3.6928778582732367 0.22360775203057143 -0.4147749899643308 1.4220061960599768 -0.5387834091982076
Ni 2.1159834021363038 7.888071477132552 12.327807709015184 1.2010170511339768 1.76933575078714 0.9850554413295552
Ni 0.11528774937285259 8.826345720124676 9.153509887162818 1.7570458776761932 1.3935736517508968 0.7928842490765119
Ni 6.04608271724739 6.867034316337469 7.223538909612803 -0.11253127183221266 0.8260131704199967 -0.4654210942559726
Ni 3.1924128472818083 3.1347978033679618 8.695647457795369 1.1742500674527778 -0.7296225129033886 1.764289446612484
Ni 1.107892188254551 7.75463150133338 3.6133756078465824 -0.2871595701054861 1.1112169023506926 -0.4911763488432057
Ni 8.314664608574716 4.269139900402332 13.72360771235302 -1.1493396773643432 1.7478562407571252 1.868985281560678
Ni 3.261550899978424 2.0150756981064033 0.5382807543422097 -0.8284418344661475 -1.1473619848126821 0.3271204267691399
Ni 4.465421660176622 3.746754202000906 13.643433983932729 1.3104033495793044 1.1581140811228636 0.21353371708921937
Ni 3.690887604940297 8.445649318579981 1.0518823673559636 3.2714204974672634 0.4472721912610878 -2.804338213458783
Ni 7.699248517232177 9.054062322260355 13.269284957838453 -1.3771335039170025 0.6932282905450706 2.7869493285583746
Ni 1.0959134672600337 4.253450379969296 9.47788025933547 0.04758829130192449 -0.750563891041746 0.685178937878033
Ni 5.582530395407545 4.151900958743261 7.447195952964236 0.7559567799225433 0.05796706343308727 1.4558146599689894
Ni 5.131375305777087 3.199583339429924 10.635187461767169 -0.2610430755240924 0.12237371184393118 -0.33262901529219485
Ni 0.9233585032941384 3.47650756018516 5.359749435532573 -0.2936750026265007 0.021463826300730775 -0.6583016538712146
P 4.585776185324174 1.715756477230983 4.390749029169574 0.14083706075544133 0.2721471558570539 1.1093834486863796
P 5.4748986111920575 2.0620884579101957 8.329937477842726 -0.14349840963768834 0.06188979552626115 0.8892209134267332
P 0.3933186997851909 8.366783205199932 -0.06184386723388279 0.45867811910518425 0.06310309910807196 1.2775107126163419
P 0.3798984401616751 5.542288217035437 6.624372213706303 -1.2478733493658831 -0.03614071158661518 0.3630922168780586
P 6.618633959937966 0.4341207531603042 1.7650766288660946 0.801819861003245 -0.8696504474939734 1.356188012013587
P 9.53796358939213 1.210539038888469 11.648467284688394 -0.5931630123903526 -0.4797393106508577 -2.753935335526199
P 3.187623218933845 7.968602335122866 3.003714510720973 0.5074378050073906 -0.6338378644018955 0.4920281553205397
P 4.3373014269309165 8.087775728619562 6.485885922680715 -0.3319397025346541 -0.016765392383796936 0.34111648393791577
Ni 1.6983464106923678 8.188534628661952 7.248883948785364 -0.029039324655143535 1.0803536371129328 0.7603217417594583
Ni 4.815975954001417 8.301653559916852 9.103009533901771 2.0473424507487645 -1.8551056953651082 -2.3896115602338845
Ni 0.6446086436171446 1.594090616943503 13.59458163483335 -0.5809592712353091 -0.9830684928065135 -0.3169224031902155
Ni 2.3799244749813333 2.09244447136214 3.9454503064725386 0.38184584333647786 1.003034394405479 -0.5766429032481424
Ni 8.527603114700856 7.19718386337502 1.5064515784748431 0.8452817888416216 1.4835985149504771 -0.1584411469904497
Ni 6.927839345733552 4.899045780028613 11.412042859208642 0.12339623957117457 0.0509806048129251 -0.8251989020488175
Ni 0.7981352976802588 6.448067389255168 8.714418150794774 -0.16040624113662053 0.39367008966491557 -1.6709445179007354
Ni 0.40379450050586185 5.70042035451197 4.4202047784970855 -1.0718209170515733 -1.0879628169187585 -0.8588181327651597
Ni 8.388750393856025 7.506965864622205 5.624568451903909 0.7083787730332639 0.08257971977544488 0.8385814940033106
Ni 5.638443493714251 1.5071890882379373 0.25923793681480656 -1.047706797612189 -0.15877076241572655 -1.2062348478894904
Ni 4.162066131140006 6.163991276850254 1.3169757410792702 0.042847948403461684 -0.8203865682618386 -0.06365588628774843
Ni 8.635932417607794 3.5346434180552895 7.304774726493943 0.45234729179114996 0.004214552301979838 -0.03975645396233153
Ni 7.7345336627703745 5.454912375619684 8.457794514035525 0.6037364170308248 -0.8737978940034435 -0.1955388231736955
Ni 2.3206260859587853 2.1531099970199317 12.085026563194011 -0.3033042981861486 1.767576344893872 -1.6457790743787013
Ni 2.001209026520359 4.711850363741624 2.5667739219973633 -2.867460595840565 0.27190187261546717 -0.05697538894377929
Ni 7.246270578754727 6.591523733463574 13.111347195570602 0.7899429070600008 -0.2368201984209857 2.33227390285468
Ni 4.071537505238895 2.5140247684750783 6.5510592791351225 0.04464643506478117 -0.4066593028357319 -1.2032086594686568
Ni 7.499832573470967 3.0593727821990693 9.687352562577555 0.2789682925439454 -0.1405634953790805 -0.44236215555398006
Ni 7.250799800124549 5.143633034248184 5.967410049051101 0.5432381025354515 1.629027051731343 0.03825518682645669
Ni 9.07033775839421 0.5420380550268253 1.764178224791506 -2.7359031606148365 -2.039317780672075 -1.1890557650070426
Ni 2.106506448181791 6.610905452836691 5.709655501986781 -0.4293410607039638 0.5609915698641307 -1.3462203592779138
Ni 6.216565585687215 7.375544042903631 1.7778719117420705 -0.3514718590303108 1.4849421734625652 0.48779920484085665
Ni 2.1478553562110014 4.402747280687452 7.184963335900801 -1.9029030173540453 -0.5445977018871394 -0.07098455873867775
Ni 4.048510088171795 1.06185595461879 2.3814208850807264 1.7224455139935047 1.0905354627419412 0.7146085559930596
P 0.5626343869479882 2.238867595071518 8.797504717270565 -1.097057065910543 -0.5279341251885294 0.07605631683463031
P 7.47250844126453 3.234245368270425 5.250895598569664 1.1772322900095533 -2.013360437376365 -0.7688364640986888
P 2.679625006074747 5.39399574323297 13.589394885843719 0.9557098982879024 0.04454513360022651 -1.2852790437078512
P 2.7772776228778766 7.818217305246046 9.12805510504947 -1.9344283416558363 0.8501136630126263 0.35951838348387116
P 6.211208642136872 5.320300568418875 1.3213682487855674 -0.17512323563182097 -1.7069872704569053 -0.2675356252269715
P 6.312088445419114 6.991183343166515 11.410477627265026 -1.7164797833283731 0.756798044876916 -3.0799049365203475
P 9.077759357271248 5.351651708537289 2.1679876056961187 1.2399785199988387 -1.4809037417271333 0.2913152441450725
P 3.0103046673178016 3.975298526317106 10.785965892185965 0.35094041200687304 0.4405590409069703 -0.36791200686420505
