# total energy = -340890.15811883385 ev
CRYSTAL
PRIMVEC
9.10164816490234 0.00000000000000 0.00000000000000

0.00000000000000 9.10164816490234 0.00000000000000

0.00000000000000 0.00000000000000 13.32118209803417

PRIMCOORD
 96 1
Ni 6.608378920578508 1.919137081135412 11.199117264867107 -0.4502832101732697 0.9701235026100713 2.169107582474419
Ni 4.797624263287617 0.6087882978993299 5.742042200669936 0.058211575343725556 0.3827724689158053 0.14797881400654514
Ni 2.8771856464946834 1.904938510326086 4.550302452920272 0.2445535625095014 -0.3381049508051016 0.5017577239034778
Ni 3.6708766530880528 4.4259129608178265 4.573068404949354 -0.8080537577280986 0.42243173517864024 0.027871015378655228
Ni 3.6044983345544535 3.175947240607585 2.5349545817501538 -0.893249832080468 -0.12878450046628143 0.7557564909862791
Ni 5.767741613834817 4.513725660284734 2.748372753486256 -0.6184582966220317 0.5548368631166445 0.15872859632388145
Ni 5.095102525038906 2.988935680082443 0.9574906343396489 2.0684586639020894 -0.9659770845418654 -2.051772975716292
Ni 5.7425846588880365 8.097226493007705 12.366906026023988 -0.8014251966679875 0.5986728864649883 -0.14635002015387052
Ni 2.093624774074892 6.536093632522311 0.014103913670597159 -0.6253136289809683 -0.07898197512185753 1.2172628235688778
Ni 1.0097186207980817 0.05199680460038365 13.345825580308174 -0.9314188869510216 0.4695669981035462 0.5293914264603463
Ni 8.234970833154076 0.33426075163060265 6.877992487116495 -0.3951194205169324 -0.941148969754592 -0.30256304914474985
Ni 8.877137604597664 2.331541851610649 1.3037255140194497 0.41490920154934996 1.229639857076992 -1.4980424582899492
Ni 7.083575960293194 0.763470804889391 4.494699575400238 0.13558558254851485 0.6493529293183591 0.01759508737394389
Ni 1.2687697248846437 7.716959641460499 2.6156006436175345 -0.14001970706046854 0.4569431386919486 -0.3856533900080262
Ni 8.046457500716409 4.033149546628823 3.6129173589125476 -0.7941916550340258 0.8240804721736581 0.09864140122399785
Ni 7.501951411826712 4.036353326708877 12.286126169931675 1.8479302606625916 -0.549895202840653 -0.002474172572105416
Ni 8.260646582034274 7.47219812466281 9.301688524268442 0.8100409633614565 0.16007379749786627 -0.12440436912071479
Ni 6.840252503872347 0.8996314582916455 0.31310215063032054 0.9779183160641416 1.1497443690019293 -0.300189920926883
Ni 2.3456221009965645 6.418591357427183 8.927256739224994 -0.9857835777448314 1.5537027279667306 0.6871039228148875
Ni 0.36955694239891435 5.124164086958251 1.18754570837214 -0.2099197744857159 -1.0849086034734672 -0.3083212917847658
Ni 6.638951356058333 2.3404887715501155 7.059320068493928 0.14320813209077918 0.0513133055619955 0.03616796528012481
Ni 3.490864259840072 4.388605305851527 13.401241874045137 -0.2681611746261124 0.7294263377321825 -0.20908365173766572
Ni 6.507022968955011 5.992361183708763 4.629789875003021 0.060251488591889786 -0.31841467146502583 0.23422646955188048
Ni 5.600653560682504 2.9807532985711713 9.285303737620398 0.004010920931605995 0.014772016102851978 -0.16970669260194
P 0.31840568089352195 5.648273382781475 12.220119198634627 0.6666178870463939 1.1614194913470128 1.3903260913478763
P 4.258360723619825 6.46287087472678 12.721994988834119 -0.5364958987156115 -1.216795654124472 -1.4472539148831722
P 2.7948339358005927 8.803723712195083 1.4215964058567423 -0.27383097131738005 -0.9033982333683795 -0.9304878904963201
P 6.599923489628595 8.191264719675624 5.647142047940705 0.28039551190877515 -0.9535344879031386 0.208414393584783
P 4.903503733944598 1.1605147241114877 12.653950158560015 -0.07524024869123817 0.9767245528663565 0.02561152992051718
P 4.165778760624656 6.371044348511851 7.876334958136002 0.9577752654573635 0.8138346260759339 -0.1754325393421237
P 4.985227430929815 1.6577286502285837 3.6683473051214426 -0.2869767646707187 -1.8214111313261403 -1.5808615477697097
P 0.4056913949438535 5.894509366547824 3.4473884180548753 1.0218898365490854 -1.524087476203459 0.7191627510226453
Ni 0.6598858596817896 0.33929578327914056 4.770501352382623 0.12585832795842197 0.2399644004769222 -0.616133762253913
Ni 2.456953458778408 6.628293326303383 4.653754514067735 -1.5907991185983958 0.8853308343437075 -0.03106303995339166
Ni 6.073338545561694 6.042056181541404 8.950821815944497 0.6554698408493743 -0.4523768594775048 -0.49153090396914706
Ni 8.797352558626796 2.5404155705229714 10.311047629972313 0.5779405390136434 0.4482109010252733 -0.4789417544502268
Ni 2.5905747524013023 5.382095688346386 6.654876509484664 1.3170115989244415 1.911435994525721 0.21279195382718838
Ni 0.6062207230113101 0.30238769065805216 9.278123447548937 0.6891734037494066 0.3618573160296929 -0.6294901289561611
Ni 1.8532229466475023 1.3163531403917952 11.204486326995584 -0.6314346542770416 -0.3721563839628559 0.4065374325458869
Ni 4.193447770406932 6.967065764825128 1.479889730512185 0.45258537594388504 1.2161029989328218 -0.4569745061505162
Ni 5.802955889771536 8.352846275815345 7.776932220163583 -0.09210771387053814 -0.3636295774387673 0.35160761327722667
Ni 5.43871704027255 3.1277995229272424 4.9967482969108685 1.5448722741592942 -0.10046894135103987 0.3073136764558579
Ni 0.8745837231203216 7.804845154111045 6.535864270993852 0.8165661660744841 -0.8910656799449557 0.8207100130395285
Ni 5.2090278524878375 4.970965148584805 6.584567189199431 0.8916516343554127 0.3707109097655809 0.29444890467804774
Ni 0.9024238438841462 7.6725618027374916 11.19378916015443 0.15832467601724345 -0.5184439263099071 0.07177105919571511
Ni 4.686684276367826 0.5739926977685265 10.564322828266825 -0.12220761857971209 -1.0167643423970618 -0.6612000584649323
Ni 8.475199729270326 7.480034643551804 4.498017126079724 -0.3756607975716885 0.1938336675571307 0.47897646434290414
Ni 7.649698463075295 6.899121962843322 7.161640794800623 0.2651858940478723 -1.1184512153156028 -1.7206657963852625
Ni 2.55244794911908 5.551213408992595 2.4709463323439573 -1.7261988103883499 -1.5950375821597758 -0.9701325014711356
Ni 2.4320604516223137 5.471137110287177 11.143568087070008 0.04492925641252263 0.47499639664923354 1.3164675534955135
Ni 1.1898584371174281 3.540213395050434 3.781244146351493 1.4942310549636588 0.9049210977708092 -0.5147916742693005
Ni 1.7549979619204215 1.291860605745708 2.31694007779693 -0.7632872521456855 0.642834411473551 1.4000937122576016
Ni 1.5098177693168167 3.864587026507851 7.941063147895415 -1.2127873042960273 -1.278923019582836 2.5125668556128984
Ni 3.961774423368096 3.0780317119109637 6.999482194180574 -0.3600809408555605 -1.057659795059843 0.765775822895494
Ni 4.64133986625753 7.208814636149813 5.621059455396933 -0.649356785973101 0.09575739480798347 0.4842641951044047
Ni 8.527716237968923 7.356579890694305 0.2979961455199113 1.224605122866562 0.09278674221543375 -0.752659083007878
P 0.469436606724159 5.925236530042879 8.010706227550363 -0.5222257619498425 0.9010970960390287 -0.9204207360683051
P 8.827706554555709 2.0670479620471793 7.905775148610261 0.4856453917226475 0.0051990277024362075 1.3203702309840293
P 2.132625335560765 3.5613110150094203 10.253912945101504 -0.6695445737748856 -1.5025364895055606 -0.8289100323518176
P 4.248986026226488 6.225081220262388 3.48809826902664 2.0351723910451334 0.33539552229373853 1.3665822107637173
P 7.1661188055943335 4.548657785134859 10.163316051525255 -1.8621644019841026 -1.053320801364857 0.46524394524816004
P 6.299141329669752 7.940550725115565 10.150434489174971 0.8954578954753805 1.4774304384665522 -0.43160851658190186
P 2.588199222285126 8.81282536014978 5.451027929296073 0.24534289118001615 -0.10531804191322507 1.9362833925867042
P 7.1396603149900315 4.244426100601185 1.0565020014500155 0.0697123768944735 -1.161738308139012 2.052510110992633
Ni 2.908267774259971 1.6945721211491938 0.2450473085434664 0.8537525453167942 0.00680802406076892 -0.4841513236756242
Ni 1.8252444808347665 1.504329475600135 6.884919751374814 -0.9989715371900151 -0.027202785667037023 -0.05958120199774255
Ni 7.245931156509064 0.7401205270616181 9.398013995067378 -0.4079181149434975 -0.49114241028147665 -1.7065219007847126
Ni 3.030047823893806 1.5947179414382224 9.100498416559475 -0.5626229348199665 1.209009068200518 0.18022276164191542
Ni 6.850155096847056 2.1594205871393903 2.487584144805142 -0.83684882758292 0.02808878781641614 0.26458142769465404
Ni 4.44617322916498 6.952839889071938 10.3833147147326 -1.8288634738391278 0.4980535355790133 0.7276515052199468
Ni 7.509432966445472 6.637231144594895 11.384308495801312 0.2447556512179785 -1.7731227286333977 0.4859413256965115
Ni 8.0512813741324 4.235561095493311 8.21790342290943 -0.41237075139821244 -0.4919911314350172 -1.521036090971645
Ni 3.0209643792350187 8.431111346577778 12.383024134386961 1.9462371613653062 0.48920328427723486 -0.22901047256857976
Ni 0.1324025829617604 5.076753602762238 10.17447922274169 1.1545736720697728 0.12313552971062018 -0.6200438959415967
Ni 8.750551884843748 2.4974648938247603 5.546620717434655 0.021514991253640366 0.9579822392618469 0.9553466014112129
Ni 3.8024864825129585 2.8080677319267213 11.409619268598524 0.9767872877834919 0.3893429230444714 0.1526368816038468
Ni 1.268915351251919 3.4191159690132022 12.384595988988737 -0.9318477469583243 0.45589515704340844 0.20835911486681535
Ni 3.2701948051784635 8.795568635627676 7.699337030690616 -0.15133847450739743 -1.6750657391579604 -0.3174829036793758
Ni 5.886317883388597 7.918588448600883 3.15416244622802 0.2571979907463893 -0.43288815462527386 1.0304541811793286
Ni 3.560683001300546 8.735743503621459 3.5931886268059476 0.4039190210864334 -0.009427978182119247 -0.7633001076614919
Ni 3.8898987094698607 4.6411396300025265 9.442785911521325 0.5198870865143369 -0.6110167527423219 -0.7695039224793586
Ni 5.371273828928252 4.88757585002388 11.619973825633076 -0.6532373519744299 -0.2148740331671977 -0.8526390005376412
Ni 8.273789361680855 8.952317216703454 2.3492172519386694 0.07738352028648608 0.6500306721116741 -0.1601020796326404
Ni 4.889223248303679 0.399610583945321 1.6321375466743646 -0.37025093941002685 1.0051097888772689 -0.29143094378733037
Ni 6.43381841445539 6.055371892499124 0.2116187759354584 -0.9777781909418515 0.015414020562225069 0.08183255719677521
Ni 8.036381976430562 9.005079469896828 11.68637944911054 0.26431377585556415 -0.2991856480320847 -0.792508610904648
Ni 0.31652710075567264 5.123326735346419 5.871297433768962 -1.0812833480160537 -0.04338376630227367 -0.579443348811415
Ni 7.737875228460391 6.391978138807652 2.3357895907111064 -0.9645064135336099 -0.6260155401439993 0.4133074042798688
P 8.94128601938236 1.832452986014886 3.444991043983608 -1.2362375648991675 -0.4039280199474979 -0.17900405874346592
P 1.866356624646129 3.4127903236846886 1.250893178136825 -0.010342005355956382 0.22557470741415347 0.6407384481764706
P 4.8962406188767496 1.1843883466966556 8.07988330283003 0.33643450508121414 1.3120992492244887 -0.31381676768169825
P 8.734687712458713 1.7416731493147464 12.441051690922126 0.12370682883305793 0.3835157748397331 -0.30456568139707546
P 6.638004784671044 8.043954547528868 1.1152385763608517 -0.02755991189613963 -0.37834220105859356 0.990333659009359
P 2.0284205681274488 3.507756918443988 5.9075310942766075 -0.08170323070776252 -1.180899197338179 -1.6531817946006755
P 7.174920099166524 4.250205647052417 5.813696744522873 0.8161406485012911 -0.05431146895837098 0.27065411625129515
P 2.665235570573674 8.495259761362476 10.170695667686923 -0.4726206973282054 0.649572501528333 -1.157033189353859
