# total energy = -340853.89459628373 ev
CRYSTAL
PRIMVEC
9.41438643430204 0.00000000000000 0.00000000000000
0.00000000000000 9.41438643430204 0.00000000000000
0.00000000000000 0.00000000000000 13.77890616736406
PRIMCOORD
 96 1
Ni 3.759155072362869 8.689328010613025 3.901345257250466 -0.6829595616292109 -1.0737070783306928 -1.6861924451987413
Ni 7.223526877986211 1.9477329864739996 2.5793149849866444 -1.1812144145857528 -1.04720466116479 0.7975317751508523
Ni 5.113800544846811 3.2778445680176245 3.062595920403956 -0.4649153582641477 0.47081295469550527 -1.2487074152314042
Ni 1.2942710125452417 7.098635628095864 11.784271762663538 2.2395316407239365 -1.0070278318355883 -0.007160265193865087
Ni 0.9010000839933469 2.7055440191834457 5.442598931063106 -0.4209896034154749 -0.11708289575863708 -0.0843031302244548
Ni 5.729444928634643 6.681917228793412 8.908683213571347 0.9821552369636246 3.2274417778934676 -0.6824746515729924
Ni 6.350201324233907 5.680113543935003 1.7223356303286115 -1.1116012822733048 -0.645939532761436 1.279994398270144
Ni 2.6610610434762325 4.0071959106608475 6.4737849158542575 0.10303541652663546 1.0681139005136315 -0.8679509483043633
Ni 5.876365842684753 1.1261489003379583 9.183213310863481 -0.9113789375810111 -2.613942367938608 1.5872522817874017
Ni 2.5022309306389006 0.6517786816416785 5.326098723764894 -1.8399786099156825 0.20115796913268583 -2.434715651661375
Ni 1.0351306126898443 1.0177045834762883 0.35111142340648904 -1.103359868200119 0.026148633370909804 -0.05497121402955694
Ni 0.7703990087556081 0.7735095220198753 3.41134056707123 -0.5019405293382452 -0.5876994181726201 0.2469390320225425
Ni 1.8300908141063092 2.986262192651739 3.249796286636778 0.7997539796131516 -0.2188404740141134 0.021075846833692735
Ni 5.146694410904166 6.092322452155179 13.257898133260264 1.3018143223587129 -0.8344062795796985 2.109153827628606
Ni 1.0016436402897264 4.789154844468495 1.9431566532483326 1.2652401227791048 -0.8452013133126735 -2.565510754799782
Ni 5.253764227352449 0.02464592213839442 13.174591169506705 0.8248096370301989 -0.7148708085155108 -0.6360600688641949
Ni 1.3779837363523402 8.547490865215167 8.875571875188312 0.09140528848687483 -0.18509705901508122 -0.13100541937700017
Ni 3.209684410531863 1.1161790651477066 13.496838084232072 0.15583687659838322 -1.0187734024072908 0.07226368256141748
Ni 4.624694928568112 4.794831719463511 8.70585779024196 -0.7393433397355783 -2.9857598805048062 -1.9916017055430344
Ni 2.3111188868597616 6.728028893346624 2.3794654491961063 0.8848819197317469 0.5283282753031546 0.052037585322529736
Ni 3.8977536688415126 3.2296993960035105 12.942939836480408 0.8314909057051165 0.5662420196297926 -1.3601691081485219
Ni 0.5069515271253853 4.518397091804061 13.328831768977421 0.4541018125884115 1.8041158345808026 0.597360595411468
Ni 0.8466235296256658 7.715023748408748 4.566798335128065 -0.25598057339952046 0.39394596903412155 -2.147450666326276
Ni 4.02658013224416 1.5403065865414982 2.2856586202983675 -1.015325553068006 -1.7923664073543584 -0.5540801874562781
P 2.816652607394352 9.145031383969142 1.9070421256059114 -1.2072321788057532 -0.42040930543197275 0.0941172881013992
P 7.456043393122033 8.231308698204213 9.615030503063124 -0.23999396816327698 1.114464719864029 -0.8449915112947125
P 1.6156122632995935 2.941647415535023 12.474787819996745 2.0274230861170177 -1.032564285543796 0.8815975925535203
P 6.701932214265059 5.345705124867083 12.19515889103413 3.2245330888871044 -0.09189482652878367 0.3042219249044116
P 2.114301724926428 8.296795169954345 13.202148961356475 0.40730567817047914 2.08970266088253 1.1424349798247098
P 4.990114336414775 6.8190283522219515 3.475094791725039 0.09684522855552355 -0.3720689664553721 0.7230841975642386
P 1.920770183844273 6.014710250730785 5.420828162529153 1.8528521234442414 0.9676863539234882 0.538254533277931
P 9.216326532123794 2.002637687918331 1.8567071673167714 0.7168400164267397 0.5201660512073364 0.4869170593462195
Ni 6.017901727718033 7.088854080633474 5.7970063311458055 -2.108592812918814 -0.5363092366261022 -0.8879960398806965
Ni 6.375582509949599 7.527432685140615 11.333894107689975 0.3451171204568766 0.38983477507922537 0.7656686078936685
Ni 0.39637391030704777 5.142768611778259 6.456657322689362 -0.7336000094938979 -1.9212879476191365 -0.8866544382511375
Ni 6.457299383841368 2.6955365264476217 4.952855019386958 0.5851203445915343 0.7377376858113552 1.1654939185267026
Ni 8.771176685914297 6.991631712352333 10.72716797213229 -1.3972408161898386 -1.3640327048689862 -0.8858211437165647
Ni 2.6416297499609542 3.917467393948583 0.9530098616218124 1.73245353304881 -0.665688176143273 -0.3384111691916107
Ni 0.3998770034839058 9.06099857102468 11.06818152469358 0.42402273381484396 0.9725521666562219 -0.35735120062922326
Ni 7.004896582780156 4.810751446854177 8.937948775112815 0.8365742337652947 -1.94647730240057 1.2776251267070189
Ni 5.563055063523683 0.6196351421798504 4.413314652323352 -0.49705260511832455 -0.2429239973258784 -2.279439789772784
Ni 1.8881493349923164 8.127580988925468 6.4888451097672375 -1.234846340978596 0.047615030774801864 1.0948775417607208
Ni 7.800751150903961 1.169925797065692 0.32128947162918964 0.8012256790626717 -0.8434326514480249 -0.4914712543758052
Ni 3.3526889398424595 5.315635574727646 3.984267172600547 0.5141231874473662 -0.9467159223194083 -0.05825708386968031
Ni 5.2797291050245105 3.11679265999153 10.508606401946905 1.586884356925022 0.4407580442916538 -1.782484372353956
Ni 8.35410053992891 3.991850460840158 2.7386958394279706 -1.2348388847794283 -0.8300932540266414 0.39621599601522084
Ni 2.974889613888921 6.391596381204196 -0.05904891433455728 -2.077897954938118 -0.8650828827279489 2.4766382600370895
Ni 3.975996634154243 7.41254892798609 12.047420808245102 -0.403990240644001 3.3777749510648025 -1.805659782029155
Ni 4.28123928417646 2.219356862686596 6.4680524959795225 2.6724578476759975 1.4719041093316845 0.2040985398182485
Ni 8.71675211817601 1.7489576321709095 10.482771442807067 0.21537205584953872 -0.4779981595900349 -2.6590680566326528
Ni 0.5652068086870075 5.136244442007868 3.988704172907597 -0.19098591369569043 0.29331170574981097 2.9480608232921357
Ni 3.081545197335909 3.316179949410169 10.754063932618626 -1.0046922417238764 -1.8775077172093924 -0.5128924003640586
Ni 1.6070357572955145 2.5350400672187177 7.8263498089453325 -1.4152619353576077 -0.014904170805342072 1.2373050869317337
Ni 9.11300364145995 7.783428679940729 13.101149541254438 -1.0388452334565013 2.196720716205997 1.2430892977136785
Ni 6.661977558412908 1.864773413578346 11.808177714031437 0.46931091622868204 -1.0146303267731944 1.3897447649231098
Ni 4.145248472728694 8.28257003211443 6.176215932181024 0.3294290202976584 0.7594758488193952 -0.7587011754368997
P 8.5938473038146 3.1143731626885134 8.394716085705852 0.24498910738502327 0.652993868505056 0.546404158968259
P 4.866070381299804 4.290098221772331 0.8044235426187698 -0.1560415364100216 -0.2324189840294965 1.0559268715291361
P 3.8828318664085115 2.4857745832238294 8.626146180651913 -0.3742099240577749 0.4474544824752229 0.7088012052826631
P 7.985950960028258 4.340361630724884 5.108653699805725 0.7590477601430412 -0.19348425463751193 -0.5845472456968835
P 8.312018232751925 8.74654865111005 4.530889982547652 0.9968269800431863 1.0853498047759438 0.12854435943101733
P 6.0575551232056055 0.3590684627859042 1.4951212976093626 -0.5140735651563533 -0.34704390516594424 0.4882620034098881
P 7.282997556831178 6.283274451365636 7.480554689535006 0.8149682254597448 -0.518357794354004 -0.6578226573522671
P 3.724293599549364 2.102750272822142 4.508940340672231 -0.1455339520104784 1.4618192142918567 -3.3329637082873824
Ni 4.8109679777412175 4.879316422954841 6.132136833650074 0.19309241851573195 -0.06852041346890135 0.9104795656951933
Ni 9.230128022576022 5.468280435704737 8.479387194047765 -0.08264039781005122 -0.2572566118984666 2.0835597812095856
Ni 8.145082333230167 1.029689097354655 8.203560735749305 0.16154935360212822 -0.3712217879637284 0.8101273524276758
Ni 7.2848992628825755 7.135050474664224 3.539842234143316 -0.4443231359350928 -0.17411047809659044 -1.5985412244376598
Ni 2.966350765430415 5.456399480076694 11.581239222833506 -0.5289360840904826 -1.5271679149009956 -0.3462867152849456
Ni 5.728691777723198 2.2612697109085036 0.46037667476163374 -0.6608789276800876 0.7574405635569214 0.1246437388250305
Ni 8.144084408272503 6.771071467935699 5.61625481959223 2.9922637430615953 -0.9666743677192061 -0.05346866134210146
Ni 2.994914013746962 0.7153643887790521 7.366878798154712 -0.23080278858231218 -2.1015402769474063 4.9960848734889565
Ni 6.2174867192509256 2.7782889828426285 7.897875609566614 0.3585159103612858 1.3667830139206139 -2.1731326444734123
Ni 6.911618842397707 7.895384562927011 0.7103455793929111 -0.3703992920624331 2.5303192945003135 0.43880143478591527
Ni 5.295818291370253 5.375981791507167 10.731315009338434 -1.0732468508648225 0.854150294975845 1.488335001194198
Ni 7.664270791363756 3.943884162167512 0.340349838320581 -0.6927369527309489 -1.9646619437293973 0.13826955713858122
Ni 2.365759985485088 4.663981162986356 9.04359231202255 -0.16033193625525935 -0.7244538242182555 -1.8377661756453962
Ni 7.845149397133637 6.112328023240434 0.13501171526288797 2.165004101829007 -0.964252645651591 -1.365543485086558
Ni 8.326619946047563 1.3780308082843056 5.853830625975682 -0.08536448160943363 -1.2040702361380036 -0.8918125854133092
Ni 2.071720455270613 1.0976233095669834 10.141881218707523 0.3911825473563715 0.6120004568118298 -0.22707417477781536
Ni 5.993480809414432 4.870062081130461 4.2000863320296355 1.3558684238906389 2.66553283842139 0.24152660275771956
Ni 4.682405117157576 7.745366315753583 1.495507287451478 -0.9378402170963331 0.4378706954415298 0.1585812721127398
Ni 8.946105399483763 2.577988497943862 12.49030272877251 -0.16846870642978082 -0.14201436889299413 1.4577699839231475
Ni 3.0881540965838385 6.2985163429360025 7.339582726246671 0.5366455369195984 -0.08934454930310419 -0.15975549492649907
Ni 7.205366526633997 8.394262312281707 7.471171370617042 -0.7350529398903406 1.1457676437423687 -0.009035113619074763
Ni 3.612563661836516 6.767286884605689 9.674803383711309 -1.7936704708777624 1.1204646462012058 0.3749961674044961
Ni 0.6626221718892062 8.303394654815882 1.7577196015869314 -0.16019952444245314 -0.23175229697977504 -0.1695295435941274
Ni 0.7991128872544441 4.036992443594886 10.786527561217817 -1.7074912066765173 -0.12983762432114412 -0.4461871857270251
P 1.2666303740952145 6.0676567598053595 10.01127072908339 0.02451109776748682 1.0641891115379287 -0.7731083520011652
P 6.167759930322777 0.7393513038699321 6.31454151145427 1.1278655666509674 0.6343579985714236 2.5549306652910904
P 7.661446475445838 3.6869561431144837 11.04891874869474 -0.3173054975612471 0.0030351872818979984 -0.41887872772005924
P 7.990102704427597 0.1017497466975641 12.028489418647295 -0.5625936242439279 0.1623217129917785 1.026510108929916
P 0.6476420002605676 0.6006802166160613 7.101510781700306 0.9495711323800162 -0.34408096588287834 -0.3418513052214113
P 4.5478735356007345 1.384084258735044 11.44999514500512 -1.2217072324934766 -0.9517784244439802 0.8798608123680718
P 4.401517484734208 8.279482113377506 8.203244412366498 -1.0166381012318426 0.29692102036762413 1.1802183692210708
P 8.92087484395036 6.02832345345515 2.2426819464140437 -2.6893042298093746 3.691200911065985 -0.5368303992368948
