# total energy = -340893.7158793808 ev
CRYSTAL
PRIMVEC
9.04382937522467 0.00000000000000 0.00000000000000
0.00000000000000 9.04382937522467 0.00000000000000
0.00000000000000 0.00000000000000 13.23655845492710
PRIMCOORD
 96 1
Ni 6.4730486309765904 1.7521334442692236 11.455460722065018 -0.5081623418782409 1.373723449794189 0.1429654199523538
Ni 4.327743741992545 0.4586587186791342 6.15204785024412 1.529750073805875 0.1406938503093577 -0.2549241071105481
Ni 2.7008221174794214 1.5387714181452854 4.716543399515594 -0.41752658456753894 0.12073849023335334 -0.17270537021894772
Ni 3.4149771596506193 4.185339602311825 4.692042760952845 0.09582912858618335 0.510045932054199 -0.21862732956204284
Ni 5.216734096516572 4.413605859490877 2.6238166222336816 -0.9677182356026882 0.5059720190951416 0.4635688715385823
Ni 7.072057635651603 6.249611778763212 2.6297068684024896 0.862899759033701 -1.583549636124834 0.23450209181077034
Ni 5.409494278985443 4.351049690675207 11.732779806197854 0.3480533202670651 0.2556486439813984 -0.4157913470439871
Ni 5.717346235973357 7.977372102465972 12.311852593070745 -0.6608912689752618 0.03199043686366749 0.6915066798682735
Ni 1.6427664138387055 6.56064716374348 0.4785252989939212 0.695230408576764 0.35022795932088074 -0.34522639234123126
Ni 2.804961814445221 1.9053449602308055 0.33270259175323036 -0.2977417164967066 -2.1002457265056993 -0.04358662634169913
Ni 0.5571405958948858 8.954630233141646 4.647752414626261 0.09460425504014675 0.70290463729257 -0.04983954922994642
Ni 8.469890014499015 2.29421154209233 1.3999251209992032 -0.02119540313069253 1.1305875935678207 -0.5324163293295991
Ni 6.645604898289439 0.7766460954142966 4.830232476075505 0.8579434434696901 -1.1578065771847736 0.4209273827189718
Ni 0.8591131593094197 7.289697393140268 2.6872328592370582 -0.058771818722569744 0.608559549451081 -1.1807660141944245
Ni 7.33351474718276 3.78232847107518 3.870779836966158 0.9705803876418319 0.3457426698560174 -0.13988935213019132
Ni 7.846073785440399 4.124375147492333 12.378605098785428 -0.1453876562406012 -1.2616382643604596 0.5319226775226322
Ni 7.869949495383056 8.684717141005798 7.064960038241376 -0.3105039012583814 -0.41123689490408527 -0.3424282607708038
Ni 6.826300612173649 0.7480513152261536 0.47490505403557043 -0.5114497543802611 -0.4911256981109283 0.20177631944297508
Ni 1.9073165150669793 6.526262523894243 9.152180027726287 0.5117096929098671 0.7137927449599836 -0.21035429091997318
Ni 9.170804890247465 4.826366238954108 1.2596824565746565 -0.7800940392903791 -0.09714219097065206 0.8305817636272856
Ni 6.600738460022193 1.8218251945791197 6.992225039296745 -1.8060909560293026 0.43924623563281767 0.6911271850416677
Ni 3.378250167954734 4.297085159907086 0.28241618645241084 0.6877988919993832 0.8672773192761064 0.5343022334984023
Ni 5.953589150792343 5.650078231975822 4.792931201204862 -0.9244100597333563 0.2960746132069288 0.04912401122016056
Ni 5.206035246189995 3.058930635130726 9.547900023600898 -0.5269280525215183 -0.9487666342008498 -0.553544369557466
P 0.18359154809770978 5.816882623711576 12.292712232266716 0.28453653066034224 -1.0283114238047129 0.16361960586759564
P 4.190765900026066 6.098480343592089 12.496463380755781 0.28653247804444854 0.28645071696391955 0.3658978046476537
P 2.3105718297007654 8.558555719149705 1.3681839925197532 -0.6811140237800398 0.40386168548593676 -0.813684730761631
P 6.156840175508746 7.810043168617842 5.816739731205101 -0.020929293953499437 -0.19734476603418272 0.30450577469341755
P 4.5665370167372235 0.9369769139769619 12.447407840653142 0.4583114797943849 0.9316636559719762 0.2666516799601214
P 4.054330687831011 6.1864948925170715 8.174752777438519 -0.04912503966142508 0.4850748639311581 -0.5038261763967322
P 4.68416106352291 1.0347859302761477 3.86647859164467 -0.745474906554613 -0.45629753468814965 -0.8467624871522063
P 0.011212539843525708 5.586264970856353 3.567914647577632 -0.1707436185068866 -0.8458232631673885 -0.383519631494475
Ni 1.2831837519750322 1.38765807063321 2.4907764636418364 1.4122002657131485 -2.2765663248797305 -0.20453845556914452
Ni 1.82528898128671 6.575632789264308 4.694927742570917 0.2073371013602042 -0.9282101502057369 0.5372687723258941
Ni 6.130802990309916 5.390918253143694 9.139155104446205 -0.37298530762205445 0.6678468743574885 0.9107346191287928
Ni 8.92891862580567 2.3017269644265532 10.284554304861242 -0.644386072231387 0.1505602015804762 -0.49219476280539104
Ni 2.385780316020139 5.160535739856088 6.6750778343243375 -0.6559233834470252 0.14988528700063863 1.4332313753518349
Ni 0.5978522988789279 -0.171543358406191 9.107639167321896 0.0025579905351633364 1.972286035933558 -0.5590899819660436
Ni 1.6611706069195047 1.071286826233939 11.485586622591528 -0.5620984297750643 0.32548109139350395 0.5041959010313252
Ni 3.971977576187887 6.849769349787739 1.3783492569044304 0.6380429036221786 -0.030186550885709297 0.26691984601984353
Ni 5.742144416527437 7.743987037776486 8.285992784963403 -0.2439023020787477 0.1842712206796762 -1.780928340720746
Ni 5.232488447546918 2.78643100775109 5.051917538510135 -0.05539133228611106 0.47463309977254386 0.27521191082530666
Ni 0.9562402708625157 7.5775715307102525 6.93054340879602 -0.2745483090993788 -0.44415987088435116 0.41206916099739355
Ni 4.988006604031811 4.280480688901509 7.299287469967235 0.7504420207519011 0.7659740549492292 -0.9300842272999983
Ni 8.447470361109678 6.9936566775103515 9.280151119870078 -1.723144596943058 0.11877776696255674 -0.002310136190415376
Ni 4.54037321792506 0.3833588896815706 10.24149572811579 1.0677428903274577 0.14659813160893465 0.7508580252433973
Ni 8.10603866510014 7.161645810913715 4.92061108203799 -0.2835119460505698 -0.038806688454552526 -0.2578137699535173
Ni 7.066323847733556 6.064412237776183 7.003384220546081 0.8846862587811731 -0.305550413907848 0.018976283992186673
Ni 2.4077839532513847 5.13816130561437 2.5702355498373657 -0.9263173040583982 0.6214073519480265 -0.14661098712474105
Ni 2.413354952238005 5.463513072730708 11.479947794883481 -0.945010252482211 -0.18253495471485984 -0.5663232664896891
Ni 0.8670301276744966 3.2923609189678302 3.6713055154588665 -0.3690677177352031 1.4599618493681437 1.0110634353575427
Ni 3.621673883415565 2.5989343340650315 2.584266146960487 0.5120819886476212 -0.1094441482664567 0.714223661849815
Ni 1.1706423373816834 3.360225815713932 8.164428341654224 -0.6925400062287944 0.4872168499748254 -0.7776790020909833
Ni 3.3792269015432974 2.640843440078016 7.26378682155477 0.9134571602662785 0.7670238363699823 -1.1364831331166492
Ni 3.9905445582001136 6.874413785239915 6.018146719081615 0.9019080219760983 0.34169318237699214 -0.2602941131732098
Ni 0.9092847079752877 7.593325881740597 11.366206264112332 0.1799815921653868 0.19064369986492327 -0.41912426807196207
P 0.19700987796207423 5.7258203042370965 7.806128094817017 0.543231160556916 -1.514333739250805 -0.22856464328041282
P 8.523221477200476 1.554580032152773 7.854044112399666 1.725161627373087 -0.2458897648224217 1.67096611516729
P 1.7569266739168028 3.5046015102308252 10.3286058940884 1.2199416559526217 -0.9577474975432213 0.8700425407260692
P 3.9649505206479456 6.0788190582074915 3.6087095537932923 1.1370012104036482 1.0682008038004829 0.9392442965327114
P 7.0129290782254285 3.7466867389221434 10.329836759286579 1.112207805509052 0.3496144941065979 0.8730216779590513
P 6.460161173905269 7.74881644274216 10.195273619802936 0.4419968017947613 0.8499491124103038 0.5721115910366922
P 2.4367513392159053 8.472838302923753 5.71311010622444 0.22518492817490252 0.4724348065696444 -0.10163030864899272
P 6.848231898768705 3.77096942119337 1.465154645822089 0.7675118317499943 0.670913171987638 -0.8984005230434722
Ni 5.147187047479057 2.5920519797974695 0.6412726288053283 0.2866823733587514 0.7282737121849779 -0.9235304853418804
Ni 1.6596512435595174 1.0781420490129296 7.001623386937809 -1.3220339918396975 -0.3357428783308282 -0.26596596674700645
Ni 7.177581038534535 0.6194561988452242 9.43843441542857 -0.5662664451098247 0.1571602233954971 -1.1110829478759898
Ni 2.642606986835144 1.7343623192550859 9.22972001329688 0.030186550885709297 -0.04764074180641473 1.0929211893652986
Ni 6.313497390518871 1.9230166031201819 2.6888218600843787 0.1323850733333462 -0.5264146032202095 -0.35541181751466533
Ni 4.408586534105205 6.857565130837199 10.425153296169023 -0.4711433414517305 -0.13651066546594554 -0.696520073922465
Ni 8.175395793717657 7.237722504867367 0.40919349309906977 -0.3537524275343714 -1.3572406216478172 -0.3702648233670978
Ni 7.742440542927928 3.685387662410273 8.270308071420391 0.08121729221027948 0.22219499230864315 -0.9281505006123951
Ni 3.1616414070317753 8.172176190407207 12.347618225688258 0.11149820258200799 0.2581315583042522 0.23517726350092397
Ni 0.12114933153403909 4.816237149887526 10.097879715278891 -0.7458096641862123 0.6398699295285882 0.3356575177058736
Ni 8.578226048363828 2.249028569791754 5.765275819300292 1.1536599020062517 0.8327630875493207 -0.5449720545074228
Ni 3.6367861225497253 2.9670272395105384 11.475209732595996 -1.1030425940700166 -1.2214439515297608 -0.5292623570816498
Ni 1.1956666136738558 3.3793716028156773 12.594664899256296 -0.789777328016414 0.1149509370172988 -0.5024298102698379
Ni 3.5012733809660914 8.549819379829778 8.163514914872327 -1.2896046676663984 -0.8633224483934164 -0.43193530379370126
Ni 5.524396133084488 7.981423738092604 3.5246968994325627 -0.7015236977846434 -0.2743729598637791 0.1590756952506551
Ni 2.946389220537377 8.348585129097167 3.431299463175055 0.9037772139743532 0.2016811886260075 0.46589340590670086
Ni 3.3330491079951106 4.5223488656842585 9.234617246983982 0.23791574547800962 -0.8238411024693425 0.16967378248147552
Ni 7.255348928609126 6.222308457431058 11.29701915948986 0.4279475227905469 -1.0145382812800205 0.931827178133034
Ni 0.2672686763831084 9.127484946828778 0.5556085711735652 2.0778812427675697 0.9323108026376717 -0.20891884402502728
Ni 4.3975168867681536 0.2989401673752257 1.4525267466580987 0.6561262434864507 -0.2838328197250983 0.12769229584336717
Ni 6.114885850348144 5.615006261082781 0.3340229908636956 0.06499697369667515 0.5890541324283016 0.9447210033765665
Ni 7.93462192030728 8.873814572517556 11.671944678140548 0.15347557545505827 -1.8183011249422494 -1.0676266764645679
Ni -0.03958393744243239 4.904251698812507 5.603617366563542 0.205675140276749 -0.6930064043422516 1.221260631874361
Ni 7.965289546222263 8.566939349118208 2.6188660299523896 -0.29225395390925796 1.5099394668378514 0.5183318262120751
P 8.376648132109315 1.5483307459518725 3.630431023543397 0.05591660866196176 -0.03602295506182828 -0.33981370596609217
P 1.8512266843607796 3.3695590477824258 1.6179709464334833 -1.496922742863209 -0.9219441146913671 -0.9101314383271553
P 4.865516976962354 1.3410913924155026 8.287171195950346 0.0800340705354557 -0.6724164960060419 -0.7285069112417066
P 8.55791360725352 1.6414641023872878 12.385620397346988 0.6279937469162926 1.5396791599941289 1.0806665403676614
P 6.3415151743833995 7.813371297882575 1.3758477336581656 -1.5403597310009214 0.18902210510110026 -0.3765789385105837
P 1.8033396070326069 3.2149095629265703 5.815403053201494 -0.9751212129349787 0.031637424399622936 0.11671188557246351
P 6.888015704843612 3.998665917112427 6.095792517457635 -0.3817509696298264 -0.29315692533950155 -0.33470749508777836
P 2.469499045921347 8.749561398690973 10.0384210580751 -0.23137563036664666 -1.7498519310309153 1.3430445326530935
