# total energy = -381168.62562016584 ev
CRYSTAL
PRIMVEC
9.25051852153816 0.00000000000000 0.00000000000000
0.00000000000000 9.25051852153816 0.00000000000000
0.00000000000000 0.00000000000000 13.53906891300876
PRIMCOORD
 96 1
Ni 0.4574215004050316 7.2010478065388845 1.3389866851255898 0.034574395540759806 -0.014782043405180991 0.14098284230468622
Ni 2.8128422331684386 5.9655670256187445 1.6786823839290546 -0.12518624159206182 1.3518677873716782 1.5169819755069291
Ni 4.493689238480977 7.659207498338796 6.969696033238143 -0.22582076198668855 -0.019577665021611443 0.7474310018397192
Ni 5.064205730809918 5.363617270635626 11.051536451851407 -0.5252874315943017 0.24657933469027857 -0.2907881679970089
Ni 5.43965653461954 7.39043367655624 2.900596354075616 1.6809952172685179 -1.363754254396619 -3.186884682406711
Ni 5.044825894064625 1.8808524708351901 4.15056437238325 0.13442292969898137 -0.4733501192950622 1.734822804611935
Ni 1.960832455799292 4.3407041596773315 3.547263116613264 1.2036789142368562 -1.934726846732861 0.021521161901227454
Ni 1.7514562148002772 1.1150482775373443 4.869082689074457 0.3211950624236404 -0.29920544552642664 -0.6477483038354006
Ni 7.147940578493672 9.446352214410354 10.469071989527134 -0.34217372155783654 -1.7880801212741786 1.483022073621717
Ni 4.8967805922643155 0.7441385533736702 10.944631907063512 0.4445969584217698 0.69625010809053 1.7118469125420517
Ni 6.998757462889222 8.280611094217068 7.027819817592174 -0.25081856958260673 -0.630655610019172 -0.45332868186781283
Ni 2.926466354763866 2.427289862902558 10.523281879405301 0.5736753359793862 1.2036159222094045 0.09632895104073733
Ni 1.3390680896904388 6.514798074343429 3.5137808640597634 -0.9655207137307371 1.3117845461975473 0.12471084461754005
Ni 2.627508090356065 3.675471606042881 1.243566659344511 0.2540010810756464 1.0935151141955555 -0.03371153331983226
Ni 6.050903060929159 1.8626289489315029 9.322164000422028 2.7156161282310265 0.1721132451609036 -0.859444453495249
Ni 1.351260273380317 1.5064932282360415 11.868970565352832 -0.28160238773268276 -0.6616132347429509 0.8970159839911197
Ni 2.6064076571264656 4.246681887276784 8.279926555830839 1.7213286267802421 -1.6292399390730974 2.490633031654285
Ni 1.2263320178933639 3.9136817139321463 12.125739063923913 -1.0475918693008797 -0.6822404240749992 -0.06867905053395268
Ni 6.368010843090785 2.0450676793804985 12.341565691635333 -1.523759403440079 1.4841507879095215 -1.1967595614092035
Ni 8.977767187998538 4.568858953704003 3.920305085344857 -0.9850726677207357 -0.34873697659765096 -1.1005936183088916
Ni 7.726532773676379 5.760797542948683 7.018978171787328 0.13664359149938404 0.5247770676167866 -1.908606752607042
Ni 0.475469262452795 8.90931334937555 10.710216361958455 -1.422378234687415 0.9833867953778807 -0.4451448605054398
Ni 4.533447967994706 7.635951694244446 10.905137742385541 1.691939117874531 -0.5078268129156932 -0.2648799327716793
Ni 2.647544713931388 7.491070069850765 5.488508524047649 -1.6492734606852046 -0.36606904011819535 0.6958999238399627
P 6.808742557598033 3.5755937552844483 7.851645114486114 -0.1604203822040076 0.4900484058863495 1.482442289858847
Ni 4.543817799494216 6.725571143671103 13.053693749985896 -0.9631995217967284 0.12354176401010336 -1.1457869270160783
P 4.5154927111342715 8.0716141244861 1.0940866020887374 -1.0207930039404807 -0.8413156051050221 1.9149764035788113
Ni 6.383283449518697 6.487222278000845 9.033348004752911 0.05430632675204841 0.7509351583382358 0.2160575119523376
P 2.3880214108816684 2.1892277633130184 3.0819657245590957 0.5771784640366382 -0.13389302533744035 -1.101615888925819
P 8.103907685382431 7.368500696640685 10.068680862161912 0.38692274363875295 0.06431151759387634 0.45505954851599045
P 4.105722482825826 1.7090333358914902 8.63351283356353 -1.9654908673885956 -1.2462628103456537 -1.1149750838415444
Ni 5.395022781733606 5.290519671608755 7.008390953097598 -0.2069154404417533 -0.5639645364495255 0.8406514891584618
Ni 2.7032328367030622 5.359500789799515 10.941449728619416 -0.001422077158507228 0.5363943401407407 -1.6980639998253464
Ni 3.1628726115002284 9.183628231879075 9.777752973066086 -2.056861703093109 0.6024534365533432 -0.8435246969411988
Ni 4.910767376588363 2.9273914066371494 0.3916216356064943 -1.2791670172728422 1.3560933954172516 -1.0966078941882664
Ni 2.20599895377565 8.64167734139713 0.47197349142365624 0.30850461144016544 -1.8325139261075214 -0.8941232358243568
Ni 1.3760886656592493 1.3674486811627804 8.978000301070605 -0.2269379063102672 0.23702331557072726 0.883814140588865
Ni 3.9706741598451503 0.6058793753408268 5.908368293137999 -0.17083874932385415 0.3196220615095657 0.5057838143437354
Ni 0.05924124701695639 1.266368262969079 2.972002033226252 0.7117883129354451 -0.32503603343628534 -0.8210673963789473
Ni 2.272954208363919 9.169576693923895 2.8223138392989893 -0.7214312353418478 0.08772269742896505 -0.6900792033931276
Ni 7.427204488519264 2.546695558706008 3.2989431168008823 -0.41062702923422834 1.5579694736628846 0.13040969477453027
Ni 6.7979379517180805 1.6454267690845086 1.144512104753301 0.9164473532428541 0.6024830042396978 -0.06165222559415834
Ni 6.910248499653445 8.658596540159488 0.6415799022864617 2.2304417626075264 -0.4478159795796997 0.7393878198202686
Ni 4.4012858068586755 1.3407701851372809 1.9618250364593253 -0.42437086118288203 -0.6910698494411711 1.5494483235657508
Ni 1.3956257612229994 7.597377031128519 9.154374391438353 0.14176934276172357 -1.583129260757964 -1.393968058975838
Ni 8.78374680809603 5.506214016902297 13.257483602722152 -1.0326673867805634 -1.112421207071439 -0.6595949187613414
Ni 5.160799647418193 3.6789775526426256 2.8173583364138093 -2.6985352614893396 -0.9047678600223966 0.14929341905291063
Ni 0.4242250888803756 7.3464844620565355 6.817449145829379 -0.07488286535181941 0.49915088240825 -0.4513337629249711
Ni 8.565961845568868 2.215832255188655 10.426233762327243 0.6530185510954045 0.1560047696348152 -0.9956525001191109
Ni 8.217328295565736 1.0036535309565304 12.37675373984317 2.195722613958786 -1.5364210580681477 2.173637609134289
Ni 8.868268797757954 2.4685379259322744 7.910092666995793 -0.7978475066190581 1.1986611493072905 -0.7711126617273752
Ni 0.7631548447327616 4.9832636918976005 7.523687398902745 -2.5923073061673354 0.6401437520152653 -0.88086508526287
Ni 9.412495315848174 2.6764895870464325 0.6854643631550367 -0.5583263643271417 -0.5866164695210865 -0.6694309310151567
Ni 6.570421443483974 5.047776809540401 3.6586356619491194 1.6164343026679966 1.5756679193839123 0.8607135500156596
Ni 1.8974386509231653 5.93658515042877 13.302907349907871 -0.36784875772643744 0.22216285351912707 -2.235865504726259
Ni 8.233294690898612 4.999091329449484 9.082129690238649 0.7631386423829631 -1.037952803549219 1.2282527469214781
P 3.422053645356833 4.0443082889585265 12.362713302510471 1.1062122500472495 -1.0261468120532264 1.491458120204212
Ni 3.6251025315425878 6.063113745656503 3.8481417887100013 0.6637073982678183 -1.294118496376352 0.4152763550807816
P 2.63770216199965 6.271453928557441 7.351998696273179 -1.189422661428158 0.9563668151456111 -0.8623215179327278
Ni 0.20684437402183756 3.1715958506652924 5.536301329080847 1.1011623463281681 -1.1719437879171044 0.7570970641745736
P 8.133500094808774 3.350556386070742 12.235040418115483 0.2840007127615302 1.0215764190737244 1.334749639634153
P 5.879823967484087 8.99092142563663 5.075106542084692 0.9149370872459146 0.7247844680847969 1.0576022023490301
P 4.834654108454587 4.545584648572188 5.06515575908378 -0.18749846936772227 -0.37255850449728095 -1.3714449381726574
Ni 7.831683420112527 7.737133868144208 2.8026953391703904 1.6948773745672487 -0.1782422408767769 1.8640395075196285
Ni 0.5353284441211049 4.876429451052075 1.6702338851703555 -0.013342996965809277 -0.31551600976099214 0.5325029755061346
Ni 2.5762417155386865 1.6097937709256236 0.5502301047478307 -0.548783714944029 -0.2901983569318099 -0.90993320627342
Ni 6.044853221677884 1.3573748662627216 6.832911387891315 1.3063723740430404 -1.3118652788368117 0.3472508789704277
Ni 4.52233809499657 2.9716366377363053 6.6058065277408184 -1.0293156966995112 0.9429153176263956 -0.09375142012154822
Ni 4.041995659275318 8.476111557116829 4.056318237429368 -0.801136204672659 1.570526998612921 -0.18513742533471342
Ni 2.3732668335027944 9.115683171786392 7.470181473500148 -0.5495509321273567 -0.9924100819224133 -0.5173990299851605
Ni 2.233435992337242 2.1245481363330274 6.763577824936834 -0.05753666076388801 1.0384683097330567 1.8140243519437662
Ni 6.577692351207983 0.3055511091086931 3.0399406179558213 -0.8753076457797505 0.4550443790073389 0.34982429612455884
Ni 8.997156275262562 7.918740051907249 12.665907379446038 0.8752274273611185 0.16583898211641762 0.8813883047561917
Ni 6.259270995386295 4.907067169095229 12.954181294717412 1.156265457949899 -0.2717082685474224 -1.0504648199733007
Ni 5.185498532434866 8.72210135126041 8.929151086798116 1.4433047004274366 0.42311744839175514 -1.1963003623845978
Ni 5.126942748856012 0.39046902097238295 13.502039566462143 -2.2244593197718463 1.5370656336306818 -2.5343075897241
Ni 2.362869250447087 7.709289806758371 11.359441817977608 -1.267051979176863 -0.8292476181968944 1.8821287609211717
Ni 2.460119953885394 4.388436836338767 6.024127434456965 0.7713065229057361 0.6085379521845261 -2.112926921517793
Ni 7.869259027205308 0.9383911212963711 4.9650743969132245 -0.46897333038360517 0.16951385986484355 0.9942458495795715
Ni 5.478610469003514 6.821462020855683 5.065615509864801 1.2416157984919456 -0.5139473239911342 1.5099320106386835
Ni 6.825809764660116 3.9435516389204746 1.3827453389393982 2.427942594603599 0.6429848210084862 0.18133244976632643
Ni 7.212296437318013 6.487296282150707 1.171378386309077 -0.6310171071236487 -2.3498803030825335 -0.9460363797538804
Ni 7.121696856848615 3.321898279036415 5.807692122612923 -0.7072130348599369 0.5275358613088462 -1.1222649326347383
Ni 0.41706056212179393 6.094149236005168 11.128275055051523 -0.4627088375311321 0.4594404511925055 -0.8644136245750661
Ni 8.366058135752276 0.24265868234788623 8.619513098513256 0.8691876489249417 -0.8203366888605097 -1.477715573807139
Ni 6.629171487956216 3.829835012137719 10.570831395795826 0.9869426310499388 -0.09208200283892529 0.394568690219785
Ni 3.9944202414323406 6.161844532092064 8.933240741129904 0.19589157852742392 0.6602060699827792 0.8840992759294515
Ni 4.637368295439389 3.6518180296430187 9.285852014188153 0.27406982680106345 2.058476870099029 -0.39734496741334147
P 9.207753584734311 0.0686499496201241 1.0726096727467114 -0.38197002761916793 0.7281713822791588 -0.42944004817567333
Ni 6.825680257397856 7.311221484646963 12.236136604585326 -0.6390124666242994 -0.6511658141573817 -1.35033155323281
P 0.165358572660687 0.6678902276663944 6.470172646924354 0.4449589697468789 -0.20022748689861647 1.0932052962646204
Ni 4.94147909878138 5.425790007039019 1.2515406064922159 0.5847606472592705 -0.24629059980526616 1.4012892752275994
P 3.171133324728651 0.2985706676728949 12.174209006928354 -0.29334744408375285 0.6327155778719942 0.20382291755935866
P 8.64085404522991 6.462255127940919 4.62643510734905 -0.6502373888058415 1.538327788172557 1.013987293872557
P 0.8912930302200087 3.5931604903581045 9.650729475086145 0.22777762860274317 0.5153372623601254 -0.1770453923551983
Ni 0.31871644736926563 8.55648006386771 4.511475210848602 0.014402034357942939 -0.9744586396503154 0.3855178928714264
