# total energy = -340889.66918713757 ev
CRYSTAL
PRIMVEC
9.07300601235700 0.00000000000000 0.00000000000000

0.00000000000000 9.07300601235700 0.00000000000000

0.00000000000000 0.00000000000000 13.27926141258600

PRIMCOORD
 96 1
Ni 6.378050823337844 1.9201292712260998 11.381668303824418 -0.30930062497889954 -1.0429988506135586 -0.6117723999614239
Ni 4.477256127277872 0.13430044510748884 5.977579238944278 0.2596168846005271 1.1374154151229314 -0.12920281895062263
Ni 2.6231964836255615 1.8075332703759601 4.70946337699244 0.5980897602680086 -0.2200283236746275 0.5271478818418083
Ni 3.4573504825103423 4.5464196497984695 4.6845380157083545 -0.5276268783607558 -0.5828341196605189 0.8429338574347354
Ni 4.99750227463863 4.656212091884493 2.6248713604794642 0.5200801763617494 -0.42993678530643376 -0.8844718287775218
Ni 7.3957426547123495 6.086798267069486 2.49465558254222 -0.534655245962447 0.2956629795908069 0.8347142977384205
Ni 5.178363570444165 4.396279551324005 11.640892242639024 1.5701125367833217 0.2536298137791567 -1.3743322870227814
Ni 5.820414819449816 8.016290880187393 12.328186941913758 -0.36956034110090547 -0.403250534264499 1.1985817022196068
Ni 2.0313189561913263 6.458791501143274 0.24411647700835507 0.0923501688986474 0.3908084518464044 0.5815038308848695
Ni 2.932486175243644 1.66926066336902 0.4012382533759854 -0.9200199010854607 -1.0602823202843545 0.3135254616935246
Ni 0.6060368601438828 9.177708195000019 4.689490969524962 -0.0067576304388077164 0.5931301022698882 -0.2759369619167893
Ni 8.64103083430005 2.549913816513025 1.5139416932357908 -1.2951752197756403 -1.0866546396302963 1.4503662352599085
Ni 6.9346797235921604 1.1593033044824004 4.834647265963409 -0.5251064259317473 -0.5122030876065179 -0.24192049576202848
Ni 0.666573768836252 7.288880793470372 2.256305907962579 0.3673252811227996 0.873644656255031 0.44373126798736484
Ni 7.4659586458952045 3.8761604260431746 3.718259278485131 1.8095503753328126 -0.31556846026548235 -0.041365193210348115
Ni 7.45316570784535 3.585651856242963 12.569696744381883 0.02090358292188658 0.9499889366437251 0.8633144779736164
Ni 8.146642753210275 -0.22429558873621847 6.5580293156878815 0.5835380877060788 1.7233911657362255 1.2622620139873875
Ni 6.703789874306556 0.8905127884481022 0.4749128743351558 1.073182316175474 -0.4482119294665378 -0.8214630891554692
Ni 2.0315548543397632 6.187998572748975 9.229843500405746 0.20520359995696916 0.6447180016495091 0.6685341302325002
Ni 0.11845806983879997 4.877638796215488 1.4418757161888471 0.8431169199798189 -0.36164957089426103 0.2424038631563503
Ni 6.39926351068576 1.8444422576006472 7.056492990942192 -0.08260414525547709 0.4937649355059883 -0.11750635644930087
Ni 3.2044041563458747 4.069152330481798 0.16617028496133254 -1.146726408111212 0.7416511619331485 0.5781200020143011
Ni 5.992738416883071 5.704470879493012 4.561399182224221 0.39557861954153806 0.871303152606048 1.3030314825952656
Ni 5.332631886516278 3.017373216658141 9.170059651187232 -0.01893848877571577 -1.7396222828831074 -0.80294189042283
P 0.06982131543450841 5.316400279302668 12.560321607582651 0.5897514156056424 0.4709145132703761 1.3352386634554296
P 4.067510116448448 5.829542263193186 12.616147811710848 -0.45480758040618446 2.6161391184796106 1.279000666898307
P 2.5090580718048714 8.418950873557996 1.5086439652022376 -0.5056339190294324 0.4616973655474823 -0.29905477888117526
P 6.423043858649354 7.946519466284285 5.827058981530602 -1.6614661460966549 -0.11235875081009038 -1.054838266450648
P 4.740654556019242 1.011222778303905 12.558556000671658 0.814858696465074 -0.6477799284042843 0.06766706432967057
P 3.983076725319407 6.156442658892665 8.127186599767644 0.31687586622299624 -0.7636279233145558 0.14881802207838885
P 4.778870056066042 1.3457172797819144 4.132479188429721 -0.2972323809604558 -0.37375381035696276 -0.24534083429748715
P 0.2509139728856254 5.657908214193824 3.5956122019104315 -0.6223303779829281 -0.47551138861243913 -0.35745275920409403
Ni 1.5861972961020554 1.2065555182154806 2.6330379729182405 -0.8033247276835455 -0.40534881155442454 -0.882336527602074
Ni 1.5368219990330418 6.652055595753171 4.981395874903806 2.342840365516617 0.002864723142304744 -1.3960365114690925
Ni 5.88487852501309 5.70182156182595 9.271540312743133 -0.24679273625266532 -0.17755729899461034 -0.017333863292757247
Ni 8.689761947963715 2.1388068548272328 10.379242711856072 0.0012467279229075303 -0.04445823031337505 -0.3176325418833627
Ni 2.3193324494215304 5.2164974134395825 6.953698558159611 0.4648953036594896 -0.4611803167017477 0.46225658048506196
Ni 0.528442700718374 9.02565369232093 9.155957478413551 0.1784312169591314 0.052503469215354745 -0.24567790592193173
Ni 1.6428400707440718 1.185152297747674 11.686440545899933 -0.5412920345526743 -0.6021603307929565 -0.8091210226503485
Ni 4.4161040687984245 7.110977297526008 1.5642043302631563 -0.44036080885323514 -0.12513096287409417 -0.6195296753093394
Ni 5.363761369104258 7.961435487670073 7.928648366939038 0.49330290826790524 -0.2329028656444505 0.7432650433874877
Ni 5.514318825841341 3.308562261886536 4.931718446744679 -0.6662499621840138 -1.2634480638756884 -0.39325357095278723
Ni 0.6292265554358144 7.172419692188147 6.996005983781222 0.6029321759619745 0.3072715103640128 1.5603066064364937
Ni 5.2248355056862605 4.5753353189934245 7.025831675448802 -0.9503938853916276 0.9658932665788075 0.24642069762522723
Ni 8.118062785226556 7.0210547379429515 9.296890290694407 1.4054675749750054 0.3409876716695353 0.019187114451412118
Ni 4.6334388475546096 0.1728979186946427 10.42521563178417 -0.2784499581466301 0.9228172613249398 -0.5432244756886966
Ni 8.356528594279274 7.212794567593718 4.80919022654477 -1.729860318400337 -0.398927481409113 -0.8070350866555972
Ni 7.413171898679562 6.602308305450084 7.124854459758104 -0.9771315584967881 -2.1186913348053964 -0.38215180461267084
Ni 2.6274426502974277 5.184723747446255 2.384371383546763 -1.3996532822860734 0.012528985704946165 -0.19876581475142543
Ni 2.195912352760414 5.1234355938811715 11.510915084751929 0.86550917163209 -0.688402329911337 0.3025915883898401
Ni 1.122920551588842 3.630454358434582 3.7845094588725305 -0.4482834061344216 0.23712024615990776 -0.7157138732420965
Ni 3.7552354059520656 2.7373621144633784 2.7341602507486304 -0.48048338790573375 -0.41750370174940354 -0.34897917451544413
Ni 0.9452710998043349 3.1823113874441753 8.427085730476792 -0.1397710813847722 0.8149281162504288 -0.37955164798566243
Ni 3.97307827302796 2.588102097542697 6.71070078275519 -0.8428682943041227 -0.3203849078175192 0.6072534290451478
Ni 4.004634186884268 6.86708583105924 5.845318405520199 0.126882141237246 -0.5012396466164788 -0.22178053047904386
Ni 0.8573999468121095 6.945240702237572 11.240071347525658 -1.2499299747845956 1.413807205188952 0.20621687171283193
P 0.2336507649228888 5.440101639140766 8.361764625874004 -0.40310912359062834 -0.5229888653681122 -1.1215874469517393
P 8.527972110158744 1.5234483886178036 7.889474757489355 0.46653746724860296 -0.28827157222274225 1.764575096173703
P 1.7056887812911237 3.241313143570562 10.61289166217782 0.8743810202004231 -1.6529365113590888 -0.854381951370677
P 4.040000763138406 6.277902986320613 3.566822647494833 -0.14214420960263907 1.7393489746170623 1.4459984452095163
P 6.940060015977666 3.8131665474047765 10.300165115997123 0.1663989683849457 0.5521081513315718 1.262199021959936
P 6.3101756676279415 7.681460677498147 10.130124286800282 -0.6668508289928063 0.9742609218172124 0.47983984078446396
P 2.2815161616259316 8.524451783943608 5.874452734152745 0.06402766780487038 0.25041336372438805 -0.8214798013260175
P 6.735627051339846 3.992313045131288 1.6413430248020675 1.2402140330484124 -1.1891375260875716 -1.20485879347757
Ni 5.088332134792599 2.907989059829029 0.20959096838345287 2.19040737239346 -0.172823898074683 1.8675662897259644
Ni 1.7686645139181036 1.2877679923177854 6.961413334914073 -0.6909189256856036 -0.1411075408080086 0.589190658006166
Ni 6.948869904521219 0.732556295555233 9.138229732558509 -0.46535733089757275 -1.101014507896394 0.7004682599369356
Ni 2.8104723944674412 1.6412976597735218 9.407214410914982 -0.06012987541236096 -0.5002939948737578 -0.8915012248204774
Ni 6.147224485092203 1.9072093110963173 2.5258213571530357 1.3951790485648037 2.148840604695267 0.935580474527879
Ni 4.24726450555747 6.964629715437955 10.737743479139835 -1.3029677192368656 -1.5438425473431994 -0.6152382470228372
Ni 8.222946731223947 6.931331784485496 0.3721139050497205 -1.2161765324832345 0.13828858330197474 -0.19947209678983066
Ni 7.313740829113351 4.061494713663303 8.141302382049888 2.1658553940857086 -0.19620576733373307 -0.13030993597187235
Ni 3.26290689715826 8.543877089166827 12.632534567322084 -0.49023352531396214 -1.2037138812398496 -0.3269275940320434
Ni -0.01633685407983573 4.597763789106361 10.603051987486284 -0.416498914633973 -0.4837281200952766 -2.128394163915457
Ni 8.790553968386295 2.500692760541066 6.069923383751099 -0.38850268653136316 0.3109636145036193 -1.2728747565062273
Ni 3.7076293449963296 2.642140919546197 11.507449196571047 -0.6103274399847811 -0.32260248429412824 -0.829740755783229
Ni 0.6692385106130195 3.1548292531512607 12.899633875092203 1.9698915675594526 0.33003940018814776 -1.4145206863162092
Ni 2.7735361882256266 8.075909600702 7.867271297918005 0.6957749682263243 0.6669503306851482 1.3490524294100703
Ni 5.609394852667177 7.953097395423395 3.7248589828379424 0.14154539967637556 0.7929246153961441 0.08096686676237023
Ni 3.126267431178961 8.740979065191679 3.72556304808097 0.5800948663524849 -1.1375758519601957 -0.1345334871349167
Ni 3.6477928723447044 4.372381254286191 9.693621074834102 -1.0266456060665157 0.7775669019931511 -0.6623758239405882
Ni 7.382477920365621 6.142633544203391 11.443615157603984 -1.1454310863385564 -1.1529741887931368 0.33948151943765403
Ni 0.5210082798403237 -0.4407058282106435 0.13181716344490357 1.499013563953967 1.6352151828199255 -0.10230573744946253
Ni 4.638301978614695 9.615389990407813 1.6631209604056605 -1.375812985333366 -1.560601511969093 0.024273270725067873
Ni 6.072227019900644 5.631714446711604 0.4275227509152968 -0.37857282901216094 0.339465321487738 -0.7864053262203876
Ni 8.012679823915164 8.459171507866513 11.416433339800042 0.6116870393364692 1.384224606435829 -0.3639162554412506
Ni 0.09377677240828952 4.900457405573917 5.949959194964586 -0.3946381100051397 0.3134071909481054 -0.04806985892403334
Ni 7.872066381435272 0.1805137996868753 2.7725499525050457 0.8550064723285532 -1.0179092546347825 -0.42718287671038047
P 8.732849652076311 1.9439822032353677 3.781389252209166 -0.24499450670166195 -0.7115420012525939 -0.4828099791563814
P 1.8786474891240175 3.0925249229467555 1.6022229460860684 -1.060022895975381 1.231287419982744 0.19550617016354715
P 4.701595266441494 0.9819804809034214 8.295354760586125 -0.27021754293450884 0.8394145314275673 -0.5355674733640712
P 8.491108487962602 1.2737411254914908 12.43341203292581 0.12007900227248354 0.5936710623750227 0.5514697464166245
P 6.536483649030441 7.95026661764215 1.6119564666108088 -0.5212939941641925 -0.031139144606965725 -0.9070929086111474
P 1.7879718700671041 3.406995300824744 5.857362820599052 0.9778758928619804 -0.381756111836149 1.7197638533962831
P 7.085926728763137 4.321499838269464 5.963968823080032 0.027984915248700188 -0.03966903645484781 0.07275013527953277
P 2.2625898717167137 8.277756758712721 10.30392315496184 1.160036752066873 1.0784710753782394 0.33019675170161844
