# total energy = -340890.26044071215 ev
CRYSTAL
PRIMVEC
9.06433537617790 0.00000000000000 0.00000000000000

0.00000000000000 9.06433537617790 0.00000000000000

0.00000000000000 0.00000000000000 13.26657106010252

PRIMCOORD
 96 1
Ni 6.151121276728599 1.9605975622324006 11.388992659375706 0.4814244116627644 -0.7634680006979239 2.13051918067826
Ni 4.876014059500894 0.3248014146580985 6.102967902727899 -1.086374389385716 0.5187930821192097 -0.45169397447786724
Ni 2.8645202554542597 1.5491311328619135 4.748795209369648 -0.2228241412522098 -0.07779515390260795 0.8401933185751206
Ni 3.3768364775985944 4.1834988547622665 4.6642077402714754 -0.5503258626201684 1.3604421593042506 0.35970915933843856
Ni 5.014761837497414 4.7167899484218525 2.371943435945518 -0.07554312464363763 -0.22814581057543934 1.2118295683684484
Ni 7.257151450579479 5.9918881013144185 2.7369859664601233 0.6620390094264599 -0.6809638713554208 0.1647056398429228
Ni 4.84444298020633 4.505681582998259 11.666820876468405 1.247087106019162 0.3299005606174383 -0.6978375071823079
Ni 5.331079940897464 8.009427816899803 12.248533648448852 0.27094130847441084 0.08361638857007535 1.2256153092986313
Ni 1.6788055113827356 6.3550416243857315 0.38614974132290864 0.370151180607369 1.1115745428004276 -0.1460653990339162
Ni 2.59727646250519 1.533785213468949 0.272545522572782 -0.09511179080418457 0.05173393803918187 1.0438290598243376
Ni 0.7112928814158062 -0.06399601895936714 5.127701640481737 0.13511764177316085 0.4842744795170499 -1.86759380052979
Ni 8.84586653500021 2.3858145880111143 1.3963726120386328 -1.063691860186536 0.07347544348133153 0.405169862774399
Ni 6.942066096758545 0.6572576603423982 4.661820194395452 0.0034604477447746857 -0.5186742971531584 1.1923676029890948
Ni 0.8111555680928471 7.217431533993554 2.761635519441357 -0.37212681627650107 1.1876766252713287 -0.5920368692057094
Ni 8.01324390199398 3.482300016958986 3.8354057245269906 -1.0036584011427232 1.1945044468264396 -0.7154837595091613
Ni 7.293581013509381 3.952720882083662 12.71839615052887 1.3650385204256814 -0.932820909504871 -0.3882358060232217
Ni 8.215496411985248 8.803545154228944 6.990991752113221 -0.3489490926084571 -0.0004198611462379866 -0.453542854761148
Ni 6.912072211778439 0.8775790160028556 0.6404759502631692 -0.6115497424276565 -1.1960273112288693 -2.1463808303008647
Ni 1.768007633500966 6.810968617620656 9.293457965639876 0.5303974991273576 -0.27410196559057953 -0.40214701678767517
Ni -0.0023095925938141624 4.8998623252557 1.3222363213575237 0.486558133344904 -1.5357314882002906 0.6609604316503004
Ni 6.200585353590625 2.2107913407820807 7.089045197496206 1.425184079567326 -0.21616832649858897 -0.44263803492318604
Ni 3.4405406249664354 4.583952116936976 0.4337547230476049 0.1372765970976926 -2.0564143311430456 0.15349408739781953
Ni 6.09182239623907 5.483460478945383 4.683735943898294 0.9901613950975529 -0.7498524667970182 -0.24839530485309477
Ni 5.478456965947795 2.959351329694777 9.475820605032219 -1.1470801919062052 0.6445272257949416 -1.4527717593776075
P 0.1783081622839714 5.47154994257069 12.38118656749686 -0.43392148098579464 0.4083068657414839 0.6047730858254552
P 3.7710987988723024 6.32253691857169 12.56214242207539 0.720137713341405 0.297136735922856 -0.4081153185559681
P 2.082077781786158 8.415265294148005 1.4456445249956775 1.2544414895017042 -1.0236037339163984 -0.27990803074939535
P 6.457740541528253 7.822983507393668 5.71303652078435 2.0416479714671483 -0.6037063351238378 -0.7570484703248253
P 4.541920794890208 0.9167668561160297 12.85926045078071 0.8192537402089761 1.1071967254477062 -0.9180074986411222
P 4.203821094147398 6.196723946820747 8.200982598558188 -0.5879238754786004 -0.17014403724967472 -0.3631616366634132
P 4.798903760460167 1.0886447790512892 3.9512361439876384 0.843928617247837 0.026328867702515944 -0.978112948573451
P 0.22737612770035368 5.398989939770524 3.659172388556693 0.22127736559038022 -0.7741339650522022 0.6233511059379586
Ni 1.5494211915864116 1.1283375026317926 2.342809756370251 -0.015070778290193397 -0.23732670574375903 2.215748679371726
Ni 1.9868478767994564 6.691817932198021 4.87056911338196 0.1750198772847373 -0.9036391457345921 -0.5827672709783254
Ni 6.1415946604958735 5.766485279374164 9.258978141198707 -0.4751437208603752 -0.6018823945412215 0.015995346986991805
Ni 8.299649699430187 2.2465592072467224 10.088497145852811 0.19302865515733206 1.1631087061239775 1.060639189403141
Ni 2.638491994389307 5.383190803620532 6.915598238148116 -0.18687651951300718 -0.8000794812733704 0.7108596304735887
Ni 0.4345995190827049 9.386119038047744 9.181819801181735 0.6087079021034871 -0.9625073808257103 0.01587450513841137
Ni 1.1695983561916123 1.0348932716677808 11.596216957191572 0.6820735594798317 1.0737885823009057 -1.4901023775072662
Ni 4.0428475663862296 6.8055118878660394 1.3746952545499886 -0.1644503292990071 1.780772788979488 1.1138941920725396
Ni 5.729412148649282 7.8157320392812215 7.646970434767285 -0.06955631093258344 -0.3094556624995251 2.8764139483791107
Ni 5.365515350096444 3.1823067811470804 4.547409249817816 0.26448578265705414 -1.7216793252514415 -0.6360981211909819
Ni 1.3256318213011764 7.363974640210954 6.954708124979081 -1.837143711570049 0.40071748343000024 1.320149887443107
Ni 5.307757406580809 4.654354807973689 6.828012286985446 -1.1758320672279168 -0.40349581750608576 1.2824647141875074
Ni 8.111356265555377 7.285667848931674 9.02096320334388 0.3880537719194026 0.038010932026134536 0.5857824036555654
Ni 4.403825649023808 0.41406789355582707 10.269506480008669 0.49462111285869653 -0.6159807816158166 0.7441636439423571
Ni 8.498231153689531 7.060899530451259 4.88928877831424 -1.205028229175899 -0.12266578916305326 0.16505273876969637
Ni 7.361327854349911 6.0033091635915214 6.967523282000802 0.4060522653793523 0.8883523947788506 -0.7753554961641292
Ni 2.215704210428263 5.191516372738293 2.4516089710623676 0.3580520833509898 0.14719514176298523 1.2957791719082263
Ni 2.3875730690283823 5.163897343565013 11.390810058571388 -1.0356048721423328 1.3900977773871543 0.9369454731962058
Ni 1.3130867814666443 3.203698612078797 3.7873801576517727 -0.33605038226891804 0.16131255500097377 0.24896454709300347
Ni 3.6163252763472755 2.709782990269795 2.6609162530935335 0.3836672128159328 -0.23616636688707068 -0.30270497403925284
Ni 1.0674161061521026 3.3900613425686683 8.303387831242155 -0.4272124443967352 0.373690304108879 -0.3748838101963479
Ni 3.709017167494621 2.8517576715763537 7.335418358784141 0.001637021382790729 0.56996394856607 -0.8013087256947813
Ni 4.5557439059795595 6.703193672799421 5.798247616140193 -1.994707855272184 1.1765270364124125 0.32172342412328464
Ni 0.5896930126381934 7.368606515467779 11.41094919838668 0.6866084712357078 0.354203399028861 -0.28962834336095283
P 0.2942527923673901 5.536432453506804 8.098406049940062 -0.3112045268698318 1.0173734367359704 -1.1007216592463236
P 8.369037184931159 1.814960889529056 7.950549521560796 0.7250300084366997 -0.17994662516239332 -0.37115853882596084
P 1.7661313161268706 3.3967055002266973 10.559301432353932 -0.3945815457355914 -2.532928449988386 -1.4359042941983078
P 3.8171728143917583 6.223790051550453 3.694899465513202 1.0735533263616477 -0.9958671872330785 -0.16544714599463764
P 6.864049364203763 4.080092919478782 10.601184099304394 0.3450865243292573 0.46713936249866006 -0.3635377890559094
P 6.145954605698481 7.6903632199521645 10.222755358654213 1.2353837015393045 1.3812863497431114 -0.3961900278732919
P 2.8011514884866195 8.595908429164183 5.953785262117569 -0.5278446507985167 -0.03732341904080669 -1.4126844044384188
P 7.0699729299269585 4.012917131752107 1.6842178258951626 -1.3458498633123726 -0.8819395492739714 0.5392968584995164
Ni 5.30160272302037 2.783793286692451 0.6564300865440652 -0.3221322295259291 0.3511409580534533 -0.34589333650126886
Ni 1.6170501960701142 1.1338304897269706 6.918211485969139 -0.6742957153066258 1.6634281549190322 0.7700538814455578
Ni 6.903397643048925 0.5695955687645483 8.949389400207007 -1.4561769284044148 -0.554176089604194 1.123257892675627
Ni 2.5954817241473593 1.7506947533825006 9.161561918576103 -0.011302826607328922 0.06814143286292781 1.9365093925545809
Ni 6.645408536278365 1.8225568023768437 2.661578855992308 -0.6360071041390724 1.2639080342312428 0.07144787152834148
Ni 4.10589001728881 6.782470347938741 10.40347191478503 -0.31311974161467365 0.45314227688861963 -0.5119174380452991
Ni 8.040328135393965 6.789232341953598 0.6891541492685075 0.8592297663812815 1.7547434547952618 -1.1908416532628718
Ni 7.568955515079532 4.088631523181188 8.2868173201717 0.7256288183629632 -1.5040812082848614 0.4302062369177366
Ni 2.7201163323300315 8.363979285922728 12.579189717174236 1.1356446963757538 -0.4150413562518401 -0.3905505701993274
Ni 0.21566228739821064 5.015913008060264 10.217673892374416 -0.9833230320194806 -0.8523209550765902 0.19487393589618696
Ni 8.62540377571156 2.227089015364804 5.793697319899633 0.4962007986409906 -0.10446932075968461 0.6270234125832234
Ni 3.492914353408579 2.613737295120443 11.681600274915086 0.3063196879737047 -0.15299503627421393 -0.8358286138485218
Ni 0.8991856716774035 3.3516557545781245 12.754375216002286 0.29587355293971623 0.26217050426031624 -1.2949610468823052
Ni 3.1167897667511277 8.767577872391211 8.082552527779226 1.2211559879756968 -1.2564148111779911 0.828367015364154
Ni 5.7663765073524775 7.631526620554803 3.638635324428731 -1.1082614192667946 0.788943519261209 -0.6752166844589984
Ni 3.195703868484825 8.303048825107897 3.568150147942238 0.05979563200139379 1.0697630060812802 -0.44615299005498005
Ni 3.430143832560215 4.3603440333545525 9.368746333317349 0.39537241706800297 0.19335132860407345 -0.6898380339165989
Ni 7.377054475818779 6.488559281006149 11.687543759466749 -0.5825276441636935 -1.1755027089129562 -0.927938384601589
Ni 0.33248525155674946 -0.2743883019068574 0.18291284453537482 -0.5251385647212633 0.23292780534511498 0.7983013063270251
Ni 4.659920309749992 0.46146802130634673 1.8076097137300635 -0.25611581342580403 -0.7256293325835954 -0.205943049226155
Ni 5.96381585538411 5.613352401509578 0.36225796675942606 -0.7865912169789485 0.8795489375546077 -0.06653680737996928
Ni 7.7888925429300295 8.932566900619646 11.406544837941881 -0.520237270764904 0.22661703263573876 -0.5599842116455388
Ni 0.23167624829103436 4.755150214736693 5.891935677719486 -0.1455360088930074 -0.08482326439398295 0.09059050589506333
Ni 7.817436134287646 -0.4974996599235786 2.402536473478415 0.727320090022457 0.3780400964371425 0.992733269589787
P 8.757462074374349 1.3406876819696434 3.5460748661409234 -0.12442030996031475 -0.10749782317336325 0.37065897348172294
P 1.8571191122677912 3.263940183422945 1.5360032562778434 -0.1453658018637303 -0.21839361628468196 -0.40425326449740057
P 4.7935739313975185 1.2494098271042247 8.296395603114727 -1.0410227007237942 -1.5083865205284346 0.20578904014679397
P 8.427964427679926 1.6287885100771367 12.553359987757704 -0.879677235602356 0.419825922124677 -0.01910303937803807
P 6.159777716787833 7.694206498051762 1.2921173485524777 -0.36302768218871023 0.2743577903551275 0.1580325986981214
P 1.9554127625320015 3.400032111223282 6.154972712729823 -0.08134096227233732 -1.450499418403663 -0.8635967851007256
P 6.916631572354139 3.732666017876337 5.810028532522376 2.2446013419373605 1.6676838448715925 -0.05653778718572844
P 2.323270675541264 8.62752483013445 10.369469780805769 -0.43687053631178957 0.2445239948231466 -0.9713470906045273
