# total energy = -381173.0270581047 ev
CRYSTAL
PRIMVEC
9.15965044692225 0.00000000000000 0.00000000000000

0.00000000000000 9.15965044692225 0.00000000000000

0.00000000000000 0.00000000000000 13.40607430072503

PRIMCOORD
 96 1
Ni 0.2654173617479584 1.858758724295003 3.0297055501161645 -1.232591483506148 -1.1176037797136429 0.34248533926098434
Ni 8.2850229882779 6.357420330529319 1.274773296614536 0.5119765734180085 0.7782821828926209 -0.5067333227411982
Ni 2.792676693284741 3.523122185193878 11.453546706177773 1.577206981736258 -1.133655948080499 1.1724004158385486
Ni 2.1096873508198546 2.6774299701989337 1.6724752474165026 0.974300002585264 0.7414575578651037 -0.16666533467245492
Ni 6.201733750312385 5.395611225647332 6.077201889474862 -0.45607359160280164 -1.2545764724176716 -0.7790316594641358
Ni 4.68725881083905 1.626671498929546 9.821370257274094 0.6421476698191715 0.7745507408746466 1.4874675109875801
Ni 8.54698899370264 5.133278834201018 5.103116104975016 0.6539690879341318 -0.6748826981583473 2.672842484708926
Ni 8.456903830648365 1.4063452648565848 9.075671199321816 -0.25538767701052795 0.4805800613845982 0.7807404146251263
Ni 0.8170160970514745 7.960111864346907 13.099557891256055 -0.8686186637953491 -1.3955886252983967 0.08550897760709789
Ni 8.806445254879605 6.33794691348271 9.77790771546499 1.2939457182439134 -1.1006805215957431 0.17086985967210572
Ni 4.226931413334654 1.5849218117712955 1.4591304989846159 -0.42596623069445994 0.019218481909979806 1.383835084306894
Ni 6.040120876196506 2.689410793104373 0.5331475352570967 -1.4670979461922926 0.5458729690551373 -1.036475447672744
Ni 6.433518707210044 7.309675919898789 2.5372067120224915 0.07434241946731712 1.2396604745377875 -1.1655831358063993
Ni 5.767758667409631 9.184564788793546 0.8361112205308087 0.4897696983036663 -0.9358440126019109 0.19264530367598434
Ni 2.7155799146952293 7.169258477130912 4.007880202616766 0.32515276151980776 -0.35251161314873486 0.8263147608208156
Ni 0.9761439579760334 0.8402358111686674 12.189017182372785 0.5206501899326065 0.10147527112836716 -1.5017137364939492
Ni 4.209546396611012 6.768368051976205 6.316459289282505 1.1706862613609195 0.7132486995310554 -0.48732252231475437
Ni 1.4058964419801578 0.5870447509606022 1.1998226241463883 -0.59675278662414 0.03984592835234428 0.26720266736758497
Ni 6.4485130551429215 6.478529229960294 10.604191546932155 -1.2052657991080016 -0.6169408315362408 -0.8894147746050941
Ni 3.2213941367779215 -0.015905733161540602 11.0538983296362 -0.2985644695083181 0.2549948124474834 -0.210285899575883
Ni 4.662601031587182 5.843957800246288 8.404817477856483 0.7012753292192633 -0.6018623399365635 -0.3476406582096787
Ni 6.6908316101608065 3.3958030426972385 7.624744999325274 0.9564817434569205 0.1009260834931165 -0.16517306639764456
Ni 4.8166113957554195 0.9814931938910001 12.244639160272847 1.8754626617549055 1.7867346629898777 0.6895968644400704
Ni 0.581864968580613 7.978971584807382 5.158831511310578 -0.6009686244777005 -3.4277975628398316 -0.4414879804791429
P 4.808056282151688 8.72926603943524 7.491086462690367 -0.4168002479244757 -0.8257167222255005 -1.6345366686956624
Ni 8.244335820582211 1.8253626384286181 6.681024372328349 -0.6183544240543157 -1.0232255246413733 0.5495468183622987
P 2.4430528321986453 1.9892654251793283 10.034553795856487 0.11575569230678127 -0.6098445868110917 -0.18166206519160327
Ni 2.929219603874482 2.113992386573338 6.1233582845075825 0.569552057839632 1.445737735348962 -1.6733053048234279
P 4.937747774138014 3.3615734286317753 12.05317406908425 0.38141132690222057 -1.4141499332403515 -0.20120527743085348
P 2.8338584821095534 5.165850551518864 2.910632841000081 -0.47075716175690535 0.6480128703506969 -0.21902945009646793
P 7.293142750675304 2.9582373767830683 2.475418457379356 -0.07560457400919238 0.2651095322839821 0.8753991770522923
Ni 6.198014932193418 1.061814169470355 3.2546995421039666 0.8096902648902573 0.18276789666127233 -0.7576904747841984
Ni 4.429442127108625 3.2387241955983272 7.740694267607448 0.4842675375385144 -0.5134999520410705 -0.1978582153354915
Ni 7.086299522196231 5.767035055017024 8.253556840780151 -1.6251475141712786 -1.2084315984304932 1.0386431447480242
Ni 4.247293316483576 3.5974619089710527 3.236628467554929 2.960196430213405 0.9826244632905593 -0.8539590049006456
Ni 7.051575287001644 3.0620253770441783 4.922576644949727 0.9807915238468787 -0.12532790937624866 -1.113644795065895
Ni 7.914542602913758 4.131652728424578 0.6883321666244754 -0.5021590731069545 -0.09215425083775741 -2.2523323920330305
Ni 7.056237549126161 5.194511098056416 3.413856713910251 0.4360554966096619 -1.4318609773668696 -0.8588114478969403
Ni 8.102984093459323 0.41084788125600824 4.841188570082541 -2.3297423946820777 -0.6629761765287485 -1.0338115276873356
Ni 4.245223235461689 8.595809931077252 2.6068649384090157 -0.8324054470995857 0.1506116236437019 -0.9624808984631489
Ni 2.008610607118386 6.609796181839384 6.4476383085164155 -1.3998504858985439 1.0067959183304402 0.9705767880974059
Ni 3.8235037649805537 6.564547508175111 1.3404195960648355 0.8333251307003777 -1.2429419735025369 0.2648516506369052
Ni 2.6892001211419685 4.488036411608697 7.102511187685785 -0.6282631985275954 0.17542714002548498 -0.24596561236567963
Ni 5.128387580813018 7.846037576530135 12.167701759602721 -0.3142374001588846 -0.0428237800337456 -0.5738506852149858
Ni 0.7044623112242295 2.8327410047437556 13.313157277972934 -0.6163667042003256 1.419065111153782 -0.4621354815261654
Ni 1.1050294007148975 0.8617802252022174 4.92037832882029 2.078543558941917 3.0735823367364294 -0.4756862236274066
Ni 1.2567406925977636 2.2464409333720003 7.665084100300469 0.06575956289431255 -0.07569867638489544 1.2026921248435545
Ni 4.001109388938096 1.4696292904327921 3.9975169739965724 0.9641762838877007 -2.1495276034599624 0.8333523843938874
Ni 7.143144313443292 3.867744877085501 11.650508503655022 -0.21827483131863054 0.5017027022958263 0.5252838320498759
Ni 0.23466933085249297 3.8758328485117266 2.2253948043277894 0.8870722425148464 2.4059789458483145 1.2098937847983164
Ni 4.915269991714507 5.9568413334929495 3.6310888180310283 -1.6943438706612821 -0.6138328820348783 0.48222942406256303
Ni 3.8084269801928223 6.322659456732575 10.519987795489179 -0.2888438997864444 0.07328852428150603 0.16582484104903053
Ni 0.6221701788488118 3.311222829617097 9.819440318905457 1.2488917633280685 0.32759248130955193 1.1088751415913936
Ni 6.841608617688661 7.713662306935787 6.440961839238302 -1.1636614933036538 0.24352486413467092 -0.4510771668294748
Ni 7.57787048769027 8.188663464604184 9.1888047910282 0.007964763373031444 -1.1375447416119442 -0.267144817546456
Ni 3.3170392077095694 1.1504887463415754 8.137460102124296 -0.035008654864701 -1.6021155720524796 -0.13986441242952688
P 0.8039947378447678 5.536111105270062 0.045830311473520534 -0.37388905038324644 0.04991591099383661 -0.02135352597511161
Ni 0.03634640930510179 4.210563117820877 7.608282359410943 -0.583960005734846 1.3268031310935666 -0.08626076817145788
P 1.5381068378647973 5.780362346551744 8.669734722684995 -0.5623578540840379 0.952415800917663 -0.37772925006494307
Ni 1.6398155974534798 7.341267554608926 1.875281817902894 -0.143929583637836 0.27226105572709886 -0.909871242687233
P 6.388499024809254 6.86666026191372 0.17872310132334018 0.3638846308723669 -0.27276961993240123 0.327256695236688
P 7.747159148958104 3.6579797200843833 9.59385644542292 -0.8470651059942894 0.17764265961956502 -1.1239631462727675
P 5.132619339362187 3.2803822862511844 5.631905478505502 -1.3736969674316277 -0.12136918183881679 -0.0031429165043558773
Ni 8.099054603377953 6.089234922388376 12.029150137649703 1.1101486089871784 0.07050967598478824 1.977874071544297
Ni 8.603210928713027 8.93585279769921 2.322602511641447 -0.49256680143282905 -2.116692816318129 0.5976583291575449
Ni 3.2033587848659875 8.568257702254957 0.2659202265625674 0.9857923194955798 1.5220251943577916 -0.24536603110846772
Ni 2.3321844220706365 2.8412961183474863 3.8168437830734097 -3.5093203021056727 0.6640015324694692 2.1390555002840452
Ni 5.019900679825234 8.090490330123682 9.542296772537053 0.6542210560439378 0.734969893258231 0.06974837233873149
Ni 2.6916365881854296 6.7078136022607175 12.543473675083431 0.4185146595124212 -1.3025180332939568 0.6666546538216003
Ni 5.817559687391951 5.0179496742603575 1.3079431391125993 -0.01928995857786355 0.8467809990949674 0.4441143623583964
Ni 1.8969911056461521 4.860879986811986 5.034798851427449 -0.6550769762863299 -0.5064438165252375 -1.8074844939427193
Ni 6.361945197895746 0.8693122058407057 8.279833130282318 -0.9327167798268389 0.29987778900310286 -0.4537007204952509
Ni 3.22576329008518 8.971144931227236 5.768338473288771 2.76932904437345 -1.0113799381566968 -1.2367358446918248
Ni 2.9091233305911994 7.638580651464927 8.60157867898692 -0.04910061418139286 -0.011983397614121299 -1.4246405483590303
Ni 0.36614054293860915 6.106216914488288 3.3545214136815478 0.6482519829446964 0.24778749606576683 -0.2968971091082242
Ni 1.3756879145014584 5.1219025482311755 11.387910482343068 -1.7595347055363182 1.5557076742119014 -0.4520189619174538
Ni 5.949550251663646 0.8935568848532492 5.883697860076211 -1.0043268879646574 0.8516175012516622 -0.3059795310254666
Ni 7.992243918438866 1.7723099425048388 12.148558089975527 -0.1638072963983695 0.22201167265324342 -1.0095148599235002
Ni 7.654573401306592 8.630818115438558 12.89712595047672 0.19324411360224783 -0.8435740621218956 -0.5162739152417819
Ni 5.303923123748673 8.081642107702693 4.464584958332859 0.6630121719730065 0.5557927992720106 1.8766661951447037
Ni 2.975439200495924 4.371406581291452 9.326136347529378 0.1947608073570904 -0.5353409591755618 0.7908060263912445
Ni 8.77781218729367 6.74084330210553 7.295156957828902 2.4137264510042167 -1.065639727941526 -0.5358356394237933
Ni 5.583631372268088 3.91115246099137 9.780978030325771 -0.5348185110131886 0.8440908538573139 0.6705442186839935
Ni 1.3243847118306904 0.2314332263169489 9.385337916860207 -0.3185879638180965 0.9946677676083385 0.007470340235116166
Ni 7.783696994959478 1.4115479463629221 0.9498777440894605 1.5298927700313265 -0.32391760356112603 1.144344795252913
Ni 2.881928328139939 1.8116323222701676 13.05000876166357 -0.27390527619874117 0.16109015457752257 -0.5236190427529434
Ni 1.724469087737936 7.551957836314516 10.553985670395997 -2.0719363380380447 -1.9780237097482833 1.09894271296903
Ni 1.525072655147336 9.163314399542308 6.964884690437242 -2.4986283911549356 -0.6843466717847246 2.667113809755265
P 8.787237467698638 -0.2874985313031129 10.91459561633896 0.12901641397142943 -0.2835314864345956 0.006082201638337912
Ni 3.767968803760617 3.9569415540374635 0.6069422598271813 0.02627410320518056 0.013074059575138772 -0.21769581888670897
P 2.198187894330828 0.08781906551084749 3.1658710831036854 0.03165593634238419 -0.10242400819488166 0.24491325984176532
Ni 4.863527125817851 5.443855105037965 12.381770120427213 0.5300542568553259 0.3806145420325381 0.7306267857981869
P 7.781049855953613 7.235400313675389 4.248706650561795 -0.0969519293367169 0.3428337237393386 0.2780974599032178
P 8.465953565381218 8.765410020463422 7.390607844169116 1.1344308785733108 2.904463912537792 -0.9008212166698227
P 0.5181138008269 3.0050431910390274 5.742760149157701 1.2518608732587215 1.5528712332043708 -1.566959850086953
Ni 6.644328064372646 0.3653280819357709 10.706492935910731 -0.7363158657631641 0.5210744219542187 1.2323958225555742
