# total energy = -340861.09258025186 ev
CRYSTAL
PRIMVEC
9.37890675917730 0.00000000000000 0.00000000000000
0.00000000000000 9.37890675917730 0.00000000000000
0.00000000000000 0.00000000000000 13.72697807647871
PRIMCOORD
 96 1
Ni 8.739762297378633 5.291457205451029 11.530853636362806 0.17541839827473663 1.6000226940791926 -2.5590488012245216
Ni 1.4024748057242007 7.450866051171066 9.641225288832052 0.8574068542399298 -0.37298479340142215 0.05260425645927715
Ni 4.906049794533019 2.483731437634591 5.31949263320554 0.28472859206649026 2.233580051126192 -0.44171089512322637
Ni 2.927916456520458 4.824181318395883 2.6778447927629063 -0.7668790832620018 -0.2793850683663898 -0.7937373411054266
Ni 0.6846958252056602 9.051948584089674 12.677015115954697 0.5267593881541379 0.8535573985868525 -1.6588659894696463
Ni 4.182270189540595 3.353174841789102 11.969307205395609 -0.562499778978541 0.9798404727875191 0.7906072801168771
Ni 0.054357329264290974 4.642343076289483 2.6039662071998606 0.5025632505239087 -0.3918016689976091 0.793816273972478
Ni 7.647719922822152 7.794799936888204 0.87277760546815 0.02106016310440889 0.5364976984878244 -0.9823480697007211
Ni 8.566111840776609 7.469417528522338 8.598208335110037 -0.7775332205417385 0.3095932165186539 -2.7588242881873843
Ni 2.538551146996667 5.404407378222197 10.549566770421684 1.2735224173925552 -0.0976363569982512 -1.0521807742231428
Ni 2.589234758526633 2.7674339848533114 6.483759154192222 1.0263039064563808 0.20200874716875533 -0.338251760795611
Ni 9.202620719402205 0.24836657852880495 4.424905318216335 -0.9653654190997956 1.6204557651225642 -0.7384313694442701
Ni 7.027671025365152 3.8377829483311787 1.0988889764100827 0.4954130126323726 0.5249310766961475 2.1120308920660853
Ni 2.590369606231135 6.077597160751143 0.3829951561279454 0.44757840964759693 -0.14122658288437612 -0.07969262803563695
Ni 8.200381376007723 3.2477746888701966 10.550582506011745 0.5247618981081349 -0.4620172107807462 0.01377494229690531
Ni 2.1467191850242475 1.2727176322384326 8.137873776865648 -0.22479103517059348 -1.8069661595454043 1.0246082639215128
Ni 6.963566198420791 4.308472757406477 5.207356549531486 0.725124367922719 0.5086027718497693 1.3317782157106546
Ni 1.2818620662209859 3.085135068673832 9.981366344700426 1.2875272163120792 1.2900019031048169 1.3856757370600585
Ni 8.848623266850934 2.7318691708411658 5.9596227076882275 -2.2596726344481857 -1.9333199390830058 -0.8842769391578964
Ni 7.199933403783158 8.693496150880236 3.0199347854328953 0.3137779440239628 1.730212045312801 -0.04489814606427106
Ni 6.963753776553767 6.6178878360669815 3.9514065265997287 -0.38375128788930685 -1.5332475454361723 0.46177732685579825
Ni 2.2997360469989716 5.968004636560236 4.708271162686364 -1.5766835051326202 0.06464267568104996 0.20781326966567437
Ni -0.0792602021981118 1.3045683992176642 10.126240439922686 0.5683510955529955 -2.6588734241233434 -1.344523174081149
Ni 8.722148710692236 7.813717191598777 10.65778997424187 -0.13984667181771399 0.3142317437319298 4.08303009086742
P 1.6476863200563587 1.8953551079304949 12.287058935312032 1.30446435838705 -0.27726056582421926 -1.430946178862084
P 4.551545881022715 6.197834743988407 1.6109435153691274 -0.19756588090605331 -0.3241250915862418 -0.3009283417548043
P 7.969679030261216 3.875298574926269 12.831375037361527 0.10088288896000691 0.10564534334565676 -0.41207481742434837
P 8.60690070579212 0.5497886940790513 8.130941826961541 0.24567122105371242 -0.9269996748374035 -0.4123931199957156
P 9.452906222231348 9.41782911136494 2.3763457701781405 0.24338422479174857 -0.6709442823358897 -2.142810339340787
P 6.189628200670731 7.204500931321109 8.862932664724967 -0.13717683829503474 0.1405416410022096 -1.9265674508505206
P 4.590111945162468 5.563107857626076 11.797733238725623 -1.3877711861365067 -1.4343197233200073 -0.17485764067526013
P 6.64556498958751 2.3235678487935023 6.636595941159289 1.775832414255077 2.021810625026247 -1.525031071063651
Ni 1.621491033786337 4.952503519164391 8.046068349134138 0.09064192795828906 -2.3882061952459255 2.3577100835395974
Ni 5.060107715145757 0.207900347902011 3.625995043623252 -0.6845916979159953 -0.24841690211964956 0.6410135562147282
Ni 5.122046014654251 4.33955445404051 7.25186628567874 -1.2972061341627399 -1.56725758383303 -0.9982667978135065
Ni 1.6166233812356239 6.82809727078592 6.998864651484111 -1.2223926885962755 1.1396646161684245 -1.6808604914628664
Ni 4.869200070309992 5.216885518686638 5.0253091578068165 -0.4009247143447998 0.39059145073959184 1.1699437267679398
Ni 6.402979569117008 6.263655910849493 6.84063311741267 -0.46596256858173946 0.9172001722484786 0.039066626984158526
Ni 4.362560912049949 4.146517797395473 0.6224845995136872 0.3126754549884035 0.27876800360768117 -0.18430258813824388
Ni 5.553410068151246 1.3825540080022078 8.005655578275242 -1.4426914923234702 0.6248775698848141 2.720566016037134
Ni 6.981808171852654 0.719647258722976 5.134054766727339 -0.2855824554263533 0.27836048375661737 0.14886867281066618
Ni 7.813435824399314 1.211070078836051 0.4459773279464476 -3.284969696906607 -3.374335072145317 2.1125574539935164
Ni 1.0095830273004707 4.286976303367491 5.836120327046527 -0.2377504235447389 1.400082142293376 -1.2668470622549084
Ni 3.946090562311204 7.337765815893518 6.405612228213319 0.22913697084411502 -0.24428668200135992 0.0875943993812169
Ni 5.09546619321163 8.97931833100158 11.538705657009158 0.03238664386082164 0.32201473011145837 -1.3506963927713964
Ni 0.750004903763723 -0.035771149958418444 6.410059705746167 -0.6383432084714167 1.2218417011888119 4.241152935286503
Ni 4.863347632561158 5.448638301977808 9.248263168608457 -1.122886111158505 0.8205626888283869 -0.3697485458523116
Ni 8.709402776556555 5.717522176691468 7.0730452378412485 0.10270348710851343 -0.7946727084355023 -1.1581359354997343
Ni 0.029974047758812142 5.461027837660836 0.24262668765975617 -0.5387361009000399 -0.16090169271580032 0.6735220703653949
Ni 5.131922003355409 8.339376772542533 1.6563242930798783 0.1841570636993151 -0.22590663683227546 -0.2650097734813242
Ni 8.146246326831008 7.880466870218092 5.881145644195289 1.0156662242368766 -0.23028702528815823 -0.9387848403977895
Ni 4.564376225318236 0.4109499252852768 6.05698795128113 -1.1845154539345277 -1.4762508163361543 0.3603874163523858
Ni 4.543630083811151 2.4846974650194147 2.8856991840223385 -0.5187714848526549 -0.9075945308379144 -1.1643698322245881
Ni 6.931049529069497 9.136996509580744 9.706428385744983 0.03824541663444381 0.18335667928520683 -0.017370115847331377
Ni 6.163920617546445 4.145289160624484 10.51288868019033 -1.3680019739293794 -0.41880416572838197 1.9709133239557477
Ni 8.080575222476304 0.959302708756401 11.894783351055128 -1.949261550013927 -0.654037479278222 0.27681550786700065
P 8.84826686839828 4.988771751175193 9.051459005162608 1.3583048012462737 -0.18028498233841853 1.7058840100903974
P 0.753382248047946 6.7614413812330945 12.34474014909265 1.0975710294324839 1.0260758496059748 -0.09643950847667263
P 5.766226838918544 8.051200486852347 5.248057252824499 0.1200923720089222 -0.28469516772539355 -0.3224263637275802
P 6.249587550876333 1.253781619714561 2.042794334121194 -0.004032261087844668 -0.043632649088286145 -0.5491038172876092
P 1.8827217206745983 6.843703771449478 2.623596258815741 1.0681311269048122 -0.15133513207328775 -0.3117894528390244
P 6.985090789179725 8.351953886358535 12.378041832930446 0.8668823978305329 -0.21620097950873735 0.3690651466320418
P 2.567775820114242 8.308266939188554 8.057420577741812 0.8206866160007608 2.168233407399582 0.0025824160151955524
P 7.729588398959288 5.798377730910536 1.7502718630899678 -0.4900198666412593 0.4287980437163002 0.37719857437245363
Ni 5.257402395409336 0.5816544673089208 13.430268872981555 -0.050178934847236165 0.1572782370306001 2.3330727446068913
Ni 1.439943537786047 4.521083192227501 12.267278821189773 0.7232348642094899 -1.888954268483437 0.943930389154471
Ni 1.0159325471016896 7.91142664106569 0.8267581242146178 0.2849077979568319 -0.258488941643671 1.4967977872495706
Ni 8.80593048378572 2.084321319089964 2.4089477875799385 0.4160014061722642 0.32646171013921843 -0.7662728171365706
Ni 6.598961202449759 8.879282912685772 7.178687366551693 -0.2722392013502279 -0.5211466699530509 1.7263191380162979
Ni 7.022156228255674 5.971362285140497 12.980052279229863 0.7792484034606321 -0.9345193802532163 1.0816206767508145
Ni 7.100057426880379 4.009688928296531 8.356503593973855 0.06560452537368701 -0.9364132548418195 -0.7451100670160264
Ni 6.310147151107458 2.6637407929444823 13.103210453997555 -2.068765910729863 -0.6830742328302043 -1.931162783530687
Ni 5.267672298189742 4.578041292305498 2.9639567810996965 1.95689412685852 1.030086770537581 -1.102917638456378
Ni 6.950407592392563 2.6563314566919516 3.712282860573289 -0.5180706021308884 -0.5073015365398424 -0.7701112170460543
Ni 9.149048404624416 7.287795001268858 2.909543178395513 -0.11433155826574504 -1.0248959703652607 0.7793337640855867
Ni 9.364894562239266 2.351535748420142 13.512617549139108 2.397374492008755 2.0757328289659993 -1.1088329754995483
Ni 4.009754580643072 6.924062243616161 3.6858033934318097 1.307173015567465 2.0514374467537446 -1.4695484646153143
Ni 3.8368638154795995 1.6922642633579745 10.459737478321069 1.4934885203706796 0.5631042453317593 -1.1307297755726398
Ni 3.2012177962656896 1.9079509795597964 0.30664710444427745 -0.3745961037526 0.35281654598366335 -0.2679860825008288
Ni 2.865040266347087 0.10044996598968359 2.0147082602707793 -0.012620516977487941 -0.8411425698622674 0.48371037948346374
Ni 2.074229615535885 0.39131049476274715 10.566671082477049 -0.694216622600269 -0.9112946053973209 0.2748501566105137
Ni 1.6130875334290369 8.270141683661294 4.831731338248146 1.9527119704563725 -1.3605532309608181 -2.2478897828806446
Ni 5.171988692558965 7.172603269808634 13.280796299829403 -1.9927846701075422 0.4036631963218854 0.23546085617961385
Ni -0.11954448203591958 2.668749129094927 8.134524569301373 0.2879962070741685 0.23784761124423554 0.3673803027304512
Ni 2.9941971898073336 7.497891889108011 11.537497653832798 -1.079275830667722 -0.2531158502572157 3.1723885456730656
Ni 6.142977518999736 6.647712759210079 10.870421042657522 1.0559096451379557 1.4262878541544664 0.7506415383572169
Ni 4.075285001398046 8.062783436563581 9.764713601113781 0.418754286327053 -0.05087159003888658 -3.405564976693877
Ni 2.1195015979295095 2.3365857712219986 2.699725781974493 -0.07824869650025879 -0.13334332348155745 0.6067273813383487
P 3.064435821699991 3.1507217628686983 8.806872126013259 1.0289310596665826 0.3760040398437202 -0.2749530007369652
P 0.46579777136729855 2.7056926423844416 4.085052194782078 0.2919451644195875 0.8712234484080479 1.4792584928142265
P 3.042254707475644 8.905009253623355 13.599275832901771 0.28517416424434117 0.15555276969906112 -0.08282346035513478
P 6.532999351988942 1.8676779544099673 10.054558394296782 -0.7694260180535717 0.9341635395756944 0.35825031540472496
P 1.368166765202991 3.4665001708262206 1.0797860193478628 0.37824938423447113 1.51687964560111 -0.5739702415119856
P 3.210896827927223 5.036557280550689 6.354273031108603 -0.6096350419034469 -0.4841760062659726 1.0655685083839583
P -0.2760193468920459 6.21461360798306 4.9286848478391665 0.5123257292273112 -1.0704235224834147 -0.08565604470792344
P 3.26104584177821 1.2633481044963089 4.3967235795181026 -0.5231721850235119 0.022786144656580114 -0.02758973669281055
