# total energy = -381172.3718687987 ev
CRYSTAL
PRIMVEC
9.17702043940505 0.00000000000000 0.00000000000000
0.00000000000000 9.17702043940505 0.00000000000000
0.00000000000000 0.00000000000000 13.43149704050944
PRIMCOORD
 96 1
Ni 1.6227908452040638 5.154512027069974 11.477375280378478 1.603950054158057 -1.0746419314401363 -1.6904136823689404
Ni 8.22839166856293 2.5883510310196716 2.517142860076198 -0.6140714804082458 -0.07904188182551548 -1.0833934523805213
Ni 0.5348413287974769 5.226882008777354 9.352996039260107 -0.9014868752782796 2.3564872668760897 1.151886612155913
Ni -0.08939886048701541 3.463095424421353 11.872381763085897 1.864504620081505 1.443602948394146 0.4588987197564226
Ni 2.321620937394897 1.34831534648659 8.235253326605358 -2.0727074118761144 -0.7089457012803274 -0.3307230565187337
Ni 6.862575744455749 0.5772125490030487 3.81795703203634 -0.8079871661562215 0.5263986623806095 -0.2840984146816591
Ni 3.949404081616057 8.878005401142213 9.18293943007612 1.0110251259204395 -0.13194670024434696 0.32503114834027896
Ni 1.254948342442604 3.587269685451349 8.315117263050531 1.2570203059724738 -2.3268995259166445 -1.5440096690486829
Ni 8.206183279553056 4.532429355246731 0.3645626357233903 -1.3384666834744237 -2.487031687456272 0.5523758031706616
Ni 7.297465557178421 8.596949978904046 12.666277525769365 -0.01474476240934235 0.1192685905560462 0.39534670603639005
Ni 2.5027936712101493 7.058165577086914 9.069081057511413 -2.031064539524347 -0.47695583436844957 0.9869423739396228
Ni 6.748450320601708 3.1343562049537232 8.123530446653296 0.07936738348573429 0.35211540615158066 -0.23636562738207037
Ni 5.1934225929385125 3.777243181688282 9.974605176838349 0.21671828546478808 1.7097314088609459 0.47124207181312394
Ni 2.7860424012885483 8.134859478154405 7.150646998676581 -0.14929419038385902 1.1107625884220935 -0.8085746632285752
Ni 8.707294470414256 8.617313786843264 1.1864969483828345 0.1742536885426741 0.1918750011688631 1.0309200650721537
Ni 2.561214582134468 2.8953131814292736 10.372594191127673 -0.8401688930950885 1.2737491886913805 -0.4916018664163985
Ni 6.155724936564656 3.378988033811649 3.736803724245759 0.2374467762613911 -0.44854180200213073 -0.028319672880299615
Ni 5.9045498922670445 4.589923387125595 6.2217517618738425 1.4969003742657059 -1.2053691574550853 -0.9385015048294159
Ni 7.074317132730458 5.122548465532212 9.569699442385081 0.6332776210230513 0.32875693393129835 -0.7092935715380494
Ni 4.253879259537363 2.1309499876188114 8.86363235202351 0.873626658532902 -0.03320862554148474 -0.5224088244949262
Ni 2.0188068001392057 0.0751965039449992 4.22104938728781 1.5968985466279142 -0.9101116408328133 0.08027935377704239
Ni 2.603456406354486 6.877772889993083 4.814238210847589 -1.608068961422437 0.1457524957791877 -1.1640417594612082
Ni 7.768118217823187 7.5132907194652745 3.0510986064193553 -1.3372184128896196 -0.09219333160580896 -0.016531679106436045
Ni 1.2439359181401877 4.402436863376958 1.3320187939230643 0.41146109509974943 -1.3409179732283938 -0.9574142825735189
P 1.6564796865492057 0.9061766054668533 6.245471606119222 0.31673548399039 -0.2885734197338772 -0.027923722993461585
Ni 5.030328589019727 5.854232290225254 8.114558073952901 -0.6629676918883163 -0.22401276224367228 1.17302725078927
P -0.24408579615293097 6.704006011521206 7.967388953277436 0.40567225633211423 -1.3084223145935339 0.24933889971328668
Ni 8.287748635552951 6.10648104589235 11.377793598219828 -1.1556895308417707 -0.6827991247919466 0.05901864462605319
P 3.793330498190062 1.1333711781439282 10.868834219639105 1.4995372976679207 -1.1959980006528306 -0.8521147526030551
P 7.990550834691493 0.9309536424452648 9.148259470543762 0.7798029904125215 -0.04208458787487591 0.765195782022308
P 5.607205259081552 8.008657095648715 7.315128568057471 -1.6713103858805864 0.05361829954608831 -0.5582055224785613
Ni 0.5032567781961218 2.0674817155558856 0.155244898497238 -0.8024973466862437 -0.04422143171222062 1.0063485463803765
Ni 3.83675615802259 3.6486180658360596 2.968576087207174 0.29438231310617047 -0.36000509331230257 0.14230438932958717
Ni 8.977888089565129 1.8522989446866711 7.328170949239633 1.6928955682505296 0.7836233925998762 1.490822286392426
Ni 5.806282359408483 4.077790594941726 1.1764517820149805 0.8735042740224248 0.3083847980328495 0.19297260510841605
Ni 2.9999128582617245 7.30098035593494 2.336718053411485 0.9006389254556877 0.5020256328528838 0.4847761017438167
Ni 8.68420508746019 2.9445662491218307 9.804925743186717 -0.6823826060798183 -0.399071463186145 -1.5768663105673875
Ni 1.4752335365719378 0.6120090566926087 10.319284880483725 -0.4268540326160519 0.43367388375136284 0.7799354022253278
Ni 5.108727873032679 8.221398779130894 3.368162820722374 -0.6459865839492875 -0.3178325737093107 0.20820562000808657
Ni 2.8462987162632696 8.2068440250112 11.533841485989118 1.3466271077980292 0.4854093644524414 -0.8561601263170223
Ni 8.186452686011226 5.135781728735615 2.547135197663829 -1.560847566541628 -0.5463722772890589 -0.24088742651182385
Ni 2.2606488148405193 7.2121651539359535 0.07874801078252845 1.1868867823801816 0.42757754104563783 1.1087758970093677
Ni 8.112302362374956 1.3948703702250547 11.630709523259247 0.37227105516384923 -0.2820281624161917 0.7554852396027634
Ni 1.852877096962548 5.970908925709354 6.9351650569471515 -0.44996722159474767 -1.0007057462723024 0.5746279297006426
Ni 8.182111955432024 8.338956408559188 10.532066025152988 1.0368384874391177 0.7468869564107912 0.2087218975228728
Ni 3.4912413455342794 4.420974444286026 5.388045167635115 -0.17583157455275525 -0.11920868385238825 -0.582592435963358
Ni 4.4182855773521865 4.548700212153551 12.030470620159235 -0.338233763073482 -0.046504828429758616 0.8729825971909997
Ni 0.4520499228919113 6.002624707700313 13.227189851400787 -0.1652885089295863 1.2970996904918628 1.3706291271395814
Ni 2.048136556864641 2.1093656359860753 2.037060811122486 -1.3251424555616922 0.18004227019999314 0.8243560944325481
Ni 4.1174628534911815 9.019716947873807 5.461260352907704 0.7460482625595797 -1.649703606244088 0.34014126450884
Ni 1.3856015797705212 4.499052532590158 3.700968377863671 0.9553327174541418 -0.1178611686855583 -0.4243742036169917
Ni 2.5942426780214647 1.848187639613769 12.372369686668252 -1.2915124262120725 -0.8464328717269294 2.1847347474887147
Ni 6.300997167154031 5.708005649529669 4.184005427338532 -0.6923068071720658 -0.8552728386160625 -1.6354324410370544
Ni 5.733361756485983 1.635675381637891 1.7223881282971418 1.1316178346045478 0.923403729956029 0.05325063179402442
Ni 8.56115042290094 5.205334365225626 4.795487723068675 0.06006199828890301 0.6676165035142373 0.8396407885057603
Ni 4.544010754804772 1.4141054046732753 3.813417160117669 0.021202345109228 0.9349482402605188 0.07106117761288408
P 4.08669230458618 5.702260834851909 3.5649208880316205 0.22887420410103163 0.8735649520570311 -0.19874010371981254
Ni 7.23917312453763 6.629286712629312 0.4554243132385767 1.3260353996896066 -0.2862745963973715 -0.5623794513505926
P 5.810109176853572 1.3879692509955406 5.614741428112506 1.4860441482774922 0.3620889724245248 -0.19509119411331563
Ni 7.811250213007652 0.39827533732118736 6.216459374294507 -1.5478979483594952 -0.7466923239014817 -1.6973682593099026
P 2.564041104372088 4.005411436214096 12.95956775140752 -0.9561071337263212 -0.5033682629237073 1.3520739898452132
P 4.2850077122321935 3.871601303919485 7.269488493238131 -0.6427814467484285 0.13318597196808676 2.3527409124597805
P 0.3099501882036576 7.342221884947491 4.223708887756843 0.7031059546700988 0.27742794464001896 1.1124564311847485
Ni 8.569061014358176 4.699240052367582 7.052556582308884 0.43035844622488467 -0.8449069220007062 1.4867902824148973
Ni 2.5218726963140856 2.388227750384012 4.508617740798831 -0.3889567433496463 -0.7280173731997978 -0.1639960153704079
Ni 0.722973914771856 8.997022176790578 12.714281601005624 -0.3595728908708904 -0.060075368025341705 -2.048044104801479
Ni 6.212594931066384 0.810579585501628 7.96595183190597 -1.1885117195781145 -0.02410434924737139 -0.38637124201065715
Ni 6.848736797915712 3.929875382519772 11.899594381239194 -0.6415995106251854 0.28405933391360755 -0.45105736933513285
Ni 7.673668325389464 2.92250469243599 5.712603336675928 -0.21652750961022063 -0.4970266369763956 -1.238180033337519
Ni 5.3937936531209765 8.381904863338612 11.38045309868886 -0.17114368215878267 0.37808534785278114 -0.872750940796168
Ni 6.357757037412735 7.631756873898518 9.25282335699723 -0.14589416356337456 -0.33425703781392113 0.4147263961145825
Ni 1.2785608155510348 3.723117116241906 5.8829288325533 -1.5067528415797535 -0.21487300472593318 1.4964064653484228
Ni 5.59634884412342 6.448251634117841 1.8941094489548451 -0.6529514453028948 -1.3286147303810085 2.054683721605184
Ni 7.055641896517611 6.402953862153901 7.085168041476439 0.6528444874113852 0.39327388266776137 0.2546927078260323
Ni 4.418606773061007 0.3304342151081771 13.357354871251298 -0.041409673295038356 -1.2420356596381836 -1.2418076027877774
Ni 6.186880920320241 8.607099763302772 1.3294216971917445 0.17360268522223649 0.12328645346618768 0.055289259490608006
Ni 0.30419344339956944 8.008207421656367 6.302756401936341 1.0093554515275003 -0.31474802124671597 -1.229767898014424
Ni 3.1306945738731695 4.759110932491718 9.078173649177108 -0.20982412944811607 -0.3487863417783477 -0.9423039092946417
Ni 3.9102824442817226 1.893329402233424 6.505262954731449 -0.1800453555237867 0.5847002263349801 -0.21830362767403694
Ni 6.186935982441754 1.6929858731117158 10.338867723999497 0.12424470361439892 -0.9457838974234422 -0.9814880356932709
Ni 4.938255544831275 6.939947202200475 13.236524716401137 -0.7257347478132081 0.12775683053271544 -1.160570513083156
Ni 3.6455162329908792 0.4423057627883233 1.9400321759979464 -0.08860689980613128 -0.8829849598193503 1.1324290176519336
Ni 3.559628500452284 5.249026158645463 1.2396979701878077 -0.021017739902247673 0.206406876236451 -0.9823290435373276
Ni 4.183115256374086 6.357701975291222 10.38350107969719 -0.061912421234080466 0.4937325396061561 0.3471164102750925
Ni 9.074292687312532 0.46521802925152556 3.7482878473891286 -0.5229320439882478 0.07920103311119908 -0.3088152007020488
Ni 0.9028095567363895 6.379167025660681 2.4886014093904105 0.09782764707345087 1.4413884572413305 -1.2935235431048302
Ni 3.918495877407275 2.774754666378571 0.7193994653836967 -0.8156701366227759 0.20430242829893847 0.32640386031808943
Ni 4.468759188738261 6.495706005841002 5.9499247512011 -0.545960386562621 0.40548867956639845 0.6391232811705508
P 5.9638885052165636 5.994383743514004 11.323974045249868 1.7309921180119352 0.45477158496192643 0.8683175876151626
Ni 5.276281908793943 2.169777960305081 12.400629402832303 0.6251195106922912 0.241389562959223 -0.39444373460614646
P 7.1968762381961 2.4754461508591485 0.24273126796373376 0.5787478654062871 0.05565641302203963 -0.4876935325009279
Ni 0.4218969874498703 8.532261163147602 8.625156468350635 0.6693717956424472 1.4536760163594318 -0.1087653770318772
P 1.7260415000594687 0.06706291089563958 1.1241060584974951 -0.5150860655812677 -0.10997250996610092 0.3248542564427825
P 0.3730348608200493 2.642541335607812 4.126840850486714 -0.3911612072001328 -0.10753998926520833 0.4236159852947285
P 0.9985056885203366 7.145585872007595 11.380709137553893 -0.4908457049766643 1.8586772147664505 -0.7183011743532984
Ni 6.274007550592858 7.550824732296011 5.2810493708148645 1.8779707728887398 3.4280474740671094 -0.408657049992051
