# total energy = -381171.8164847261 ev
CRYSTAL
PRIMVEC
9.20868977650194 0.00000000000000 0.00000000000000
0.00000000000000 9.20868977650194 0.00000000000000
0.00000000000000 0.00000000000000 13.47784831653390
PRIMCOORD
 96 1
Ni 7.254799301780951 6.795718483179154 2.778782039965758 0.12484968418824949 0.8473134745596697 0.008044981791663564
Ni 5.304905254585449 3.104737432733264 7.919529504554155 -0.8203675420984453 0.4933126784599181 -0.30845293226662357
Ni 9.317812895958669 5.924051521383671 1.3663172660838239 -0.8975985959674672 -0.204171559148029 0.016356844091468606
Ni 0.20059841775006698 1.7792109795208524 12.239476968729385 2.398930780752281 -0.272773219476827 0.7696543320142938
Ni 0.44528712197002623 0.674290664648565 6.8458975554244175 -1.6383575851036496 -0.3739163040767561 3.4105624299084685
Ni 3.531293158536201 3.832223936445015 2.3567229174509534 1.3596386895663488 1.176962067067302 1.8443209460447785
Ni 5.882262486524888 0.3870633382103011 0.5827470781498496 -0.6582600020000018 -0.584902057933141 0.797877074305413
Ni 9.29193647728234 7.701798319207181 6.843377136993203 -1.5986394405784208 -1.2868651572480483 0.08836907276371232
Ni 5.229283492959109 5.923406913089242 2.6190020611568645 -0.4640337269901428 -1.2448355909808237 0.39009317094693463
Ni 8.099715019357667 0.19830361222190282 10.602821113521314 1.137982086259679 1.5179443394201988 -0.10454388275136191
Ni 0.8396640017151106 0.9606781585660882 1.0432349845714832 -1.7800680496029795 -0.38004607112357774 -0.7337180231290009
Ni 6.952588515973201 3.4437553521528605 5.631422377438099 1.0846072701829643 -0.3831128829743595 -0.06245723799395695
Ni 1.0938266061251793 4.386384478474961 2.9065793178121035 -0.25233449200650093 -1.730980033827077 0.5209664356214446
Ni 4.7699816657992224 6.036019982125838 11.706656644720978 -0.14944768524258778 0.35225475994292244 0.9952120701475828
Ni 4.027577084416421 0.3686588505353859 4.679009938944564 -0.8645321524308015 -0.1263740912525759 2.6331989021753746
Ni 5.700888129852651 3.026095220813032 10.406624449553199 -0.8851770823746626 -0.8519082930192037 -1.2746570452176307
Ni 2.185139239902089 4.751260399191046 0.8193422647987676 0.04536737239120574 1.195343140677651 -0.006747860246794831
Ni 2.2513681378096195 6.383767739589976 2.862708198162317 1.0376406716254387 0.23772728361628737 -0.5091750994134715
Ni 5.769796756527019 7.543390435196426 4.728716605396909 -0.6679255501142238 -1.1049773491988841 0.3068267095171103
Ni 1.6300486201901825 4.493490750939156 8.275600996837344 -0.4853939378334738 -1.4393809398929986 0.7782338461531887
Ni 2.336456432674133 2.9727216540343826 4.7438796342198435 1.2395501742121686 0.47534889489264587 -1.8834487652841758
Ni 2.9024685586316368 1.965825080757797 8.487971803781651 -1.2331566119809987 0.3255613098121361 -0.6515856753036198
Ni 3.8434861642176665 6.953251541647471 1.1364416604698233 0.998919343795841 -0.6697214656723821 -1.3651884157399843
Ni 7.912318179477488 4.821697668392201 3.514928395678655 -0.6273427435958551 -1.839619169693735 -0.9786541657889017
P 6.257424513882062 0.24654517610791232 11.890009948857108 -0.5494588866341826 -0.5899434770117905 -0.5779798768920111
Ni 1.8868973994500324 6.6806835286934945 8.102868995655404 0.3556025933692327 1.9111032937766506 2.8254631683628566
P 8.897822966068981 7.345118132520253 13.192185927038356 -0.12689422542210405 -0.4919402235924238 0.5913352151529945
Ni 1.2510926125858033 3.2010511206107477 10.660101927433189 0.7495889287229864 1.085848084568601 -0.7898840287976074
P 6.81209153385763 0.5252167087411307 3.240048080685666 0.6955718510765828 0.05523912297896293 0.4549412777705713
P 8.31243575651895 4.983779819681194 10.502088175351028 0.6027064331044135 0.09718898504818746 -1.0503280372851203
P 3.63185205246699 7.60969300262332 4.033233061765532 -0.37782129555811705 -1.3609836336300174 0.021267394019208533
Ni 5.224633104549305 0.5798951468815012 7.945852544691624 -1.0260167142332652 -1.0477739034046987 -1.0499102330214112
Ni 5.624253412335067 3.921078585486973 12.38261131963816 -0.4286707741098166 0.642462372846113 0.1856382762305319
Ni 1.6882659578669632 7.5740461639414445 0.8345264736085184 -1.2739538485030188 0.3043018862127276 -1.2306623848042355
Ni 8.068506769217425 0.17703061763678238 13.193533158373711 0.0421645491831919 -1.398315023090624 -0.1758025210870327
Ni 7.424672004742605 3.7075751096824545 8.620471959570347 0.5091470743890135 1.2434577367966908 0.06468304200068214
Ni 7.71807007429653 6.125546865531986 5.342821114463712 -0.024273784945700132 0.6544246874143117 0.5696675003715738
Ni 3.269968955975036 0.0719631491209648 1.047580565344921 1.2485657474472174 -0.672782621096209 0.6984558574925971
Ni 6.211758620566788 8.418381734053176 9.89814545561139 -1.2462787511852536 -0.44933190200359385 -0.7743715349843051
Ni 5.092672577989946 8.630301315191383 2.6695706609857597 -0.04678405023307427 -1.1497299708242263 -0.9674089318923856
Ni 2.5181807195633445 8.885750373583333 7.270692579714573 0.7356862025989652 0.6572518724504617 0.7446148725471627
Ni 2.6613205956860715 2.2305196638298295 1.0255211486405982 0.7749888568533299 1.6898105015673026 -1.544629562020869
Ni 3.1141395051419942 7.4675384563220755 10.508571093054991 -1.0116691872623416 1.5825564189736292 -0.4340675196453557
Ni 4.137086824949841 0.5350460643621677 10.031737762024644 0.5966638264547596 0.16032807960051743 1.0315371298308624
Ni 3.67745348495282 5.359383864154546 4.504270443359978 0.03194415700676435 -0.4135449742119716 -0.6649078463338226
Ni 8.592748277695984 8.357143946082502 1.8049934695599938 -0.50700483123503 0.27090299903730763 0.04719054164287356
Ni 1.8348867187796023 0.8805625562585916 10.359856276054453 -0.4081266314098778 -0.6076871741484566 0.9713100667190047
Ni 3.3769739328501056 4.461656309884326 6.659000747406916 0.2098693808637547 -1.3122013220199917 0.5939968211455576
Ni 1.7548355773015487 8.206637118023453 5.132001050901999 0.3517991604627425 -0.4417276072937747 0.16819205572962645
Ni 5.319850958326261 2.61729384917663 0.8665073328330822 -0.8304403529534149 1.2222507637017725 1.3639157196751477
Ni 7.580096273219149 5.109809949931814 12.492011476761526 0.09021281084067044 0.2875177247758532 -0.43506665033383135
Ni 7.497475907253302 1.8970822105019969 1.6497018062183042 0.15744561584639982 -0.36982439339556955 -0.5927652627313017
Ni 5.830371518823423 3.3193459513282306 3.1643425199810493 1.6408610682517935 0.9526842240877011 -1.1873107572914778
Ni 4.1068915307008425 1.5725403516372725 2.879502085970154 -0.36913739463087397 1.025566514069724 -1.3071318779168841
Ni 7.95933775021106 8.439460425280975 4.601944254738704 1.5248369527749739 0.3995797702811312 -0.328842294556253
Ni 6.233233285461165 5.866423539861796 9.902754404916552 -0.19009399800904037 -1.018681871134749 -0.38210192521134195
P 8.891303213605335 3.2262092614732856 0.5704700527479698 0.6221627420568123 0.5074393476692874 -0.40373750120324664
Ni 8.088627756693503 2.7098688089464305 10.691720885143882 -0.45733497481372853 1.2479265712013219 -0.8872257373735751
P 8.446633994728968 2.56597382025023 6.913071264917781 -1.8453421882204415 0.8847623634347473 -0.07067911168311698
Ni 4.497118974767794 1.5428883700935783 12.474611657156926 -0.3689553605270549 0.7985059661386636 -1.1313512112067226
P 0.7790054403404313 8.84171441838397 8.911432488902342 0.48091250502335237 -0.36101476552373957 -0.1289778474240101
P 4.987297539230788 5.5094210490276545 7.9277381307492005 -0.8074325792043321 0.17950439541865215 1.4208617980428886
P 3.430384334388437 3.161582675611905 10.105151279808073 0.5866393523392218 0.12216648092913154 1.2800504483190598
Ni 8.692404720014574 6.967000115698631 9.231423413208404 0.148774313324647 0.06567625915188689 0.09865425673980428
Ni 0.30258834209448626 6.5112896776077 3.9779873683260645 -0.1989185382792058 0.47954339258996764 0.009080107924397264
Ni 7.594296073076408 7.180779852200761 11.385897715675554 0.08280726240521867 -0.2374989696555652 0.4751455206325881
Ni 4.189042253480748 7.732905273758298 8.595538510741866 1.1386536584054068 -1.066445254561957 -0.5327588002706825
Ni 0.6258013870036967 8.096851116792422 11.3437928227525 1.7468753649010946 -0.34151037694222475 0.6222609581975735
Ni 8.676225051824428 5.169869025592676 7.221066949733526 1.0152458488700065 -0.3313429494909197 0.2824235980823975
Ni 0.18333949110124975 4.065277460950546 5.116825129913177 -0.4582220054043722 0.22181601170266957 -0.007694797541096425
Ni 2.9908259384178923 3.8433204077990992 12.298186050447914 0.7511130786769968 -0.4732102512830882 -1.2550035326527613
Ni 1.4367582187609462 8.776765528375376 2.9100160008903977 0.4056856260685529 0.08024027300899084 0.5799647685325238
Ni 7.262645105593133 2.403679869093067 12.761757026254898 -0.9690981466693503 -0.20668275560565694 0.6828754865558369
Ni 6.8643876839155915 6.579231391840426 7.7066881335549136 0.14801198123732573 1.7260553428319498 -0.5013291210064914
Ni 3.4942097642267425 5.346841628482959 9.668429160333012 1.3470659951076607 -0.9045835119257324 -0.6787398671209084
Ni 0.7376142208862086 1.1562154803359024 4.91677278747539 0.6048491904790293 0.8668034649634814 -4.037581728726634
Ni 1.5948622160043269 6.022059608206509 6.120021651579744 -1.165776739874444 -1.9357424324815697 -2.7724066548575093
Ni 1.3095493762005144 5.754869470166048 10.378011208232525 -1.5261567000276621 -0.23625661260803182 -0.14760780382037159
Ni 5.685546452445262 5.326729849696802 6.00568932013501 -0.6723689305975581 -0.5716781030436994 -1.362970582153059
Ni 4.236163119803445 8.338671314102177 12.35946988186819 0.12363175262074838 0.05643957104496731 0.3738152597225175
Ni 2.4169864260280476 6.331296624423525 12.265906829669929 0.29512690458167884 -0.014304075327497947 2.0011564391110053
Ni 8.157785017995721 2.2672623366122333 3.783986976903966 0.04965005892695965 0.307220088300787 1.0518930677793947
Ni 7.035650899055226 1.3880995012215427 8.834567554136747 0.7208517086892939 0.12170882456642267 0.0301289581748965
Ni 6.292555665928395 7.267976937057045 13.397398819307536 0.23940595687029093 -0.34290468618659015 0.7084402223988185
Ni 0.7180236539495457 4.619981315685796 12.564157878811907 -1.0001246769578518 -0.54633036830753 -0.2727426233492077
Ni 3.712409671890666 6.814412123717571 6.434203734284017 1.0202073066403399 1.1186779866144283 -0.39452755256920435
Ni 0.15304658473909563 2.0950782524805582 8.834918405222714 0.8519599721927457 -0.8735934913021213 -0.03678605848009794
Ni 6.214410723263865 0.5035348483235444 5.635183206401592 0.33288946804243313 1.2397440353905294 0.275622516000164
P 7.463781310834552 8.958416145745224 7.335157092633354 -0.966572037813387 -0.45963251259865356 -0.5262233131450098
Ni 7.2355070963977095 4.612807746237803 1.1694456051445437 -0.9810648321129233 -0.7323548242328871 1.340372128027253
P 4.373262095338388 4.6648276355981535 0.3457780186901633 -0.6290442996679941 1.3206970181958289 1.7028848182527576
Ni 1.224332159677115 2.842455526420377 6.678031425996418 2.482169217157648 0.25854370614100636 1.3139000498786535
P 3.9797747750396146 1.8052071111661472 6.699946266268991 -0.11738782859356559 -0.27529778567089364 -1.8355853659439938
P 1.619431000711959 1.7365931625692326 2.926701226157174 0.7705513899072665 0.9157361861084422 0.7616134639876883
P 2.4382492910542557 0.6387847189224714 12.67960906608197 -0.8354933419962901 0.20159120001536246 -1.0692282166237328
Ni 4.797073631545045 2.7584906917261525 4.957233929247651 -1.2718293459608485 0.1433953084009208 1.5218876403386628
