# total energy = -340861.1184645365 ev
CRYSTAL
PRIMVEC
9.38671337281759 0.00000000000000 0.00000000000000

0.00000000000000 9.38671337281759 0.00000000000000

0.00000000000000 0.00000000000000 13.73840384464925

PRIMCOORD
 96 1
Ni 4.819645373131645 7.081054739332675 4.633963047189952 1.2847835921286712 -1.2498343297469958 -0.6916203226280024
Ni 2.8171872604189176 0.8083217773639598 5.469780384481338 0.4098724104563909 -0.04193057879551488 -0.10093765345734228
Ni 7.266282748361734 5.415373118179497 7.433066804877685 -0.45791064481154037 -0.6999540393046784 -2.307149854093543
Ni 1.632424496742801 4.546332448644789 4.746865493336033 -0.1775534423398684 -0.152623254757092 0.4678207048364007
Ni 1.625825637453923 4.686654422342423 0.03743796641217763 1.455981524564157 0.8898588041210481 0.43754982176700125
Ni 0.6336772873223965 6.796843840970445 3.3373744933569913 -0.44333994608621713 0.2600855967068295 1.3641710302190633
Ni 3.2179154281308513 2.1110999297959046 7.525883562394546 -0.5222581578496747 0.6902728074611725 0.7038500319249749
Ni 7.0340179201341435 9.113972735960635 4.5986286431769745 -0.774055546405783 0.4973143434201435 -0.001050809862017545
Ni 6.017549535107092 8.925281029808396 11.968581066708202 2.0412821034872977 2.156531031360989 -0.0469030923094418
Ni 4.738741293173126 2.8053693886625917 9.416906372214182 0.0867680468251796 -1.65553383977262 -0.4749051224870079
Ni 1.9423080553540788 2.844446275176957 10.814664919525843 0.06312521059525902 0.12696878741378131 -1.1761953641046063
Ni 0.21552456413685833 0.641386594767568 7.964166091760736 -0.8712301332762672 0.17425651675615147 -0.13383414707504693
Ni 1.0942279161068025 8.24703469015382 5.938040320710916 -1.4429102932024955 0.14976521648300656 -0.058771818722569744
Ni 3.36263038354569 8.552863188718447 1.3934040511180474 -0.8926026854147724 -2.187286053155659 1.3906500503461985
Ni 7.319542958326306 4.1779602808884215 1.29642710236814 -1.0596032919394591 -0.9334413166976891 -0.22882792424412848
Ni 7.885993545305864 8.40827026057353 13.594384176050756 -0.4844523998558109 -1.2836379085600023 0.016333447052700904
Ni 4.348864165771211 6.80487886735918 10.36176446189426 -0.4299586396833047 -0.23015667035788104 0.473081696125024
Ni 0.5833363451228908 7.944913943252219 0.7153172855856785 1.261487597715208 0.41992413826543806 0.36313386874927134
Ni 3.721615838231108 0.7246711451608804 -0.03761537528921859 0.12119640370637835 1.5665777841571857 -0.38926064774331026
Ni 4.932389183826827 2.1743757626071796 12.315379751813605 -2.354476149983332 1.344827078474813 1.7149582044775238
Ni 3.5645761285541115 6.461325168962403 8.080708705235732 -0.7602214687361681 -0.06820930998638576 0.1987997533131544
Ni 2.3044005120659814 9.085484061790302 7.757856463845631 2.0224778262966003 0.512787242244762 0.01782571532751124
Ni 6.637739054417841 4.369918563189351 12.544563860811312 -1.0249188531833964 -1.1803494954822962 -0.07345461754572512
Ni 5.076099760943075 8.391496204315743 8.224110459491946 -1.5199909375365823 -0.285078004986109 -0.9461919314951382
P 2.893210249580543 4.111896594295074 8.994724871778592 0.01483012303429704 -0.484190661553992 -0.46827116211025804
P 8.205949047042271 3.439629590866694 7.424631904512128 0.7377045185805747 -1.3472757971256217 0.019067301044096197
P 3.808245813162907 5.057917697724645 4.240894437343914 0.19958085445355306 0.37125186987071546 -1.4900596971947886
P 8.917180296428166 3.642833155426623 10.926180009480037 0.16249834777895886 0.020480122231222794 -0.6480537508909613
P 4.047851051011981 8.63341057358027 12.166510237193565 -2.3292189180784404 -2.158872277899656 0.5885995613893863
P 3.701321764571714 0.39569313482067575 3.233759261123308 0.15434512254420515 -0.3444725448943422 0.5970209526838621
P 6.572445078296311 5.82962753942667 4.9058604553457075 -1.4740018724009776 -0.2848273224278836 -0.7107048500632792
P 8.329243523229202 9.05267749960733 6.332758176043519 2.310596417881247 -1.6186423660629092 -1.3828943176601796
Ni 2.0940161120067753 2.598833540962475 1.4668353688007834 -0.4947962049839801 -1.1999163618706303 -2.5763520683896597
Ni 7.039828295525062 0.8304518921000319 7.311344603130138 1.043775837988899 0.8635139955789322 2.3941963513910896
Ni 2.008005660137659 1.703847996499661 3.3575146249220222 -0.780229793537295 -0.32570863402327777 2.065545604020352
Ni 0.5320313874909985 7.746957551298951 11.85448369198819 -0.22903052717323782 0.8422918529753624 -0.20561780467625237
Ni 8.818938957427601 5.27334276270295 8.972152642856878 1.0891146711350146 0.10082786735235538 2.189343192795004
Ni 4.020000673330472 0.4617023784782115 10.44510157788077 0.5241160369940199 0.20868307386513738 -1.8952167044533812
Ni 4.161204998056775 3.4900174666315547 1.6726371755387515 2.228971348709587 -0.02630624199469663 -0.36137626262821637
Ni 2.660091230463496 6.515683624356275 12.74628432470603 0.08109259370695711 1.0974424742744198 -1.3730907013061964
Ni 0.34966163259204325 5.447231622342302 12.104797292108604 -0.7438571684455318 -0.6705393335879871 -0.16638045644218444
Ni 2.820303649158473 7.958975239432502 4.397085588159296 -1.7069353341730473 0.5063733682986182 -1.6220267091541096
Ni 5.456073906055137 8.601279854738408 2.681915338353455 -0.1480186661055451 -0.7787948608629813 1.3351227067028553
Ni 7.959585375782114 2.0514849150823 3.1098114697066395 -2.8346525481716087 -0.5055974093645422 -1.3257134975738136
Ni 6.01871348752789 3.0242393773379366 7.145563047570166 0.08887018076984694 0.8338064412121704 1.5694484208367616
Ni 7.486495037006225 2.3412621342956026 5.342383914682403 2.173691602300676 -0.8536579287204588 1.5375068349331584
Ni 6.471753807184229 7.611798269790339 10.100776291669563 0.9352390320280602 0.28609127674197177 -0.7317354454813333
Ni 6.622495032390617 1.9843417564857937 11.185615617362801 1.7771094811952877 -0.6130471529087893 -0.762084747197152
Ni 5.450836120161547 6.764027892074404 12.621814632042618 -0.44071407842759586 -1.5215788508489925 -0.6521094090175737
Ni 8.168270780775478 7.674754954357201 8.046211596028684 -0.6073596156057088 0.23699580476690152 0.1252947421454681
Ni 2.2748135924663466 7.791563211812106 9.689736819649191 1.7954203636893338 3.4719760571292597 1.9928900853371552
Ni 6.073128263200188 0.25733580016879165 0.8039165929197629 -0.8117466331986537 0.41664675306574694 -1.0637491957870324
Ni 8.562813104573655 4.590816081888022 3.5252739609260435 -1.0210822530461252 1.1851291762591267 0.40753347791056915
Ni 8.52264735934306 9.431957027952144 10.032152848421768 -0.34917277858348894 -0.783588939817515 0.030838582647411406
Ni 6.09418266061833 3.8642469433441957 4.54298796277761 -1.5312351429918338 1.3633166526385683 -0.5223136936779585
Ni 8.229096681475234 6.31587804992803 1.8584349580512176 -0.4254599804820028 1.3358757828187962 -0.6573596016729195
P 6.2517104793750145 2.1462437835335417 1.8432951285390822 -1.187159062204962 1.1600331525224472 -0.5702143740139792
P 8.356324190438894 8.476136196076501 3.0781988974262933 0.9278609943964344 -0.9681992890041649 -1.607556797672709
P 5.8184479641591675 0.6474006618321256 9.166510169018743 1.2225274144019267 2.4509485685804693 1.5966710039981404
P 4.423169386440852 2.731214355402085 5.849482314914344 -0.9698221693195685 -0.20081138442654448 -0.9471915764042461
P 1.4683635256887342 0.7637874558701438 0.2741117337691938 0.6591354626264196 -0.3319415023068671 -0.5706388631459075
P 8.18025761336708 0.44407131531704586 12.048469504312445 0.18973532911804097 1.0128935465877458 0.7889345204001446
P 1.8771454932155427 6.222686762559637 6.281980751686215 2.6427536357433454 0.22329028225535094 -2.0803762412752818
P 9.586556192230693 7.623240673023828 9.69427060206246 -2.011540096338174 -0.3288577211752207 2.889298774761579
Ni 2.6402383323184364 2.8649468565239125 12.928002641717862 1.25924405309667 0.10313877487371914 0.3631762919514326
Ni 7.883543613194346 2.133750068436107 9.400076934349274 -0.020999227959486416 1.3477036286916595 -2.341562784355774
Ni 3.962638469753895 5.905021618812541 0.8686595689840274 0.10167016074799264 0.2631966315319854 0.6212080914530269
Ni 0.013052224525156203 0.4501463960165647 4.393143168669497 0.6830950587658106 0.41160327710456857 0.37790922728623305
Ni 0.2484127907235464 3.888643010615595 1.4527675019213504 -2.222340473656631 -0.6423546436236551 0.943278100282453
Ni 7.394355061501778 1.9713693190217405 13.591443318845627 0.10215429947326278 0.3185691947650191 0.09541029588120986
Ni 2.2277016795632476 0.5505372923103767 11.849551912940713 -1.6836077151907003 -0.2211218138491224 0.36486139296333936
Ni 3.9919062411091177 4.953809663054735 6.391764931750127 -0.08220742403769067 -1.352241111550697 -0.6734333673063305
Ni 5.755669627140654 5.873444716041866 2.5189638767843743 0.35205421389634206 -0.12246755710931811 0.6513514478056266
Ni 4.079700168461715 4.405390951884473 10.874578431715104 0.10872989580825144 0.7505080981031461 1.3897648195277676
Ni 0.6113707023805905 3.132562046176701 8.861916023222946 0.6718621661644687 0.004999510097120422 -0.9583699616185688
Ni -0.024769658451623294 0.8733745149595656 1.7730092984064216 -0.048961260390051164 -0.7336465464611172 -0.3751265223347733
Ni 1.9315602688878406 5.7191553132946575 10.238242827251014 -0.20638887851432197 -2.0509738768537646 0.3433150342511313
Ni 7.63641023146237 5.851686315143403 11.033257061494288 1.0132748411865646 1.1901657102417695 0.7179111380037313
Ni 6.478446533603816 4.308585779983764 9.91539058586091 -0.1515927566100486 -0.20213344567207772 -0.8180440361715913
Ni 0.907855666754394 2.0499454941386643 6.190442464489616 -0.5159800381504468 1.1620229292589663 -0.5680037395159057
Ni 0.21275923846615638 2.2337842696332233 12.605246144801082 0.0832806024972114 0.042745104277010254 0.18950855781921555
Ni 6.478362053186177 7.476742242125508 6.324982222935545 -0.497059289986544 0.8421288450349368 0.7934308656086012
Ni 8.38988168966754 6.461043567570274 5.186027557716972 3.008667124120283 1.4485296962718022 0.4944815019570387
Ni 5.497450537271886 1.7078842831201693 4.16714584875938 -1.0215563644690664 -1.3697392683354606 -1.8918524159668388
Ni 1.0473882178827612 6.860767356983617 8.07980194875308 0.6313906884129836 -1.056589701924116 -1.8660290271458315
Ni 0.3484676426894184 5.012270112060613 6.778046948045868 -1.9403459926918518 -2.195276527560303 0.17658619333059267
Ni 5.1806208109881045 0.6252405096142266 6.274493909340825 -0.24901134117053889 1.8002663789277251 -0.32417008589156426
Ni 2.2754049553898166 4.6140763568778365 2.4990293142355973 0.26164908453920743 1.0918940336523646 0.8101384081712694
P 4.0415901133936565 8.405125711694764 6.143470413611275 -1.3838019170761136 -1.6937082939598123 1.0076983755400517
P 0.12541399599835096 2.8471402618283195 4.015515701825172 3.7869688473969294 -0.2627844836952313 2.340697093921369
P 4.411633116076654 4.429111175814763 13.066059601551476 -0.06992500712591183 -0.7221542295508014 0.22529599983147006
P 5.742856763798806 6.3311502320944655 8.380783148687868 -1.051279345454796 -0.012124808287992022 1.5502296818164658
P 5.993988885299007 7.39891700405426 0.8045961909460997 -0.3439778646461108 -0.04811665300156874 1.8765906047117618
P 1.9290634032109681 6.626634572854907 1.7499977713129873 1.7279859841957594 0.13787437858269158 -1.6544999991914666
P 7.881628723727872 5.88771251990971 13.428313509728198 0.7448935801298462 0.15525015085697777 -0.1257688535684092
P 1.591338853631252 0.8747872152767437 9.677275958047503 0.5576859025296653 0.15266053575293065 0.00872195325403014
