# total energy = -340875.4207532021 ev
CRYSTAL
PRIMVEC
9.15873265589739 0.00000000000000 0.00000000000000

0.00000000000000 9.15873265589739 0.00000000000000

0.00000000000000 0.00000000000000 13.40473102078837

PRIMCOORD
 96 1
Ni 8.420859139704946 3.4237997806661267 10.299270280616158 -2.3346102642973405 -1.067423045094194 -2.2046643965331065
Ni 0.926405783966409 3.5339884903734906 3.655992880771859 0.42401656316725683 1.0498384992432115 0.5681595483674795
Ni 0.33190238818171325 5.938366400647476 11.221917320798681 1.3860171795598775 0.2770908730155744 -0.3461609883403587
Ni 0.5990836778663725 6.8052312651718125 8.720755421582664 -0.20042803294519676 0.40759621282770453 0.6275157788386097
Ni 7.806051750025291 -0.04166124201785864 12.600581311510137 -0.7590850411388799 1.1632809700357838 -0.8611655499514136
Ni 1.0904020466228848 3.714094963351241 11.284665628333142 3.1810377367076312 -0.05342675236057251 0.710788153805705
Ni 7.0183183335827115 0.23436463556177195 2.6086277177758466 1.029994982154723 -0.6322630637156079 0.02373256773024945
Ni 7.483270543457539 5.670583382243027 10.231026733631575 -0.5365300943876566 1.9038455837729729 -0.30778598810658603
Ni 1.2121307591755048 0.171782101084057 9.148661474704493 -2.0365633578553894 0.4199804454246703 -0.6428421247830348
Ni 5.4736248416182365 8.72771331059976 12.388813100567267 -0.11788713682748729 -0.7645488924669285 -0.46026911774138796
Ni 3.5850209474002908 0.03422435129536013 11.243807607148245 -0.770158525344222 0.6412974060037342 0.19169656660946985
Ni 7.638272930880647 5.365194608534912 7.643538286147106 0.9532699213878422 0.910905083268386 -0.6827993819022627
Ni 0.024385125059916597 5.90663139282302 4.3760148725832755 -0.3244907024557766 -0.12653992740647882 1.4406186689548415
Ni 5.593219569517726 2.6251491551826382 7.21615519664628 -1.6069361333695744 0.8946618819366462 -0.9793401361123327
Ni 2.6650354348581073 3.7567197040193543 12.991275434822223 0.30061003918343715 -0.1515801582045583 0.644539824200432
Ni 8.076060340407038 6.59835381733955 13.163405567738119 -0.3798604374753329 -0.6850835499507493 -0.1008893167179101
Ni 7.477125034005819 4.799404754750346 1.2835404799565993 0.7439098760603381 2.412666128060503 0.12012682479128345
Ni 0.7234592640874682 8.049234413158025 12.23357258610132 0.7488726193822522 0.5419085850907506 -0.6138369957999364
Ni 2.954176617258696 0.3908223455659219 3.449211599629974 -0.012408143856365728 -1.6768693680256024 -0.012021449940908329
Ni 2.308733267644611 1.2294224459785557 7.223661693735147 -1.4876454313263412 1.2722911160886154 1.8150767044676805
Ni 5.621346036769935 1.4118094433281065 4.327636616210884 1.5503710924903364 2.2139535351445163 0.48990699521247894
Ni 2.501973362908153 2.0005968742114337 9.842704722015458 0.09935899611631276 -0.5338327500611516 -0.6587953056781816
Ni 8.732759772161456 7.800355018461998 6.977805596609928 0.6157666087224815 -1.222108324586637 -1.6821064480548253
Ni 1.577866420778378 8.640723670104329 5.614987128852901 -1.156917232601285 -0.43222686689219114 -0.10709827374209943
P 7.305206467808751 2.0186945294671688 5.931311429066761 -0.5423207329275047 -0.2716699591103192 -0.15338944349915518
P 2.239410821981321 8.098453441166285 7.653618387045113 0.19154255753010885 -0.9483246615674248 -0.1089623235340317
P 5.602781286160939 7.215478366320673 10.694173757347036 -0.07120978737560639 -0.7104197147226927 0.013968803475266266
P 8.715504720288072 8.032144218468146 3.2912500257629747 0.24228790640377623 -0.08410901193577773 0.4857749753219763
P 4.518396526735938 1.665359791556738 2.501148161117393 1.3101639798749887 -0.963273055347141 -1.1643109539621948
P 4.327482749506281 0.9167433212666111 8.144419287420073 -0.9022708046321557 1.4387008831068384 -1.5231878472073253
P 8.733565740614141 8.337899341472935 10.423022157159664 0.5912606531613173 -1.0263095628833359 -0.2539689422861304
P 2.779144082039892 7.925619001727529 12.987655903771076 1.0817497461295111 -0.1981343518150136 -0.45104785625343613
Ni 4.183608221969669 6.0777897842294895 9.282508106117875 2.1133115585507216 0.608491415217307 0.09442324937759222
Ni 6.67894150387559 2.9811948778884627 2.0413129350438712 -1.3304697813118764 -2.298963204517692 2.8781671836247917
Ni 4.543967707643839 8.227646520638654 1.8444771214334663 1.0269759928227409 1.3607794880390112 -0.19487290745492247
Ni 5.859784476510731 5.754742974421647 12.478477090928425 -0.1174068547569591 1.436319013138223 -0.023996362914597384
Ni 3.1879807383965555 3.361117416005068 8.136416387034211 1.2408375255650244 -0.28001344597900807 -0.7291170340218798
Ni 1.7416703500540995 7.406447095944832 3.5466641760384388 -0.6918216400055311 -0.6581841544567438 0.7604466973730968
Ni 3.2629358044962204 1.3684886389963111 0.7241745610892257 -0.6693651107742279 -0.7943667471593092 -0.9461284252470544
Ni 6.824656936627993 6.729763310056803 2.7193238212591053 0.5685274732298595 0.8729998235821803 0.05202832935114911
Ni 0.782928745416689 1.1070984158188388 0.13024724957355116 1.0832199029171345 0.18029886629548947 -1.1146950907072803
Ni 3.2892580014623047 6.847910958234427 5.5811135570091075 -0.3255823928580586 0.4939150879306074 -0.6160404312091584
Ni 1.289549524295308 1.7607205134811892 2.282785662834376 0.5322108981870124 -0.4655769031075465 0.668575782103713
Ni 1.6994211174150777 3.64202489796289 6.135184812666289 0.8175262159949082 -1.0066843324532404 -0.8580120919240966
Ni 7.835707725591116 9.168990197176978 5.156250034796162 -0.1696097620127595 -0.9004314374305717 -1.3729472337497968
Ni 6.556855600758713 3.328255884093338 13.267413048937337 -0.2832041850021638 -0.9860319463102115 -1.3683894391757854
Ni 3.795305443691628 3.911685456512796 10.460381542561318 -0.6873507487183711 1.2832609848365577 -0.4010157313967094
Ni 6.20270573566318 3.9900750472687867 11.04957287354423 -0.6166770363518927 -0.771956240674593 -0.05101968558097666
Ni 5.423554051495207 2.246527157069229 9.64302786960934 -0.24579900488082831 0.11748784450653961 -0.6533975317013779
Ni 0.32648408208389296 1.256816214637414 11.25136814075837 0.3913532686062809 0.140520557956287 -0.6602497787365209
Ni 3.3564556212048813 3.411563714157188 1.9323322621422925 0.019832975565527135 1.2427936208501307 0.03101547454490787
Ni 3.2236173662305974 6.011746164771438 11.912837440355496 1.033519964588846 -0.005635343908906424 -0.7132980647117523
Ni 7.338800698313829 7.655857697121038 8.783905797470226 -0.6173671204403819 -0.2903001726169968 1.0799610296602047
Ni 5.777026170391892 1.0424286062233192 0.7849793856048263 0.08407301649151973 0.5784897266488941 -0.585733809805817
Ni 3.4867019549051905 6.175852332216917 1.286517983865324 -0.023370042184508135 -0.6145296509915869 -0.48727701378879945
Ni 0.8372033937190612 4.5201092096978925 8.608974008308007 -1.1239376923514706 -2.401353274150845 0.08720307748006917
P 0.4892832984134837 5.437530277163352 6.505784677055761 0.06896470009517154 1.1509430172957211 0.6607035784444879
P 8.445816685540917 1.7675346103993406 1.4708338102618674 -1.09725118419922 -0.07626097664626866 0.6545265030994986
P 6.282505771211369 4.399699354613301 8.93367671693682 -1.3206057440336032 -1.156771193941724 -0.48621437685224006
P 1.699402799950244 4.849796100507965 1.9756026934457953 0.1432335860120759 -0.017502527660137598 -0.2109415308820109
P 1.5106504835709686 1.520212200214181 4.90646667321059 -0.0908743556840693 1.038374721577986 -0.4194384568782712
P 2.302432059741804 5.393394345646454 9.88234280004243 -1.0502323922475203 0.11479487105540874 0.9929081046047545
P 7.672700606035662 4.412823818166676 3.5940230654928325 -0.12840860518410144 0.5068983875641528 -1.0500452159373788
P 6.482459217336477 1.707380055885338 11.581365512597376 0.8927147855126045 -1.2136000300053098 0.2831015979860286
Ni 1.4821668257545026 6.081398324801736 0.033245282799996716 -1.5073853329574296 -0.4464993176508052 0.6714201935310437
Ni 9.04707830997602 8.35170155122516 1.0286804329923556 -1.8661025606962445 -0.08596483419759389 2.018571292153343
Ni 5.628975260873188 8.468942484893514 4.506040480832338 -1.3408128151090972 -2.075312196488813 -0.04409570476763374
Ni 4.585841432253769 7.6761076544947375 7.2233805206499495 0.248715664306991 0.6623151459059818 1.3538655345279973
Ni 6.434815491303919 0.37964686027085703 7.308715178197653 0.22679341031260297 0.11628353978579328 -0.34915478086136
Ni 2.0341178348571782 8.387072575819111 1.5219056498380603 0.8992662134778772 0.37515891823460545 -1.0306225884363927
Ni 4.569987666440166 2.488336010339433 12.006282155458338 -0.905930255761614 -1.377930288786685 1.5458284674249765
Ni 0.3955253546619847 3.559843591986315 0.505145307086261 -0.4559861740953179 0.31451662196220026 0.31935106723636614
Ni 5.4855769874222515 9.003400315079967 9.426019031977537 -0.7167677684279075 -1.6010781319269005 1.7461996789903087
Ni 3.7077113268566824 0.4121860048015131 5.82092397486595 2.9168401747149573 -0.4490711921430395 -1.2396795007011812
Ni 5.720690807295724 6.251558414374766 4.998409356197066 0.023259227638256715 -0.03175415248314531 -0.7765664857530948
Ni -0.17300387598846745 0.9396584697736199 6.922846790996016 1.3077684830596188 1.2921469744722778 0.49672067570020256
Ni 8.200573307614386 2.0821187514539945 3.7800937050204486 -0.08284865716611538 -0.21084640006504332 0.46596256858173946
Ni 8.427499220707176 3.83038338884824 5.628110676533035 -0.48702941655436766 0.34076835656987764 -0.04146572334395439
Ni 5.828827960941709 3.9461864015271457 4.799148310242674 0.7409677627128788 -1.3169360084914996 -0.28333453993244107
Ni 5.19612440811949 5.237036465825649 6.991210317375259 0.1363620557032232 0.2958794664769872 1.8990005969758454
Ni 0.03879089527841156 6.174844871651061 2.1222907835808695 -0.038370115137766184 0.05536716391639497 -1.1110482379833122
Ni 2.3262630814905 7.685605260011032 10.063118776359854 0.8131381142295415 -2.0059476898520616 0.8633067646641326
Ni 5.0346010032155695 5.195281804737138 2.8589203048837972 0.6194718254882106 -0.7839496655910434 -0.4094723468044948
Ni 2.636963920000401 5.481766954736834 7.519464022222525 0.07181656772166986 1.8969360011373333 -1.1166745830311542
Ni 2.873662200581991 5.080706062202093 4.009609707640729 -0.30630014758967894 -0.7255272597880924 -0.1712321281075309
Ni 7.758362230330648 2.753920932963832 8.061605113033492 -0.8812340385665146 0.8199510233863169 -0.6775576738873492
Ni 7.574436565935064 0.8824896620275169 9.79518555474377 0.320434530108532 0.7660362756457323 -0.11282103515848957
Ni 3.5394287774291118 2.4223656607407182 4.2081069153115545 -1.2606807855431967 2.8343113627821057 2.170346597087843
P 4.024731690734224 3.83067646828558 5.993349018965672 -2.0261226221380397 -0.29318443614332734 -0.15733711529299355
P 0.47575493476052494 2.251610253560592 8.743691635174232 1.5636580394072297 -0.6340692636864111 0.6721249329075522
P 3.889759451106809 7.021743699506621 3.4408331912150216 0.6944289957213912 -0.1739580116791262 0.9325763975942325
P 4.6317907927892055 4.389807923603081 0.19356339851785742 -0.33129564119275207 0.05487942564669903 0.7448524424792656
P 6.4537465912095895 7.897364312221485 0.7499490658567814 0.9163738196924412 -0.25060105425516194 -0.08263679826562542
P 2.3661127262363015 1.7694579442068834 11.908065740766306 -0.03922423560794534 0.5601564755573449 1.832668963628147
P 8.266186466648843 4.2880269302544045 12.231307631574627 0.25468088075149037 1.809932955483212 0.9462538950813253
P 6.677237979646052 7.580545440457115 6.42079896721314 -0.14576200886088445 -0.9200908635327122 -0.19284302150908722
