# total energy = -340890.49332253815 ev
CRYSTAL
PRIMVEC
9.05991932279461 0.00000000000000 0.00000000000000

0.00000000000000 9.05991932279461 0.00000000000000

0.00000000000000 0.00000000000000 13.26010771959181

PRIMCOORD
 96 1
Ni 6.577600966914292 1.8537862983401092 11.508937613733512 0.10021157392459516 0.8995302657725411 -0.009780733535847673
Ni 4.364009039182846 0.40539514258812465 5.9629642734251815 0.7933321352472079 -0.7101790594667963 0.09760318976747061
Ni 2.609773132537152 1.6851359032371294 4.918611084371641 -0.04093119099672306 -1.9341141528495271 -1.2813586256075222
Ni 3.5352348144804395 3.912661986631664 4.696530722033619 -0.5001978356155257 1.205078365687544 1.0205268947632875
Ni 4.873729150860996 4.625795403217259 2.844492082098846 1.3920201912208476 -0.24581468861011216 -0.8499061749875105
Ni 7.240116615171102 6.017208727392417 2.5854291297629537 -1.0877632993134427 0.15180744372401597 -0.33915781754964813
Ni 4.949089558406877 4.647475789759372 11.610722181491981 0.4437479801579132 0.14615564475487733 -0.3220550964310905
Ni 5.666888833358201 7.993032136774006 12.33224508321673 -0.2751049529337972 -0.48220448436189856 0.8608935272369497
Ni 1.8840192485661982 6.564862720579897 0.3649072698685057 0.5600315199437065 0.3102390776327689 0.23194204439307797
Ni 2.7602040302158994 1.493237755577918 0.28008287077147853 -0.4269761600162131 0.08228198602936797 1.4690782098471151
Ni 0.2247666283679999 -0.015128253007948206 5.1259727020476 0.2096258973943809 0.9816520720749612 -0.32326222936531424
Ni 8.481307419808118 2.217369914019813 1.3263821304598913 0.9577413268956345 1.7354095303533401 1.5823712995460169
Ni 6.802178242971916 0.5603478459180078 4.84985807586678 0.0797777315502755 0.9541153001072729 -0.6413434287503214
Ni 0.9379281307029813 7.4693325698369835 2.615688353754597 -0.8069713232971973 0.22112592761418043 -0.3669090195209875
Ni 7.540552594328229 3.8599966765734517 4.007535648057362 1.8568877269661954 0.6826494865879598 -2.1628364047537265
Ni 7.756994062983087 3.972638651449377 12.50351198297218 0.1307809620710199 -0.9833867953778807 -0.5213456733377343
Ni 7.572352910568436 8.880215660280006 7.284878051756961 1.4674093067851246 -0.5736884486055087 -0.9391067425135826
Ni 6.979245302971521 0.5927896044345133 0.27654769031651305 -1.5064394241043926 0.21366587179170943 0.24772527536926364
Ni 1.7215930179239083 6.397462594320548 9.116840816832282 2.021964119884976 0.9262519980381014 -0.40482482073015447
Ni -0.028849500570852483 5.152113286790583 1.2186008022115646 0.34072464781613576 -1.135334878444819 0.16624958729127495
Ni 6.472632743564138 1.9599504310189553 6.9645138744226385 -0.5908911856370405 0.26550702483271693 0.3136920691783759
Ni 3.622653974423961 4.376828824789653 0.47094999963065115 -0.8019805549508253 0.5976171915069644 0.16750685673714377
Ni 6.098403722875248 5.69578091554909 4.892436071935861 -1.0590587322898986 -0.11143392500297583 -0.2813933570456702
Ni 5.081944212921521 2.521674478656874 9.528898623968283 0.15664934519734958 0.669319602248273 -0.3317458413562932
P 0.1706200215276583 5.803430874969645 12.36178857359499 -0.593461517467378 -1.9664799707747422 1.4997671542905395
P 4.131205356530889 6.34827629321853 12.801413902741164 -0.49238039645363585 -0.48918142990036395 -0.39885806162375825
P 2.51710827940187 8.610293488842828 1.4663959330922023 0.02839834863703496 -0.3239980790900743 -0.8259116118451261
P 6.262705356782987 7.808970819185387 5.820524224442692 -0.6097823661145885 -0.41230338849538667 -0.05970615761138104
P 4.8257931186026095 1.0904971693027226 12.628369446847158 -0.21680981673732985 0.15081088413870156 -0.11902125043193051
P 4.020058268315828 5.995763898748379 8.158227984702515 -1.1179624486046424 1.7300994309943365 0.1723058207876839
P 4.5722331611625275 1.0936137814926459 3.801805721821535 0.5564157775679901 0.23736784339433958 -0.3045618247423335
P 0.1269484932163559 5.614096684431794 3.519749600657715 0.66795768890374 -0.514400609478469 -0.3511514995764146
Ni 1.54484305509479 1.1927111772292236 2.6407634920047456 -1.1674852379251184 0.4449111472280789 0.26896258748148516
Ni 1.928150114778748 6.425702362332151 4.63557467995506 -0.5754913061422025 0.27583488912128623 0.2070779341615466
Ni 5.901622278790546 5.622558648924202 9.153691132010463 0.3691916449075771 0.14359636866813333 0.544446778131572
Ni 8.678632459042225 2.485516341302268 10.158660852489595 -0.04586410952196617 -0.10545533882203773 0.7693447711936751
Ni 2.2774552978674074 5.518487357570567 6.909523789108803 0.008821454946371904 -1.555698932461153 -0.01791056173183367
Ni 0.44124705467523245 9.014592381212985 9.15697897667245 0.9476795717842582 0.5453528348856092 0.13136203138547053
Ni 1.417668969891431 0.9916625112216906 11.479645989107807 -0.6836573590271838 1.7907550970031807 0.26552450833421365
Ni 4.195775400361077 6.810250630940584 1.8194990342913728 0.1718813316557556 0.3154329631288826 -1.0131372871674358
Ni 5.734040954148063 7.693230351957851 8.037110455455446 -1.3588786714718726 0.04985754695207542 0.43797868177430377
Ni 5.6188078423933066 2.9495835203495333 4.588435014590552 -1.4693126944554245 -1.046432815995772 1.5638572999022293
Ni 0.5264021408214811 7.442959145171672 7.020643697566393 1.0849618253089057 0.6153207794343144 -0.5026879490272311
Ni 4.969501556267044 4.58065888597831 6.923751486152569 0.09483334033181733 -0.2360414112734322 -0.28948564713550146
Ni 8.427727057915073 6.973782171719998 9.226117937733388 -2.2877835337517887 0.559120578093663 -0.34906710624356013
Ni 4.712689087849689 0.2932070696619527 10.471175515866506 -0.7562987366429943 -0.7787503807782911 0.1097681072647787
Ni 8.039337383584176 7.19607634815012 4.6169438622011105 0.3189193790155862 0.35546992444611036 -0.6024140986749754
Ni 7.50445787640772 6.25688888868435 6.764298720977527 -0.6954792913627763 -1.0234877771638244 1.806918079916288
Ni 2.473095192138358 5.115112576954398 2.452112419371315 -1.107854156526047 0.5071207879876041 0.768536930580399
Ni 2.383365752809864 5.051765622210373 11.641286724759206 -0.26964392981922597 0.42821286063679154 -0.3855333194903941
Ni 1.2896523122064938 3.4890111069426797 4.005016990531785 -1.622599550938444 0.15956523329256392 -0.7263824086995362
Ni 3.4791357950618176 2.6405134382360194 2.4326598669498485 0.9416521346432557 0.1387279848322385 0.4894819918599183
Ni 1.0145750467691221 3.3576785188463703 8.281069616565114 0.14185573182794278 -0.10611019879721727 -0.7108573164807436
Ni 3.876087092995847 2.5062182565754516 6.924534263167714 -0.2294622153940177 -0.03392184955842545 0.8669330485628101
Ni 3.942414761142445 7.056644192327672 6.003367888896643 1.1763573436037675 0.3221232306648646 1.1257179241803452
Ni 0.9737963506445713 7.215328676358223 11.162570562427385 0.556727652381454 1.0940126226572642 -0.03029813676290911
P 0.23395972833635842 5.437645698934849 7.899390624353625 -0.6121392963825393 0.06518209312428774 -0.02901721316795648
P 8.542914870074046 1.5985049562602456 8.041008938668597 0.4685935784466833 1.0369238480640721 -0.22604161974824297
P 1.7524782823292835 3.230576912996265 10.382053997113431 0.8428423261621936 -0.576376279850317 0.6268678608419656
P 3.9774857081982407 6.094870354404114 4.1913876815134605 0.5003474738195125 -1.1033686099508675 -2.776171006995948
P 6.5514540402279 3.9203991575915325 10.355918848321943 1.4733593537209722 -0.5673221400678488 0.9343556009818424
P 6.389290547241156 7.814424890517753 10.321893415936836 0.7419864337853802 -0.4785663733886791 -1.1748321652084925
P 2.175277529617533 8.428207233630381 5.699353241672598 0.6710227009823089 0.3679660000305921 0.7640045899276842
P 6.903839595829856 3.900521694961613 1.6816070647255736 0.798357099265625 1.9786443740514184 -0.023826155885320256
Ni 5.481658786198361 3.0182848873152004 0.4422871333944278 -0.4350622794584571 -0.8028907254699204 -1.0301412779246
Ni 1.5512393580194588 1.035920216302435 7.115479307331634 -0.8996426229806893 0.43570119859403666 -0.46259570899203556
Ni 7.000164656304467 0.8206021776230141 9.39323448852313 -0.6191072430599402 -0.7538492466612372 -0.031199822641572072
Ni 2.8299744676420633 1.3901630553315252 9.100756742353298 -0.09421576135247645 0.9190197419557204 1.045403089179677
Ni 6.3772861543584565 2.030545321088384 2.554347265111877 -0.05969664452968429 -0.866832518429204 0.6375744486261923
Ni 3.9007028933447483 6.63901815887793 10.303832467097847 0.16994940474036535 1.6153341276252824 0.7882323521267974
Ni 8.13598860114843 7.393473866737481 0.3723998230111414 0.1252147808371521 -0.8205346638039288 -0.4478548032374351
Ni 7.458034850648511 3.9587407354629156 8.338180628953545 0.8526695966652605 -0.33820136717364974 -0.5246428560317674
Ni 3.1146280676281246 8.42885048789051 12.470958787450048 0.6820028541428964 -0.6801894550832415 -0.41010715217501625
Ni 0.24430615601337177 4.972790306920946 10.14414142604898 -0.35193774292313584 -1.7196376122310641 1.0056049833461325
Ni 8.526543596157792 2.6371703280671768 5.7361501033277555 1.354156583405855 -1.5429341765963172 1.48295213961573
Ni 3.5614904601967137 2.7619344747748396 11.827061273060368 -0.25560390678639205 -0.015358227623625162 -1.8206804238077032
Ni 1.0457864682641405 3.277697552530544 12.719293889512429 -0.2902837175567646 -0.14462969502865414 -1.0340794366367416
Ni 3.06548706612189 8.31089034046957 7.984626343780369 0.4669228756124797 -0.6487847155197148 0.32595057483075474
Ni 5.456771188274757 7.850872945285375 3.642936415440187 0.8612588809961684 0.24971633765736345 0.09843082787508854
Ni 3.120073079041334 8.385371935857247 3.4830986037009817 -0.05688797143629557 0.32484937134677605 1.4985790475197096
Ni 3.5512436916304244 4.346006979818376 9.486360491543492 -0.6674486104778053 -0.6754395991030819 -0.20483001866763437
Ni 7.323685309473003 6.0382458596744 11.227054537025584 -0.3162464601691134 0.2619226499155683 0.11290973821755391
Ni 0.6268893281567048 9.120620615104478 0.531744775148219 0.2590273306456442 -0.2818093615371663 -0.1434549579942626
Ni 4.736752233130028 0.4646832535499243 1.5065603666979253 -0.5555164056821723 -0.65294578887594 0.4284031222707267
Ni 6.348194753946119 5.599066278550739 0.13045921188959816 -1.1445157736131386 0.8702253461608368 1.8354131020321875
Ni 8.220028411246483 8.748692813881405 11.336052612416664 -0.7211869805415256 0.13160988573021848 0.3735674053777695
Ni 9.227980657112019 5.04010550625563 5.630705328229957 -0.045502612417489374 -0.6239712560204609 0.6118616172411204
Ni 7.897422809912778 9.092534865718543 2.3980772495366014 0.6115805956655919 -0.9469059268430273 1.0571761705552052
P 8.62530577488557 1.6087245450690641 3.759293863162297 -0.21717954137192275 0.5080391860368153 -0.37638661999411954
P 1.6432700168137682 3.3494249324945673 1.4588372425397222 0.5765863389785941 -0.6481946473441997 1.022741128805787
P 5.058071325943474 0.7454800459509551 8.270063626773489 -1.2132552450713814 0.7520271058508339 -1.3120483413818953
P 8.586302822915743 1.5439823627748983 12.635622818124055 0.6093023411543765 0.7474718823799836 -3.0821222558866403
P 6.299579227750976 7.901418234260907 1.3967006929950392 -0.3187363164705027 -1.5319522236635164 1.065657468553339
P 1.8697045762985265 3.1425326186309275 6.242155648151636 -0.05040622036669384 1.200261918135507 -0.5109152220330297
P 6.878082245667203 3.9900518160686587 6.133595166855828 0.13332635420069294 0.8618492062819996 -0.050650989387648254
P 2.3691960392487004 8.636929651163685 10.3177820246235 1.5460284992509243 -1.0437323863454735 -1.767650392664917
