# total energy = -340893.6071992906 ev
CRYSTAL
PRIMVEC
9.06675275017017 0.00000000000000 0.00000000000000

0.00000000000000 9.06675275017017 0.00000000000000

0.00000000000000 0.00000000000000 13.27010913129072

PRIMCOORD
 96 1
Ni 6.301030630981868 1.9441566350718733 11.432146395032117 0.6273589415457711 0.21339153508440026 0.10494394640325796
Ni 4.7431720721497985 0.3765449700901725 5.938386806516511 -0.47385199863214517 -0.5258510174072556 -0.22765010188594342
Ni 2.569989257530034 1.3900329617049345 4.7659994360550915 0.9853765721143998 -1.1798206195620198 0.33561997959971873
Ni 3.4697103531387365 4.312954644614271 4.748377295019095 -0.31255872690488107 -0.8248230067666376 1.3372826904686517
Ni 5.091299118464953 4.339511164008403 2.5321092703751202 0.9644115398269583 0.49581461894616535 0.20390133620577788
Ni 7.287103481698018 6.036335845323866 2.6361466337892225 -0.2305896441302416 -0.15149145514549395 -0.6588580405953168
Ni 5.081443558006972 4.712807516516152 11.487748257505489 -0.5568664919521635 -0.11579014508914251 0.23807772497717067
Ni 5.455818854115918 7.729107688070133 12.378690016231523 0.24295305079160093 0.9167234897223759 0.460986969744019
Ni 1.7271167029254995 6.19843125458583 0.5653691670523407 0.7206941000655072 1.4257507507040736 -0.4379480856466844
Ni 2.6665501764605577 1.5826289278948114 0.45802062546045175 1.2449934567149268 -0.8713072663711059 -1.0642315347400897
Ni 0.2543015667500146 -0.19349810810852355 4.813214552048585 0.7395991645001262 1.0166496711960686 0.24718637214665815
Ni 8.711853040453184 2.39780255223336 1.2486296960282524 0.5224275935480034 -0.692729239421465 0.6729849669150022
Ni 6.8589986076001255 0.7097046206334483 4.620240502260642 0.3375094833129478 0.6912899358717771 0.020572939055345213
Ni 0.8116883645040985 7.492021165148606 2.963202546245735 0.7841404414456108 -1.651829394337839 -0.7095622518184037
Ni 7.589216756785715 3.7037141800568487 3.808335442361009 0.8042112440535569 0.18192457482437055 -0.3263100150527025
Ni 7.868645015989454 4.110675386272488 12.59418316032442 -0.6705208216452258 -0.5900653473016354 0.17528470091034973
Ni 7.750314823223044 9.082438433828518 6.959681272422276 0.20206505432798746 -0.755138654896622 -0.8020913694970767
Ni 6.980284561828634 0.7099430762360655 0.45178088607942013 -0.5020150913299224 -0.40878354826758634 -1.0124382042178823
Ni 1.8839987292405094 6.633218325608772 9.028823096926757 0.6081564004753913 -0.40291320552973836 1.2432029404734073
Ni 0.1567034112818708 4.8266133995599025 1.617599394027678 -0.7317457298939785 -0.5645846865320276 0.18566295882088024
Ni 6.4868990664819375 2.153906897845464 6.985837041335963 0.4988413215876313 -0.03607052047031207 0.07982632540002381
Ni 3.573225471582848 4.303153484673999 0.5914460552153529 -0.6380585873514624 0.35743373304070053 -0.713897388858648
Ni 6.080001327536956 5.578881891922866 4.795990441467146 -1.1434243403211726 0.7281927224353976 -0.29993743859644467
Ni 5.023425405872098 2.8229425981162017 9.365366459671428 1.4024107904265524 0.08342689826708859 -0.2342164422495515
P 0.09188156773239776 5.986559371621653 12.270657841467113 1.2349512419875763 -0.28842352441957425 0.616737200165867
P 3.8477576841929264 6.2596046367477305 12.70798723001758 0.48656173288932975 -0.9338557785272885 0.6365514066783167
P 2.364173965537274 8.260437544517698 1.4993100016495484 -0.301029643219359 0.02085550329277053 -0.2681873998783575
P 6.361514939919476 7.888537471964438 5.621324269162836 0.04470582754780688 -1.3381573797641213 1.6126527241383777
P 4.599164835025525 0.8598981032963411 12.448066089788396 0.7670588033729758 0.6199042850399388 2.5266883826159456
P 4.134548146793058 6.237409225523137 8.19268713976498 -0.6540652471923639 -0.42742198930438 -0.7621837346688615
P 4.78026415847325 0.9603504725935298 3.7201558298585957 -0.48378237037197974 -0.043109172484648337 0.02868322686730544
P 0.140156587145889 5.3337078253688475 3.787461963716704 0.8917171974860256 0.124824744487585 -0.9098344759120265
Ni 1.5418376063672596 0.9031419814971987 2.562100275787175 -0.6623735099477431 -0.08010117632796528 -0.15917648249457747
Ni 1.6080702366759427 6.413032230188325 5.196269450757736 0.23544774355349124 -0.37839593711466446 -1.0071425030365817
Ni 6.070182034090782 5.712308228353063 9.308318450102334 -0.512437315104511 0.21428087966788903 -0.2933528434003916
Ni 8.45076682246977 2.3951278601127495 10.249500900281683 0.5463627642073623 -0.35976418094609003 -0.06305913324401398
Ni 2.3123302721621815 5.066356481096138 7.178943465716994 1.0483367178867042 0.4937523371004981 -0.7439206746936156
Ni 0.7281473028115307 9.37547588921204 9.121023814363038 -0.16457297091980044 -0.4484926939317501 0.7823224144002656
Ni 1.4807820919937245 1.2140200866628441 11.344151744289908 0.47939683970977437 1.0702116635829244 -0.6003086222961984
Ni 4.1052081342429005 6.735491298898568 1.7462538983796458 0.14629885520096095 0.5624606982104894 -1.2820191420096567
Ni 5.71473811814399 7.9108416842244464 8.015199104017727 -0.8325856814311918 0.41867303946715634 -1.206398370050548
Ni 5.421745996525222 2.8976798426931323 4.765827167749018 -0.4894997324717312 -0.6161746427941776 -0.2701686919744444
Ni 0.6548806855632887 7.749943086352044 7.2796633042262435 -0.08392672072164256 -0.3523529760836835 -1.0582418928155581
Ni 5.0903017756403175 4.371933872561976 7.206107457558858 -0.14626105998449004 1.1307639712446849 0.47776933140868044
Ni 8.258043921738576 7.481231729136651 9.198627966223144 -0.5079299141524607 -0.7617726152733719 0.27546516448669334
Ni 4.505351142239221 0.5528516079278823 10.38307774481087 0.2778112961213667 -1.316378593326133 -1.7228833728618715
Ni 8.145951655002607 6.858037531787296 4.846257426504022 0.07839293538760692 0.6073670718048765 0.2663899416583025
Ni 7.333552457067133 6.123349473396753 7.086649360725316 -0.6363346626818203 0.7308946947475928 -0.4650333718992507
Ni 2.4531460122476245 5.088923629191732 2.673250506891512 -1.240886890745721 0.029678758011355333 0.17884516456809843
Ni 2.279118756101852 5.520573603693552 11.519304184476928 -0.6844001507304793 -0.17489157923698911 -0.6325227451348977
Ni 1.259616787254544 3.0152030944468837 3.752945741906694 -1.2544517739143493 1.662894651013065 -0.07447200306664595
Ni 3.594831543865612 2.549190126259929 2.7409410710747517 0.4010324435672577 -0.3359873902414665 -0.015655961369702067
Ni 1.1524477673710893 3.56641634011648 8.496931101796216 -0.9146138995785409 -0.8112537527226351 -0.12874799080139115
Ni 3.7279042769307114 2.5435324724183657 6.755534262972541 0.054412770422925645 -0.07106194894383246 0.24658370556565273
Ni 4.030507156677776 6.908892949090705 5.9040972535302805 0.3795179665342496 -0.149346126667717 0.2658541237594905
Ni 0.7440068670738099 7.8548544847506445 11.252230282844524 0.4146806304783116 -0.7177535293799445 -0.5573807125844207
P 0.20293659793074662 5.687909596161322 8.050696348497059 -0.14857145328522156 -0.3042581774589857 0.2506661031651425
P 8.603469075674266 1.720552373788814 8.018716097487506 0.22893745323879927 1.5511079706563609 -0.5063162898084377
P 2.0024830568070904 3.339294178688346 10.551887084633213 -1.2496849486533252 0.007077989892703939 -0.20430397096083525
P 4.127276610926177 6.0027163253807325 3.751009083476312 0.624161517654396 1.1015395271619286 0.6700654792753621
P 6.883179637721037 3.954418965911113 10.581200803599813 -0.12390300400426404 0.5980262540199248 -1.1490440005007954
P 6.160115156613961 7.917968152044107 10.090060236283838 1.1561081064364283 -0.7537137495246373 1.370116449169221
P 2.231554570119737 8.342917796114973 5.824277187248895 0.16810592377372335 1.4838635956864057 -0.46209023011052675
P 7.042228617991389 3.8035300632968614 1.3983508008623862 -0.8837676036216457 1.1169124100735732 0.5674684358377259
Ni 5.295573062456004 2.7772008294772825 0.22816483801752432 0.3673954722391028 -0.22813989703816837 0.6693298866609182
Ni 1.5399970555181612 1.2397787317972684 6.984045450952801 -0.6679949698995786 0.25827168342654233 -0.1804932416944827
Ni 7.08812452143048 0.7176053891551439 9.219819687896038 -1.5421990982025053 -0.07345076089098318 0.015817683758546953
Ni 2.7793224496678683 1.779277732653885 9.042478533546593 0.3446548361084774 -0.369605335406228 0.49055182788532936
Ni 6.389884809903853 1.966932318485345 2.4581018994107633 0.40010993175298837 -0.029136512354640143 0.16802313425192997
Ni 4.134248943945668 7.003295980818838 10.46326864128796 0.11033169307773256 -0.6016738780748413 -0.7975945100679876
Ni 8.351912015042586 7.316398160483419 0.549638350681969 -0.43904337559339224 -0.7330515931895956 -0.8724244106946846
Ni 7.64782424786242 4.1182189247279055 8.336880245324755 0.3145127653074583 -1.3454040340242055 0.3286993412204855
Ni 3.046800728481895 8.394090549771676 12.257879159857659 -0.7070723955170145 -0.16764955296259515 0.8761874772815427
Ni 0.15090522276956375 4.601068853145281 10.55604056416017 -0.1695411135583532 1.1897638468176608 -0.6253527097490197
Ni 8.615192387240198 2.126525303932771 5.639809565079789 0.4199603908200122 0.7713160359874329 0.6205997684450667
Ni 3.7158001617408285 2.595385232546409 11.537405050068747 0.03773299577439953 0.8899475071801124 0.17158668323347223
Ni 1.1247397703521522 3.5600242792858676 12.779474043661494 0.8492433445925309 -0.3391979267589642 -0.4564674846071106
Ni 3.0444524394675287 8.503363056339813 7.872399558386555 1.576751639366394 0.1688823969284317 -0.3521562866918451
Ni 5.798723450731168 7.889698016342194 3.542163682647254 -1.0503023262535072 -0.3814946306446462 -0.8294224532118619
Ni 3.2113441610406883 8.118424993042694 3.721164052786772 0.03468186765290156 0.31395637858335607 0.09078205308057914
Ni 3.4929756412115744 4.580142787333859 9.558194534736856 0.04157988032431549 0.35564938744676816 -0.5837923698087301
Ni 7.192165511545762 6.22890461125489 11.440161404640996 0.07085703202187796 0.13868067653407082 -0.18016465471047036
Ni 0.7603170489577648 0.18881603688451207 -0.0094856369375694 -0.4523115534572081 -1.133773704605286 1.5828870628401708
Ni 4.759338092661828 0.2836986998437646 1.5179013785760311 -0.9914562026495765 -0.27646480939580126 -0.116970795660805
Ni 5.996795735703584 5.488060227610467 0.3839216802912874 -0.12710659854322626 0.7288498964034221 0.4115688243222073
Ni 7.617387158205165 8.79582930628741 11.479082255034712 0.5666274279936694 0.2655880145822974 0.15063810600626315
Ni 0.011792218888360507 4.68061147678636 5.971987286278448 -0.16619019480824926 -0.6390289216845317 0.12439537025965029
Ni 8.004374307669261 8.65146846579804 2.344072067569118 -0.7317143624354109 1.3947062226934432 1.4366422008055968
P 8.60801151890283 1.5816315850701765 3.459464015628559 -0.5824749365488872 -0.8893160442437006 -0.024365059107925777
P 1.852301360923034 3.1468614140515916 1.5829643977540064 -0.44568042129393565 1.055472557600537 -0.03503282323441709
P 4.958616255776756 1.106016925507877 8.013859037931535 -1.1275662902429937 -0.42983394117998236 1.092288440877306
P 8.488013043593394 1.7067437090441016 12.421485996836592 -0.09074862873948243 -0.06877161024775898 -0.8246227178303733
P 6.17100432690838 7.680963229899141 1.1933116229222511 1.8231931629272278 -0.5720408856997569 0.9524870204752306
P 1.8492911989432281 3.290750783387499 5.9336104410618065 -0.6544848512282858 -0.6263736948143664 0.20922609085280097
P 6.846549955798096 4.031459165737654 6.000305475771002 1.4301594212947306 0.0016519337811261873 0.39612035097762105
P 2.591250793200652 8.50244731429174 10.01213874807044 -1.5563422224721069 1.1498487557902777 1.0422205776866371
