# total energy = -340861.6746350181 ev
CRYSTAL
PRIMVEC
9.28982190955454 0.00000000000000 0.00000000000000

0.00000000000000 9.28982190955454 0.00000000000000

0.00000000000000 0.00000000000000 13.59659339422255

PRIMCOORD
 96 1
Ni 4.870830067155048 3.369269723347927 4.1965478617012915 -0.6700284553898396 -1.0276835604127268 0.7330251108270344
Ni 2.6615618101387186 6.480774761698074 8.342760682038707 3.2222206387038446 -0.023319648562546934 3.656180429126742
Ni 5.802924335697676 0.9624534061276904 4.488697893044652 -0.12661294673625936 0.7604227861136968 1.9089363680323188
Ni 6.61206781294951 0.05503011729272896 0.3157601134034689 0.012028391919443802 2.2034629200258373 1.3786525116646904
Ni 2.5654864732645684 3.4897587118663687 2.827425075189206 -0.4841636649707984 1.4040750655028527 -0.706387710745164
Ni 2.177116183827253 6.427813487716297 2.85629040943165 -0.16002237543464054 -1.079941746386495 -0.8233451366695304
Ni 4.017420589109816 0.24162454863294283 5.680928538086119 -0.4228140582187235 0.668313529581262 1.616900700781454
Ni 0.5495198989153852 8.683744519545899 11.735260533735842 -1.9932904060993673 -0.8592053409012492 0.5971898741615587
Ni 4.172477004480773 7.653670500663718 10.685794011882786 0.9899922165095402 -0.9562228333685789 0.8358239858628316
Ni 3.2493474139582146 2.1340114107566612 0.8058799628596582 -1.3049487542226366 3.271392215332489 0.7114399284570909
Ni 0.28003238781032497 3.592652777928841 7.035788661215602 -2.3955212408501 -1.0600169824381098 0.6355589608580603
Ni 5.984243077247633 3.8639341536200935 9.121043371329227 2.6927844750484913 0.29435660207455755 0.3263820059412186
Ni 3.0099951557332605 1.5513909478482106 7.89835604557398 -0.0983683500682693 -0.9730113656808275 -0.637183898055993
Ni 9.180146146491383 4.781443401964266 3.12128814966925 0.008004615472031375 0.37705613525731835 -0.07655048286222946
Ni 6.919235770186386 3.8780268132640776 3.1489300143829446 0.6165225130518994 -0.5117338612795832 0.3434788135225052
Ni 2.514764046332364 7.483007184698237 0.7604741009335527 1.9830093358883334 0.1405310994792483 -0.6753627231185595
Ni 2.4730527465291408 3.8738463934619727 6.834749485985849 2.598916841064053 -1.4512445240998038 0.7743280833408793
Ni 3.8159150648265827 3.513977277253229 8.949713046159765 -1.3378344492070637 0.19630809723955223 -0.0018555651515000302
Ni 5.230225402452887 5.8107370758167205 7.4981542391145295 -1.342688177754939 2.134523930962279 1.7517319216624476
Ni 3.3965260604576497 4.547414211620659 11.121048173891795 0.39655023942618806 1.2705229684445989 -0.202218034966084
Ni 8.229286437948199 4.9633566921083005 10.42703717391864 0.5989834757268717 1.5816110243412245 0.09075891315212756
Ni 7.734584848388901 6.071446634319539 7.863344565240263 1.940700033597161 -0.20456750903486706 -2.2301219173742624
Ni 2.3771260468035096 8.935303603592999 10.211666590625093 0.04244762764124948 1.8319775939880774 -1.5853496654480503
Ni 4.956231398801157 7.49618944180754 4.714211103760283 0.5169539720279419 0.20321253766886935 0.3368872763479166
P 1.434562149112056 4.700018114041048 9.41040645613785 0.28578788656894005 4.51538782691052 -0.2765005477297432
P 0.8895385239393789 3.2949975981971984 0.9099529073063239 0.7836920410542826 0.27447863220370794 0.830360391645099
P 5.438122324122449 2.1472215373313124 0.2025357655189067 -0.22059293792884588 -2.07721712682101 -0.37972802566252667
P 4.133896374618237 1.1649901006287753 9.818507398058921 0.5414768968699706 -0.29354876146128156 -1.6463377750956485
P 5.342483608872073 7.66362918961451 13.068556193561712 0.28944270971270797 0.14705630219227578 -0.9877777253567246
P 6.406874229418643 5.090162759438812 1.4694519327804223 0.7855908007388922 1.768929773597973 -0.3155332361521727
P 6.128950631152936 8.459655438509518 6.63705464659778 -1.2933517934136565 0.04341384820926072 -1.3138460567122663
P 7.652955184386468 2.566991424393326 7.68543333032011 -1.0131982223123583 -0.5863922693254224 -0.5516692640219403
Ni 2.0170339748719877 5.430727625983614 12.979580138493713 -0.6196512884888683 -0.08417046130133246 1.4572475357607741
Ni 7.181942640372433 7.304521838791928 0.804323917711097 1.0552316452343247 -2.0601432020578585 0.1628863272459969
Ni 7.63199734644525 7.264445547622416 5.15562441761106 -0.04810662569923973 0.6322052138944789 1.0041399687648318
Ni 1.4338189633694596 9.270526822612888 2.2873009020245956 -0.05395897071495868 0.062346937668337786 -0.14004824630555882
Ni 2.5531124306503385 8.24420589173082 4.279799528586941 -0.5232750291499634 0.999243302794163 -1.0176097211164925
Ni 6.471670736351267 3.904214820868818 13.235454344758763 0.713981463932022 0.1469763408839598 0.4722856825862899
Ni 8.791747987588721 3.7083389285857535 12.821097636849387 0.4368399401841703 -0.22372685557213728 -0.5431545416827098
Ni 1.2226241549671264 3.725292853338734 11.33278736585058 -0.7313495228968243 2.2386353541619126 -0.3458786812132495
Ni -0.14690366777467465 8.87911876145271 4.067122064628128 0.5819121220668818 0.3738687386682723 0.2520874089927013
Ni 1.3714470999220565 5.810170396687991 6.913867182178306 -3.0962216714024997 -0.597100656881862 -0.6051847194415771
Ni 6.658210357742965 6.27052751511755 3.333190842491406 1.174492779591203 0.14094993218422178 -1.817770963470392
Ni 4.949421959434618 3.485819827430608 1.8125213352777745 -0.6851326580211298 1.0684648560951469 0.02946278534580732
Ni 7.2780365568901475 8.429853690231402 11.90343696441016 -0.08488702775238284 -1.4635853050533438 -0.7017288718169141
Ni 3.149788393915644 7.361496315783723 6.283366048820904 -0.054753184481479894 -0.8416321079041763 0.29398250656459046
Ni 0.3931879910136969 1.7121141545064653 11.544758803353927 0.22715465030676363 -1.4014114026277609 -0.15249881336408574
Ni 4.513850085520648 0.4891982991353699 11.81554781849071 0.030407665757579888 -0.6401581501929685 0.4903119439603814
Ni 6.864082098263951 8.742084600339716 2.952731765284029 1.1493450766809818 -1.373607493041615 0.46084838728362565
Ni 5.375982706219607 3.6950080343279303 6.790573596463741 -3.024826764599281 -0.018936946113819 1.3724654090173718
Ni 1.2272133269276593 4.13421222855884 4.895208417476566 2.0452927673085872 -0.46864525762022513 -0.1691482489953087
Ni 5.06469006811132 2.739837848477685 11.135854291848673 -0.14138316306689844 0.5363290341204441 0.606376168646517
Ni 5.775249956607742 5.947864135147539 11.414421674763904 0.3659507693727762 -0.05863606447565385 0.6268953716457913
Ni 3.234372221244897 1.2995438793258545 3.3828189284176373 0.39730125865959964 -0.27325478709893586 0.2956256985949683
Ni 9.405944554735736 8.01447788887249 6.526636753873698 0.5109699865303651 0.48846820588342327 0.8819783729317069
Ni 5.140104841341291 7.447612963707082 1.778094184734174 -1.3084061166436176 -1.9038111309906116 -1.7396086560363524
P 8.716788415626091 4.908240179472995 5.602503862598635 -1.8884613880074186 1.2269299143449968 -0.4537233462030702
P 9.010811275040794 0.3181661772451247 0.4084855405428656 -1.1286533526595852 1.270962369974863 -0.48408781742754053
P 2.8515851146988367 2.4805775021729297 11.533650034466469 0.04577052136689537 -1.334538037843979 1.20149964719735
P 4.393556183259638 5.762383553439042 9.63317266655241 -0.9506682220989369 -1.0235068033272179 -0.6452016261541469
P 2.0603524138435754 8.84774703329336 7.55092228480323 -0.20323747736953388 -0.7416848433845613 -0.35855216291585995
P 2.5532796474424226 8.092224407369855 12.16635378456849 1.0186196504382456 0.3415363450841537 1.9745614622312964
P 3.8470638372631547 2.451361012667108 5.858282383699325 -0.1492643655871881 -1.8411479476334354 0.18053206535221814
P 7.856597367679665 1.9839807889700125 3.637428789938096 -0.6813536505946717 -1.0703232494601245 0.061624457680016446
Ni 1.0723148385270038 0.7945389484276372 5.825813527587466 0.9461063137598673 0.3086460221140362 0.39720201407757394
Ni 7.312158072297105 1.456309621904783 12.217599228467046 0.3496204076438688 1.2065009570666836 0.9655081153252468
Ni 6.524056041382531 0.9972252090594196 10.052750254303525 -1.0952125565026365 -0.44814662344624107 -0.684083390821009
Ni 6.961337242504473 3.3507829780008414 5.530958300141057 3.95246690123416 -1.2338742068733137 -1.251573681035606
Ni 0.873858233752773 6.472636877816642 4.882373599701927 -0.5290936927142694 1.2761799096200603 -1.2415579486708166
Ni 4.238973548799586 8.46170848912344 8.40560446843266 0.3252887728770398 0.8479994448831009 -1.1969061142893966
Ni 1.7954624355386521 0.7020383349753757 13.57309849133516 -0.5471999153966769 -1.111871505215556 -1.6540677967500546
Ni 8.184806771253802 2.462583117380314 1.2685716135031493 -0.22504506016292852 -0.8702204610648303 0.69736982351727
Ni 1.3019499431675101 2.8189221013117245 9.06227874567995 0.5988541492378588 -2.1358310798094764 -0.1956856331642049
Ni 0.6920824329711186 2.2199515520661532 3.8175157011197 -0.01600280318615954 -1.2809552195215166 -1.1573306659896196
Ni 7.671980739396937 -0.2329441391594168 7.917908333479512 0.26764875376606806 0.4420752204411805 0.4377441971659945
Ni 7.8505961428082 0.8273459540523771 5.629506587573696 0.18063928035404372 0.09744326715083863 0.8152039956196347
Ni 4.3539908322881615 4.5299307670260776 13.249581376743345 -0.3355526166968931 -0.5351183016417946 -1.9099776648126396
Ni 0.25474363495412583 7.616399735672507 0.7746968180824914 -0.31106208775469657 -0.8770210289264315 -0.07167438571685075
Ni 5.539093397075952 1.5486597402441686 7.595872945461996 0.6866650355052561 -1.2494301523300417 0.2925437172355349
Ni 4.219901544680206 9.569817010978245 0.5269224074295633 0.4371268752969698 -2.892441434155619 0.9319629323799499
Ni 8.300827355494883 2.570818830967698 9.764488942358302 0.5929035880813789 -0.38142546796960763 -1.0469673483430033
Ni 0.6902737046700747 7.349865458912091 8.956062639348072 -2.228385651409446 1.2252715528059672 -0.8734443673187667
Ni 8.556631888096566 5.316202703049509 0.8626417029326369 0.23086809460260888 -0.14068973654429962 0.04452250789240719
Ni 4.3302460478122065 5.440965009587879 3.361770979205129 -0.20892758577577566 0.5051142990805365 0.10277804910019073
Ni 6.063197272576719 5.579689918265282 5.449337925960406 0.4101583171279259 -1.2283689607843682 -0.8479644778801073
Ni 0.6434056247954107 0.6576617853027662 8.812047177165564 -1.1546603182463082 -0.885233646644211 -0.1538275594778383
Ni 1.7025456380705366 6.610377065385103 10.876757446407288 -0.27907293644260966 -1.7878806036688626 0.18221716636412488
Ni 5.789779237875502 1.329568583326749 2.354630743357295 -0.05394097299282968 1.6239732913575193 -2.2144659560045605
P 3.7453031294581423 5.132050565855902 5.582761133346561 0.7363896564238931 1.0900428393762387 -0.2051051267058919
P 9.222340517027295 6.24483186806728 12.411106216195586 0.01796712600138196 -0.25455001160058094 -0.24681227663669109
P 3.4190260088147557 5.238149620433321 1.226550033652392 -2.1573514703797554 1.3986760059744685 2.780664009770295
P 8.247708154542806 8.90541824691884 10.020335279158006 1.140731623980358 0.29224649771009026 -0.0007119384653600642
P 4.565678001244965 8.814229356302262 3.096324540575437 -1.4679551519862655 2.526186246168546 1.306888908668143
P 7.108237194350434 3.3972506665566815 11.30496899452302 0.011718573988508849 0.5691381102306651 -1.3002534056294963
P 6.463885865697569 6.4223046233993015 9.32907127948592 0.5598818817397196 0.02737762068200446 1.8770634305831222
P 0.05306439100356149 7.075574180963322 2.972609196951948 -0.6569202001426557 -0.21363553277440628 -1.3477414239081305
