# total energy = -381166.6566006198 ev
CRYSTAL
PRIMVEC
9.20114471538830 0.00000000000000 0.00000000000000
0.00000000000000 9.20114471538830 0.00000000000000
0.00000000000000 0.00000000000000 13.46680535693121
PRIMCOORD
 96 1
Ni 3.6270361173483723 0.6841115649911811 7.718957321020208 -1.3781611738505684 0.440140465312313 -0.26045275023826114
Ni 7.8724351784919255 0.40879950751379857 1.2181653380743482 0.5258900981753072 -0.8796651514174979 0.051781246337349526
Ni 8.238889176892798 6.385033298925433 12.752687475341524 0.399655360714073 -1.1908429388144521 0.06132672393393954
Ni 2.2845522701421825 5.292452547522786 2.685146196623669 0.3427455349009065 -1.0493116802054638 3.2560643267261664
Ni 2.9727427026727486 8.718176815346647 5.717143352413695 -0.35190431858203913 0.8157791513968145 0.5412246716498486
Ni 6.654498028811389 3.714290574546642 9.476295029092139 -1.20474257961468 1.3129747098509066 -0.708882966363192
Ni 8.57438132266558 7.075073161583265 6.802030106441123 1.2693721426696074 -0.8326674425117209 0.6658385856782081
Ni 7.219411521814125 4.126161424231988 11.720255528341577 -2.1657211825006897 -0.08222619309076806 -0.4733262080356622
Ni 0.5729847373193369 8.367677602222775 10.80265386984046 -0.3997695176944341 -0.5379848245563122 1.1192459433027564
Ni 6.570979236447297 6.046081522665827 7.836980406803421 -0.18184178530257714 1.08776149954123 1.3267316544256829
Ni 0.21479704750719397 3.637461014533402 3.910168227886264 0.6150675257729278 -0.1736692767941138 -0.4480602343800219
Ni 2.637719815290466 1.1005305406064125 3.5386324371506235 0.63857743596941 1.2932926580409467 0.1290773491163519
Ni 0.6942135019898081 8.799275706598946 4.744045908491756 -0.3026777203457432 0.910846719226625 0.925383222279903
Ni 2.4363619600413964 8.920215555319189 12.77063890906438 0.38936503453165844 0.27451231365512074 -0.5767789146053743
Ni 4.642511274390427 6.169754111424862 6.428918159582097 -1.1923786587326883 -1.0662051135266926 -2.82167541918565
Ni 6.907271881827402 3.8465294292185312 3.2063119260289263 2.104473648544117 2.2681855570152036 0.08881001695587286
Ni 4.556738201522952 7.638882517196589 4.398958808804985 0.9243871769152209 -0.5577578934181814 -0.3459031066932817
Ni 9.034309752225075 5.022168915739683 10.468744320992501 0.43886545525463133 0.5263554678474999 1.8600589256053255
Ni 7.455043641859521 2.902280334938451 5.675329669476669 1.1167398890514508 -0.09829507362817265 -0.4228058306886073
Ni 7.062108748402587 5.151868254415925 5.839974956527795 -0.05756699978119118 1.250376575403711 -1.9356143915441375
Ni 9.174213160608467 1.4490607087191665 2.74524899530181 1.1828108125385952 0.8709187726834356 0.3807970903569894
Ni 0.29831215941332195 6.516177217352823 4.02187472768755 -1.9568550460904686 -1.4732197428193143 -0.8528027798090151
Ni 5.508072177385092 8.978026348799808 10.996172349624706 -0.6711926509012698 -0.4887893366682679 0.543744866968541
Ni 7.506082392685082 7.832465404995218 5.00590773233712 -1.7675179808521106 -0.48398703018361805 -0.8383140992745368
P 5.193843877503399 4.225147341192757 6.304794714722385 -0.24815979180352102 -2.569113898770008 -0.3306474660857919
Ni 1.8958959090692202 6.554012325230001 5.413090598689922 2.1537619532562844 -0.0968503707618461 1.0118463362701542
P 5.904209069271319 0.3355363112683593 0.387878864327918 1.3715770928751474 0.5401928879512246 -2.005031348685379
Ni 2.853045008515595 8.584456576343964 10.128397651164272 0.7588747249002866 0.87887736540888 -0.6411017450531604
P 6.298984191710605 5.773644822973371 9.966069212401926 0.9721575023209645 -0.07783320622939499 -0.5265336452965771
P -0.11800744383686225 1.6959550301365622 4.953400478783641 0.7493125351331482 0.2413247711595586 0.17051659009774503
P 4.769634292491375 3.1234206517478156 11.120807378141514 -0.8226429683961831 2.0726346496566497 0.4572215891643158
Ni 5.627990699020128 0.34848232215921293 8.693873831291203 1.7281199386704627 0.7369367871766146 1.1276804472233548
Ni 3.7727730516058213 6.854429706599135 12.838794549769297 -2.9132953947864926 1.3824019514047934 -0.8206588480866188
Ni 6.080024546245329 2.405335699398924 7.378799274662669 -1.0876763960265914 0.4388402584436507 -0.009410237570306373
Ni 6.460151445985085 1.9168009103087507 10.937227975090956 -2.2903027006292165 1.3567117457275408 0.8716638783795763
Ni 5.599899603604508 2.673227033504968 13.220551892387418 -0.49091306787949 -0.5087932905940206 -0.21717028540054212
Ni 4.515001808203185 5.003352574395123 3.94360610861011 -0.03275456872320165 0.7313497800071405 1.2054282928277948
Ni 2.0803328588255536 4.191940409206198 9.660453184157646 -0.40324564916849265 0.06827024513130822 0.01357259647811211
Ni 1.804786172152921 0.031504720177884055 1.586497290151712 -0.360629614270179 0.1840714459640443 -0.9562796547484436
Ni 2.0480460413301698 5.310873239636139 0.5510087228120768 -0.08874908181095038 -1.1384284297684781 -2.0338886392367037
Ni 2.3238227566255962 8.019717905094552 3.45185183891531 1.1594837077768807 -2.069561924268597 -0.2988570610480724
Ni 7.61115026643253 7.608242704640411 9.96508561001086 -0.40414630660589107 -2.488869769106275 -1.6819794355586581
Ni 0.2918106304186687 8.393523618279923 13.255592612554894 -0.49963656379541693 0.16749708654513087 0.8023227687815925
Ni 7.102584584869443 0.9438810484836098 4.2055222192104535 0.565651180123329 -0.46030922695070403 0.28824688963239387
Ni 7.8381149079710415 1.314944820485277 12.712004613114154 -0.19008037116228552 1.353794829191062 -0.8729820829703675
Ni 1.8011977256373326 3.0666955933667834 11.996418691723298 -0.3578443382155579 0.18433935491345024 -1.2989858517709822
Ni 4.828365200463173 3.4386610775698037 2.105453824663655 -2.1025319514367142 1.3428229035605908 -0.5898871698525583
Ni 6.637255083246741 4.610252060329779 0.7458484870056521 0.9407707604795669 1.1913715576244126 -0.056345982889896506
Ni 8.072734902076142 2.2782310835877997 8.673416925808874 1.913281275264576 -0.6273874807908615 -1.6913739893996809
Ni 5.787989407890813 5.923301444963232 11.963681018127238 0.03958830381558343 -0.03966697957231878 0.5064564149307278
Ni 9.371458104081977 4.901955957467471 5.834224240957942 0.8065622607842368 -0.5897609286873392 1.4249218270448751
Ni 0.7053238844707647 1.8795730779957487 0.2679354996016204 0.3514644028311431 -0.5672131252938102 1.0358046468579645
Ni 5.815261601409285 8.576801223777375 2.3096787566672305 -0.009106076066326253 0.3025442800916725 1.4988197027756058
Ni 3.6689749358561983 1.3493847058900141 11.495736551120611 0.3168835795324801 0.08928489970976236 0.5183539376992621
Ni 4.031702470567806 0.8943292026757894 0.8439740969171721 -1.4229909285707492 0.35369277794102955 0.2803669726636849
Ni 2.4724028446607806 4.209422584538551 4.916191968874953 -0.18444708413590813 -0.22781593803984637 0.17766425688611984
P 7.858799081732689 2.9470899106587476 1.5297345070765416 1.4321373709567076 -0.4814251829937128 -1.0726128168252496
Ni 2.4040291368214532 6.29551536007887 10.44061274053927 -2.8521141952914815 2.5682178693182993 -0.8321665916159023
P 2.085448695396495 2.96894262982419 2.269183597796061 -0.77415736209097 -0.27265392029014335 1.3088316342168103
Ni 2.591980923934081 5.507805344182651 7.6305886051731235 -1.555126862007767 2.416726928393438 0.06144113802461676
P 6.929897497165434 6.2050036975818355 3.5241010689914725 0.3999518089085693 -0.32968458795189026 0.638239593014017
P 1.643066849183736 1.0606711808486455 10.729030908828971 -0.9509579854252138 0.9939321749938946 0.17374975232306206
P 4.898523930415383 0.5733003365898104 4.007707724866905 -1.0493152797498897 0.9371557894347989 -0.36955159935015713
Ni 1.3128469594453944 1.4688523714243735 6.811497164440838 -0.4734840737697652 -0.3717493783324243 -3.98170111550893
Ni 4.437298139423328 2.4754576247714866 9.08082890066998 -0.23722951804426243 -0.14563731035756208 1.0349775229709788
Ni 5.359105641263613 2.9373550993421 4.32870254671671 -1.4964414323514164 -2.28064743692764 2.488466877240901
Ni 1.975605427439842 2.1829992337510298 8.639871391689562 1.1014024873634323 -2.636416380671408 5.211864706299876
Ni 3.4925797867527475 2.0792747271607004 5.556040506153598 0.46548768582784994 -1.5988479570448013 -0.40503847940285725
Ni 8.598111075393023 4.868169353351469 8.326135353060648 -0.575116439301287 -1.7751670127569363 -2.2432088324652075
Ni 7.4964579951073755 8.406589244054631 12.050878428227055 -0.7115587134231423 -0.15380879042476092 1.140863521572532
Ni 0.7073729794426147 0.14140411511849882 8.692203823489717 0.02054260003804204 -0.6604847775654625 -0.7899907295788007
Ni 0.6110305514149947 6.641561219065447 8.759618772029238 0.9693490863378919 1.6689637400252806 1.1748658466599058
Ni 4.362529635870324 5.013952293333477 8.98191475263952 0.8339087711179897 -0.7242576490470495 0.21645551872170465
Ni 8.840855680455213 3.932560134143536 13.090839672108299 1.8142662927512432 0.08009037769468788 1.476072124666445
Ni 5.194441951922663 6.362058040080756 2.22051506189977 -1.0088119203192045 -0.9708963762203539 -0.6207568628482213
Ni 5.647147482726423 7.435058755111167 0.17092598856789745 1.702590169830474 0.8432945832082638 0.11760585814164262
Ni 3.0447600638971353 3.0111666838242805 0.4434675813123475 0.14004130432702336 -0.5436307099881799 -0.351474173023156
Ni 5.523668118010534 0.2686863130264204 6.092315435618464 -0.2871420866039894 0.16691576012036413 0.12607095818986028
Ni 8.490982145185342 8.316832075440361 2.9371508339250587 0.6848521506662334 1.1756369204979753 1.121604930453236
Ni 3.2413885306615575 3.4677735000706287 7.2697988315799345 2.2391308057410924 -0.876018041583214 -0.71572492898569
Ni 4.547785487523805 7.039906385730498 10.101706970004221 0.8152374199607314 0.3554426707526007 0.451509626381203
Ni 0.8424476269763103 6.948704637365081 1.7659021337558014 -0.7000422281431106 1.2613335886358472 -0.8519517446626296
Ni 4.664676832482869 7.76456095554639 7.744961596769839 -0.6498198416524487 0.8164540659766519 1.5694687325517358
Ni 7.771029360419361 0.5967724572597234 10.14171630842405 2.569692654091613 -1.9730450255867698 -1.1979127011770403
Ni 6.155492336811627 1.7155902733782693 2.2433274604795095 -0.00628120502302144 -0.3263940901260766 -0.5175995760317409
Ni 8.809949034696594 5.041610934938243 2.0081563177941937 -0.046128161816630237 -0.8458268627118142 -0.18016671159299938
Ni 8.527510690485048 0.2736521709353001 6.557310935680869 -0.8226496532644025 1.006863281233266 0.5020130344473935
Ni 3.4175352488523907 4.902526428452 11.5723627658313 2.2285448026951302 -2.921106406190479 1.3688406677805909
P 1.1438771342857383 3.66679426451211 7.613512200331379 -2.4298351836406216 2.408443605338723 -1.5317545058304136
Ni 4.438935943217622 4.888963940852058 0.27836959793156213 0.18751543864858675 -0.12933780186659016 0.43617736689950687
P 1.0923875273595 5.601739832586862 12.244666501557214 -0.7691971898722172 -8.484640432243452e-05 -1.9344075157202298
Ni 8.814245969370388 2.569548532639198 10.948566545965724 1.4459434236018645 0.002798131570427439 -0.5255126602312304
P 2.9854862883755438 7.103964756606207 1.526584035058753 1.0086712809762821 0.5517011457011401 -0.8132892950954251
P 1.8800515375311606 7.583123579031293 7.288397105790085 -0.09547894433561621 0.9994124813821756 0.42536716365788035
P 6.91242452297799 8.390303217560806 7.380011065447549 -0.40187525118352724 -1.3152503932589608 0.6372052382122316
Ni 7.531265926308583 7.004491178965114 1.550810649611431 -0.4024578631598746 -1.2128891199812144 -1.3720925990589854
