# total energy = -381171.9060636494 ev
CRYSTAL
PRIMVEC
9.28427733913596 0.00000000000000 0.00000000000000
0.00000000000000 9.28427733913596 0.00000000000000
0.00000000000000 0.00000000000000 13.58847835495773
PRIMCOORD
 96 1
Ni 5.974859367213947 6.257853416391549 11.470903498706571 -0.4677438288518784 0.8159825256568721 0.4986446321957928
Ni 5.957107829468218 9.152431045084798 7.217220976072806 0.4146564621085956 0.3636411474029931 0.5932254901971719
Ni 0.6626782734070441 4.639817462567043 9.26159371794397 -0.9555646309592898 -1.1599300512856798 0.850259187451555
Ni 8.507210926268272 9.001533689969037 11.97958811059712 -1.2964222048088638 0.7320478345154295 -1.1270266156894397
Ni 6.844081238745541 6.615177387740858 7.006505023835845 0.7861469303526784 -0.06623830230294399 -0.30502745152484245
Ni 1.009850816214942 8.497313886918404 10.352001420957222 -0.1051051545714706 0.1481338515271707 0.5102765600077663
Ni 0.19692694394200505 7.109890091078297 6.392930363390823 0.30428594537312753 -0.9124747417483511 -1.3159978129479464
Ni 1.3590417608564809 7.91063113498829 12.68546891046452 1.2943756066924805 0.029948209622658095 0.42331336645264517
Ni 7.31207379269375 5.090095615877776 9.25867288437974 0.4702498831031837 0.5882447491531289 -0.8038422907499124
Ni 3.8588147916944022 7.915700350265053 12.232524312781102 -0.5339353370772869 -1.0905056379452702 0.84498636908839
Ni 1.944266881287598 4.720432840310854 1.911233423495075 0.1622728620317141 1.0584213558162159 1.162636137362933
Ni 0.37072861057383105 2.4028451782932487 4.44666643410683 -1.6691347183855059 0.9510274052105686 0.36474954997582343
Ni 6.064183396843477 9.250556569370683 12.57465549314343 0.9164419539262153 -1.144538399320958 -1.279774311839538
Ni 4.2056011085764515 1.3027604732965379 12.674109597477127 -0.7954926332336364 -0.013863645355969673 -0.8522494784087065
Ni 1.349256132831377 0.2594398382670804 4.691027677994811 -1.5553639177192373 -0.7108670866727563 0.25995292778370716
Ni 1.6209047954371778 6.1290433564102464 11.063833442422432 0.45449673403398494 -0.09479785910819158 -1.0238191923613142
Ni 8.535203021615224 7.292056891344486 13.332375982423516 -1.107088739114932 -2.080462630341501 2.4886622810811594
Ni 1.5340782363377743 1.940051819500694 7.544499169988681 -1.1904513598029884 0.09544397733262272 -0.7746345588377046
Ni 6.404173622914923 3.8803078930967883 6.320042289447101 0.002396268146318454 1.4199660257014965 -0.020179303161352344
Ni 5.990624069668052 2.343305109483959 0.5966902741770386 0.5269069694755958 0.32562918693559406 1.029927362141581
Ni 8.898589625887109 9.207505376626465 8.070074667141158 1.1779339440622683 1.3010933850322883 -0.5016494804603877
Ni 1.8262172984230862 1.522166508865091 2.863703693745736 -1.0910072601720373 -0.28280926355659036 -1.278681078775359
Ni 2.9588805316362006 3.372866445905064 3.590089747935949 1.278772867158217 1.2329786916422378 -2.205387904962692
Ni 4.204904787796676 7.719319321814391 7.4354516221650995 0.5369689816972881 -1.1898816033424475 0.4451425465125946
P 4.433920050126124 2.2561628849643913 10.679551644191061 0.3594978146585808 -0.5740412039592372 -0.8853748002077654
Ni 7.51559443020637 2.0857964008461214 12.29832012747589 -0.07534155015579283 0.03956027879112541 0.21108319866619776
P 7.753745421166465 8.14428853584957 9.431653820919138 -1.462184310940759 0.12560121764229334 1.7708617005133631
Ni 2.7439588018893986 5.510274142948104 8.664638841870616 0.8127475636593423 0.3116087042867859 0.2929748912356825
P 8.84662552716177 2.2050158026206557 0.47252420958298325 -1.0748640747532714 -1.6145237159088452 1.1358580979381405
P 8.673074536010663 5.410533154453142 7.48332413998848 -0.5115204597171965 -1.298099592511287 0.034720177090004724
P 6.070181039826605 4.074943477459481 2.1079394016429647 0.25365578192108573 -0.5649263861421625 1.0508584558672935
Ni 3.4206711885058803 6.692682532668341 0.8605252892060584 0.893649638622048 -0.6670829996082706 -0.04431810519108497
Ni 6.0039655758085395 4.921093920487865 4.216776592877986 0.2179894388677278 0.27033298546645057 -0.5162052667873755
Ni 5.558496678016786 1.1415575706401067 2.490659584472227 0.07620955458304295 -0.4138979866760162 1.704659907875309
Ni 3.7342105092229416 5.33903493678585 12.249618523710723 0.2749064637697459 1.4215768218320421 0.6416252216567981
Ni 6.886036886796248 0.8523291294142541 10.298748664575447 -0.35533237042698157 -2.010381300143383 -0.4792693129929746
Ni 4.512223642881082 8.972251080110235 0.7193643554469626 0.6731392331046794 -0.496875456110512 1.5169773475212391
Ni 2.816515427141948 9.238375597863154 6.376991116527922 1.2503570350196853 1.7001512213716783 -0.13822739104673615
Ni 8.405130299953266 3.1055535406879953 7.735417329815082 -0.20210773464046483 -0.10843936115102615 -0.025323052145820906
Ni 7.452526336112887 4.478150346057428 11.569882248054606 1.9472954274264913 0.4777932426680804 1.114650096401958
Ni 4.705197341649378 7.933386898071336 3.310982097137199 -0.28142755271771536 0.36906206130824826 -1.886430730730635
Ni 2.6475880059685464 7.538832975696726 4.5715306763360735 0.28397705861244643 -0.6876600524286738 0.2722021774647054
Ni 1.9282700719069017 7.700973590336587 7.759944532961875 -0.10945854644415987 1.3702236641710468 1.6678273124279919
Ni 8.85553843314289 2.125468116739166 10.005835293783024 1.2412933821555205 0.4694911505602882 -0.2447890755590752
Ni 1.5769530278177835 5.236564370834169 13.268279190431379 1.0887058657323703 2.4050849732791355 -0.8883032867084701
Ni 3.4833307744085613 3.326705020344517 7.593743903962071 0.5457919793055568 -0.8264258324773832 -0.6255134036966001
Ni 8.376219061177009 6.738881095337143 11.095698938160346 0.1495034781811877 -0.10170075687561193 -0.8528935397506086
Ni 2.808280273386476 3.1933828017102743 12.140856931620704 0.19614277530628155 0.16455677296988433 -1.1789515866935052
Ni 5.993511479834852 0.035629341659524326 4.769052742437859 -1.0093384822466358 0.9147527391492504 -0.42110144640299085
Ni 0.16607621968714958 6.924585205164588 8.864416058871168 -0.8515794489248752 -1.0996798482453707 0.33269843507754965
Ni 4.179735112677078 4.188128099142633 0.9793389680729102 -0.11432847294195148 0.9649771825224414 -0.19412214533182698
Ni 8.815402503396662 5.748592250895345 2.3114405421737514 0.16314857976844807 0.07983018205476573 -0.06756062065879333
Ni 4.7228188995162155 8.81203231082255 10.43459249286018 0.8906165082226791 0.6706267510954709 -1.0893445277576335
Ni 3.6834347979617528 0.7799943983835266 8.746386901416196 0.0728511796337713 0.5856512773943398 -0.5143818404253915
Ni 6.59682237198599 3.0938924886960306 10.126201303774922 -1.3718324034190632 -0.6134562154217499 0.07601106541899168
Ni 5.787521224623297 2.3383658740860893 8.131304474376035 -0.5150536696814355 -0.23331861302563042 -0.267228635509514
P 4.603683056235255 1.6049636917188637 6.334458914871561 -0.4627340343421128 -0.5280472537276261 0.1000634783825051
Ni 3.815902863106138 4.649714501916911 5.746118919485585 0.46742784027335627 0.15853139271141087 -1.3595430445287489
P 0.6005348933091026 3.780139827856897 11.789988318113759 0.08705626748955975 0.35974052679700624 -1.5280662583455489
Ni 0.06650513346245171 3.4320444279088704 2.3479936694011108 -0.6724038976005517 -1.1909239285640327 0.17008233077380386
P 2.407060240080153 0.6046023350906946 0.18109539469304195 0.020736975437035253 0.4497646186656383 -0.8153708602148022
P 2.7453143063406937 6.272049076021894 6.522360613079978 -0.18299286818788485 -0.21872271748932653 -1.0452693918152902
P 6.986492764625113 8.281965080426673 3.1751113444489802 0.6837925990534675 0.3218771760923295 -0.39667288104698134
Ni 8.484752260051264 0.6588921452204811 2.9665279906535424 0.3154021098909472 -0.2526813338229584 0.24700485226347138
Ni 4.584102515907984 4.512288632820527 10.261760104753801 0.36572065563984113 -0.14954050206671018 -1.3448502184032645
Ni 7.0207888840982955 1.791484817927912 6.090586952384836 0.7062550418220417 -1.0227583551969677 -0.3341364530756568
Ni 7.951695492440885 8.694066286451612 5.718249376595872 0.5193240149220153 0.3103925724914977 0.06320825722736856
Ni 8.881543693198218 4.324142758125338 0.08111858556066187 -2.433282261648958 0.4744032431499249 0.23864388189328575
Ni 0.6051426800158 1.511656707229021 12.119346190091894 1.668812559159397 0.2951958101464013 0.5805278401248454
Ni 7.127474511836879 0.23610287943984976 0.97899916353238 0.938479650452545 -0.6407703298556706 0.1911556065043353
Ni 1.5121673424675226 5.182112085855769 4.505178733445172 0.0877329818416102 0.33282313358087195 -0.5271458249592792
Ni 1.0993233942774903 4.2856872825276335 6.6807345965151095 1.33683120475353 0.31235792374798466 0.7639014886909167
Ni 5.135152212467746 5.016675552858305 7.822424932317227 -0.3076427776605024 0.7240378197267595 0.5466491850995295
Ni 5.885136113670679 7.06846364682022 9.047032218147239 -0.21725461758423228 0.29565449495037466 0.8383560082560659
Ni 0.2950533966555965 7.62411834480356 3.619128181307977 0.8112241850362802 0.5255221733129272 -0.6638925176954308
Ni 0.3354037932019949 9.241857201762029 0.7913750652081682 -0.19012202303349837 1.0002200648851354 0.32905749589085265
Ni 6.372031455720511 6.356341027482916 2.261951631713587 -0.40606203557136517 0.6260538495811024 -0.3572455282892944
Ni 7.788997821177205 6.595596847413586 4.608613935783768 -1.5158154660026542 0.912006543862681 -1.0048776182618047
Ni 2.307133566043917 2.5593223839242745 5.3831844595067 1.4933710209562088 -1.0104761953955048 2.56529169681044
Ni 5.160516857405683 2.8165804170813935 4.530683570966769 -0.9441365916280063 -1.3462054468795783 0.2262228825211136
Ni 2.5949461550175603 2.9920439693076153 9.646582978087592 -0.755228386396951 -0.4846583452190298 0.6126316626379256
Ni 8.454819750798006 4.6584417223567565 5.3443752529528705 0.10103921203221308 -1.2856922199858696 -0.2012998940271888
Ni 6.489115473770402 5.070468654165187 0.20490492322281317 0.34381665647789816 -0.21584128217647344 -0.568410230925705
Ni 2.5039323869624432 8.637673587566907 1.92165502449904 -0.6975644560265792 -0.5270180411321634 1.6460580390717006
Ni 1.5703611911025805 3.0800589158711684 0.37229858182529696 0.15714993898285196 -2.5554867949048763 1.2946869672853123
Ni 3.5597682274737226 2.079696630815293 1.4736431632195472 0.3069429233800004 -1.1492820846535303 -0.013923294949311505
Ni 5.272457385962302 3.4261953333587614 12.414256608880711 0.24029504434346355 0.8891504652001139 -1.5929878987195984
Ni 3.729169146777371 0.7242627400257527 4.1828731983245975 -0.22390374746963373 0.3276811843686164 0.13451086142709737
P 9.1160181104411 1.1686398068348203 6.180529314866806 0.46607826822399734 0.6393731923978279 -0.0001702070292771262
Ni 7.416605468153564 2.6614494316245993 3.7976258352786054 -0.8419282989883564 1.0281980381553002 -0.5173059560507219
P 1.5460178166416487 0.917309784582852 9.298962004697518 -0.2062181572644126 -0.1650044020302642 1.258482492340297
Ni 3.794948249773444 5.5812988624851485 3.1988224596418764 0.44167875633371034 0.5604220705139057 0.2999302395075931
P 1.2582609333303874 6.766687505142822 1.399219469849495 -0.8330047712464815 0.8365760335375075 -0.03956670654902863
P 5.702644363707263 7.0856581279421285 0.010020520234814626 -0.45477569872698453 0.9777900180163933 0.009412037342519275
P 4.0133887205273755 6.688848126241047 10.259830831979972 -0.9211491295938974 -0.1823963722544665 0.3423750389353652
Ni 5.245310159828143 7.011625302636456 5.314671136915378 -0.30865296409257165 -0.7788275138731297 0.36530722225150636
