# total energy = -340854.62198609876 ev
CRYSTAL
PRIMVEC
9.42251646371170 0.00000000000000 0.00000000000000

0.00000000000000 9.42251646371170 0.00000000000000

0.00000000000000 0.00000000000000 13.79080528719780

PRIMCOORD
 96 1
Ni 9.26955153604194 2.0139969809570695 6.8655179577252605 -0.23798105149830628 -1.1648531996189098 -0.17843301673134432
Ni 1.8522783273208512 9.257481292185505 11.17616574800176 -0.4827922385445685 0.5972019583464165 -0.6043701939600817
Ni 2.5925206595655017 3.9592755478275024 2.1151100073609763 1.9782211704710706 0.7096463268917779 -1.0177537028935246
Ni 2.129997583702247 9.18280784756236 3.2885280450432357 1.5875150485304854 0.7217287119776087 0.5505739740752325
Ni 2.2088828932776368 6.6547748920979055 10.207816536407165 -0.5777633900058308 0.19849713447107106 -0.44186413287163906
Ni 6.094804148816031 7.921066907606346 12.177832978547452 2.3079168141665543 1.0832960075707085 -1.7658398218187397
Ni 3.9582673385436316 8.212750333695187 10.760000511911553 1.0339567950159483 -1.132745777561404 1.1077641679154018
Ni 6.012931901455715 7.867038197010874 5.228011764160579 0.7218549531428278 -0.7586438398364032 1.848982870296822
Ni 2.541271591388179 5.682983635163142 13.579295706969623 -0.5996861582208511 -0.630459949068598 1.2843719585125493
Ni 0.9072413642236838 4.468185673265488 3.240770019292774 -2.4257059919635964 -0.19825056567790372 2.4029077631221587
Ni 8.144342862658716 5.850911727286003 3.106793139241346 0.36455363191493345 0.3555843385367876 -0.43263207275040977
Ni 2.8309857114926364 0.7299604820525022 6.828310323892091 -0.34602780519660403 -0.8477356496987529 -0.43005634160343353
Ni 0.9788110318551736 -0.23094023011312276 1.4575361251353995 -1.4826675184957754 0.49100202804887044 -0.44793193633227374
Ni 6.081094387058722 7.540274741353331 9.432000434720212 -1.265888297886065 -3.162948483306088 -0.7576783905993402
Ni 2.752411344967412 2.898677071262058 5.930336004815015 -0.7777152546455574 1.0769608093813 3.352660672495678
Ni 2.4890331589603285 5.877332464033423 4.53678913264873 -0.1712151588266664 -1.4716801662463364 -0.21814113395424367
Ni 3.071938307821097 7.675996671492357 1.5817503356632894 -0.20296494043443752 -0.027036949513134078 -0.2663557459862574
Ni 0.5105882756572134 6.821996295470392 11.883647874282277 0.7960125102928485 -0.8469697180670058 -1.004889959556979
Ni 7.977357022203023 2.106563784739753 9.354978898942484 -0.445191140362343 -0.4973202569574145 -0.8733304674487218
Ni 4.61894594001253 7.052339138026529 13.422935638564596 -1.6148132221248062 1.5014262871605173 2.7826818115312717
Ni 5.02027919260983 1.6324981259536782 2.859730040851294 0.3390822271167064 -0.5664176259757084 -0.3855412899101941
Ni 2.0707676439040026 2.19284576990242 11.540959423197911 1.936531761152084 -0.5899015680302614 -0.9135924002925622
Ni 7.678371145693622 5.930767556078577 11.428151169101103 0.6246749669557049 -0.056752217189379686 0.5033253255009139
Ni -0.030436613352893545 8.704360718523949 7.0009440208407945 2.28149153009549 1.4028789883122226 -0.4337319906828079
P 3.8504266352361376 3.9331469090969056 4.548221472126491 0.4373338491014533 1.4070266919320091 -1.7845564243916363
P 2.1933263182526765 3.575100698089351 9.46806417502944 -0.6471021856109693 -1.0593204705917176 -0.45665928890294255
P 9.44550761236908 4.9171214800881655 12.663048301311138 -2.3124874642563724 -0.05466808096684134 2.128754118358037
P 1.1507625385968472 1.279737946798942 5.177371390560247 0.3340096976898054 -1.2035737561175595 0.5270260115519634
P 3.6097661369244993 7.523606309361112 3.7760057140597945 0.36207791668093126 0.48310745579214215 -0.20703705362128216
P 6.753240191317069 2.511939296989208 3.9614917237486837 -0.10407491353474335 0.4698657602908875 -1.0146367545310977
P 3.805462385678832 3.7565972142194473 -0.5140632998057327 -0.15140789429275214 -0.6016106289370735 1.130458267078808
P 8.685572220280598 8.275155661611791 12.510771009379953 -2.175885267517885 1.0973709976065358 0.9402280006022193
Ni 5.4653894576638 5.776860168763191 10.749726199732741 3.437718678608286 2.0668401544620596 1.3080595319374764
Ni 5.029673441731504 1.6563653606830695 6.237650443810522 -0.26570731376898116 -0.934004902510643 -0.17724413862956573
Ni 3.982134573273023 6.6766257082595555 8.657302785762193 0.8822591373969193 1.3197269409730754 0.7436553368473708
Ni 9.211621903544389 0.042386248995931 3.830878682149049 -0.5010617262777177 -0.33933136701303496 0.6375034861789408
Ni 4.21169534694541 5.479721105521441 2.203316070428002 -0.9599984983609273 1.8358545604449803 0.5705213637314368
Ni 8.113691415925707 2.188228736733292 2.086121634820522 0.6541380094118283 -0.39290647202601364 0.6583854718342727
Ni 1.7628869116565267 8.184916219447013 5.2776995213254025 -0.41534526064550403 0.4467782823438047 0.11630436572139968
Ni 6.949718508955152 9.586656912111 13.86044947067785 -1.895578201557858 -1.5625522079375607 -1.4117870894351299
Ni 2.0523183562608334 7.3599843073572115 7.388258453133953 -0.7722835421070248 -0.5784897266488941 0.6596167731382123
Ni 2.7417733236450736 2.103388396621394 3.8890485888217285 0.16330824527476392 -0.8271249154269368 -2.22243483314265
Ni 5.423176582974629 2.2953721738070807 12.78021541162027 -1.6072878602820384 -1.7246998572453203 1.3487354123902837
Ni 8.765663611989964 4.186961240682224 7.345437826119457 -0.5258805850936105 -0.0691773303266099 1.1731771461035732
Ni 7.294921829739192 8.327139686089506 7.368731229583542 -2.0541784998339914 -0.6777142540698715 0.15910423449574532
Ni 8.041938951470788 8.193123231468055 10.030301033570856 2.923096182926998 0.29315024047128224 0.9152785297457333
Ni 2.7412927752948177 8.870847165596041 8.973042839165528 0.3680670443848306 0.33545054390139006 -0.7170379913701587
Ni 0.7133061838352898 1.107466074490431 13.380735955398764 -0.2043631063335448 -0.1414492404181435 -0.558079024203026
Ni 7.466637773564074 9.22656601498569 2.0829217481588156 0.7562331735123815 0.4977563160535686 2.1197565428451166
Ni 6.205075861424822 0.21269918008839778 9.25983597910176 0.04424302897877542 3.174244882155514 0.3155687173757985
Ni 9.293739136338168 2.664405039253826 11.421255771400759 -1.5041033197720484 -1.0781597147854076 1.8386136112473561
Ni 7.481902250572211 7.286790197851523 0.6181491302195582 0.07180705463997311 -0.9996927316267556 0.00877697486168166
Ni 3.448245356138387 0.6733471751339861 13.190519842340684 0.08226913051356154 -1.1667378182361325 -1.388895272438621
Ni 5.896073849693415 4.5485314729249895 3.964966747897203 0.033106809856297825 -0.6585654490555626 -1.212418350992383
Ni 5.934866350830762 5.2815278898491105 13.303507124254258 -0.35923864745992323 0.08747150065010742 1.019998275953327
Ni 7.5052135568179725 0.8102280748236291 11.666786768579994 -0.1028109592206552 -0.048662241092393616 -1.0430492442355197
P 3.5899034717805764 6.203643638890725 11.89556264661363 -0.12176873127008062 0.09159066502480355 -2.402018161428354
P 0.46992917396720324 7.287883209785439 8.711431375034385 -1.202521146483329 0.11116138806787954 1.0252243002389572
P 4.76690771930808 0.6346649174416966 11.239492598048855 0.27241249370329856 0.7552098744541896 0.928906147831497
P 7.211061431361149 1.085963891445634 7.404794027641103 1.004042266844703 -1.5474328357976188 0.6007642217763783
P 3.7412008219779054 5.1208834031134645 7.395057741164245 0.39736039403230927 -1.218377139678979 -1.0652507200332235
P 9.356332914588206 0.6362271707058628 10.372119786366426 0.46167345428808226 0.07765605722158239 -0.19880232441631568
P 7.254998626601241 4.059719575547719 10.273736463042308 -0.7952676617070239 0.05786910440264228 0.30097822115613326
P 4.918026041688647 9.604748144120645 0.9702318304255997 -0.3757824107512173 0.43958073615410104 0.612318502272881
Ni 3.786287564251943 7.082001220509009 6.100239056432262 1.719483088931071 0.45178344886787997 -0.8227614962519185
Ni 7.128840550883981 0.8818222409984652 5.243250800373704 0.2461677010741567 -0.9881055410097884 -0.12733671227616133
Ni 3.8647300155437634 4.7025425079237655 10.257491102048647 -3.5127187862642604 -3.2903936961356557 -1.3451438383842835
Ni 8.944003585035045 2.7340751275243025 4.424076988221972 -0.470298476952932 -0.6533360823358232 -0.09574119685806738
Ni 1.44006206796775 3.34646333105079 -0.3330718305692395 0.40267923514206133 0.5533163127070599 1.2700198035559354
Ni 5.629350670267881 3.5533817971611055 1.4457315962491062 -0.09456388872051456 0.039365646281816075 -0.5380411317155442
Ni 1.178389357478243 1.13912573050731 8.599918716979934 -0.5481468526909785 0.7314883624675337 0.8055960402162254
Ni 3.5525620382106684 1.895678439110656 9.342015400505572 -1.1183332016804997 -1.442203496943458 0.12569454868704802
Ni 7.702200690356326 5.087094258328785 5.522211002200761 0.024147286670164865 0.10890293105100599 -1.6276484262162614
Ni 4.789333308986704 3.1771501289771895 7.952178173152933 -2.814562976510585 1.9594498034008385 1.0947284177773662
Ni 1.6749842536263293 4.721736174383998 7.674142320211368 -0.2761616763330857 -0.06829904148671463 -0.38161110161785244
Ni 0.544024076066706 5.3448377793661965 1.2131028511484165 -0.1773976334882945 -0.28196131373399824 -1.801189662072943
Ni 1.706954852693374 8.317340268750947 13.227630424252137 0.4688162359804507 -0.7019803257060878 0.7512349489668417
Ni 2.9962943439807685 1.993305134346038 1.1914122177701858 1.042413924644366 -1.3970577536447553 -0.19967624238083675
Ni 1.4325052095970547 4.499242288215378 11.281403009952864 2.6137896444108275 0.8390543198746712 0.03757435870934819
Ni 6.697845215804201 3.0050761295187836 7.19280153630308 2.609337265066429 2.0784003484958333 -1.3552739848397497
Ni 9.291713295253755 6.303428090443923 6.665289478451845 0.5550808608066505 1.1728904681010897 0.8024765207506372
Ni 6.408131095699744 7.570455062252756 3.1508264441514884 -0.5880593726152001 -1.332772204192808 -1.5943580395942476
Ni 8.04819550254079 4.0091583510874305 0.5749506602865274 0.7241365500881529 1.011134397804794 1.5692275630752073
Ni -0.0688437335583698 3.982643389173294 9.626768565582385 0.42099140318768785 1.239881332299342 -1.8211717616218246
Ni 5.527568645180284 5.394795962759498 6.0324289729527765 -0.9734417683500268 -0.0632059432345234 2.255936050223889
Ni 4.435734525848186 -0.04824893886905662 4.65572108033047 -0.8757573317226596 0.19723343726729903 -0.2707890991672627
Ni 7.105029851254621 3.6088615753240174 12.48167239339444 1.3903340617676765 -0.8001075062978286 -3.1353322642507164
Ni 5.507102938969373 2.4354755741984415 10.440011845740957 1.631618723717919 1.5217737404686178 -0.9009546569238934
P 0.6327427240406718 7.154253078347529 2.1066975844764917 -0.03317700097260093 1.1745213188362933 0.7278921604758432
P 0.4247453797714474 4.433642727147071 5.391487717156068 0.7474749677037772 0.673942188621949 0.836606886775443
P 7.050690197608983 5.721173095233501 7.8611453550844 -0.09762093037928349 0.10023574229431124 -1.0655749361418616
P 4.665926608137577 9.255483718651107 7.818600807808385 -1.1218144753608807 -0.593397496998662 -0.6622891777640529
P 6.233136116073115 5.639640058473367 1.9629005575498282 2.1727570063015484 0.22205923806172725 -1.2096500442186264
P 1.1272533595009804 2.339733382297398 2.174217454442489 -1.472649215027825 -0.5286321796968185 0.20288009403011512
P 8.250167147398468 7.60666579382206 5.264929184480262 -0.439306913667424 0.7989379114697596 -0.8591436344253784
P 8.067078225950857 1.812600109616364 13.634762293609194 0.8723619328878653 2.917113740091318 -0.2551133403032187
