# total energy = -340865.2834282025 ev
CRYSTAL
PRIMVEC
9.28423413619047 0.00000000000000 0.00000000000000

0.00000000000000 9.28423413619047 0.00000000000000

0.00000000000000 0.00000000000000 13.58841512308427

PRIMCOORD
 96 1
Ni 3.450624904058975 2.616668567015946 9.244171801314275 1.7241313863363599 -0.70646767205348 0.6238959226978352
Ni 0.9055804902047565 7.066407050307301 0.5187408027442948 0.30841359438825594 0.8370676284619456 0.7061704525280353
Ni 2.020267930456301 1.546391332638174 5.388621521572631 -1.707830078073175 1.265974686952284 0.5885283418318187
Ni 7.727871600142733 6.017622818103252 9.17465331246918 0.016481542594790972 0.5410272109270619 0.6012571022523967
Ni 4.824905103091765 3.00774836423569 3.771886331668953 -0.13523462696699934 -1.7698191181814618 -0.2416944957941515
Ni 7.119577859572488 2.5351622749714067 4.566984434889996 1.0976288792536129 1.6200736991927969 0.8809141933332505
Ni 9.248657014856446 1.8267752054875976 8.835404609519516 -2.4582384173736633 1.439124086687186 1.0273655149516758
Ni 0.3959335948596673 3.1746788951573004 3.885009154859235 -0.5133487711751868 0.5643468594896086 1.4863308262799755
Ni 5.549511729723519 4.1619272230816815 5.748320607195321 0.07586579809037902 -0.7608272206409672 0.2940313575246549
Ni 6.377266198320739 1.9570330113179757 12.33950391730203 -0.9553301463509806 0.21231681396298274 0.08417997438302921
Ni 1.5189935575130533 6.21183042910538 3.4952662873643354 1.1781429747492806 -0.9010652143598288 0.7457888382506058
Ni 2.8223050703186576 6.552961046327444 8.677697965275916 -4.294872022076513 -1.4784018012408862 0.5262971038057388
Ni 7.717640374053989 1.0255643624690691 6.223915716763925 -0.5109283346591523 -0.3608705266363914 0.654271449665899
Ni 6.028819604548827 7.16099482834008 11.17493600038589 1.540516825404076 -0.854786128787631 0.5563481575548483
Ni 7.084901244834323 3.4342382306954247 8.289952136557504 1.023586764635534 -0.5028465860922825 -1.2746071658163016
Ni 0.17385007067110309 2.968596748612974 6.539574109034015 0.33803681657132745 -1.7752001799877168 -0.8061449707411601
Ni 3.5457975888463737 4.253089118694546 0.23022301231197775 -0.8460703461811881 0.3394802338860734 -2.819814968938144
Ni 6.931646390889773 8.781158685933935 12.93250281045068 0.7340437818995359 -1.003068075856892 -0.7272393573831927
Ni 2.41030789344561 3.936403890121902 10.849751983826279 -2.443130358087631 0.4710487248553953 -0.05613798064414848
Ni 1.6570036989006918 5.925764604925364 6.430486214027188 -0.25337630300745395 0.14105354764162156 -0.31794801624125246
Ni 8.713727292937067 1.7724717196499726 12.883067977027698 0.9804716786136147 -0.6130450960262603 0.3238258151782681
Ni 1.2686720350042398 8.41146976431171 7.881716002959004 0.9649674123304283 -0.40510712785726366 -0.8574287086168008
Ni 4.179957205898687 7.956180203362607 7.88160737741886 1.6288090221832658 3.4860798435204927 1.010710422893498
Ni 1.798133342979635 7.085021939878927 11.162557330926614 -0.5942248779959638 -1.3168074533334355 -0.5835820535701368
P 1.9450749176679738 3.9334700721146034 5.547579680586433 0.26969740876498066 -0.7865436515704648 -0.1751774859085241
P 2.767964447544231 6.373812463198223 13.261546283167359 0.8152302208718798 -1.0304667795848188 -0.29246992657480597
P 5.344033058402212 1.6100533265497137 5.663692027189216 -0.14004850341587494 1.1409720221259383 0.26318171913364996
P 7.757906097780743 4.24160452098876 6.276271370266325 -0.4494404025570002 0.022753748756747908 -0.7449390886558009
P 0.72389266902175 2.0334422587865437 11.05773554153483 -0.003850226984025628 0.005896825100409199 -0.4520968663432407
P 4.688863219354593 4.258362563720324 7.980231940481935 -0.7573528889391214 0.02581927505594908 -0.011668694587179904
P 7.445473048471841 3.1912234005022566 0.29048326281252307 -0.7415768570517873 0.9011184361952674 -0.059204278274298035
P 6.009861198311791 2.3294979189660943 9.789243620674075 -0.007463655366896824 -2.826470012360816 1.2336839452393784
Ni 4.115663884061528 5.660281927967442 11.304773230406992 -1.4832789268275293 -0.6296883610098962 2.604265506970476
Ni 2.6164457453951386 1.0122136336890204 11.416728096934875 1.1458640601109167 2.2719571082424936 -1.0945235008554117
Ni 8.486672061334236 3.5104339407773857 10.616832829902531 -0.6098993513084271 0.14333745857979185 -0.4957449420504946
Ni 2.489316726490266 2.2965667402575876 3.297473105114048 0.5172172529916577 0.8887576006370694 -2.1508488933745475
Ni 1.6087071125906687 4.9758017615494365 1.377036688166862 -1.3669079695342523 -0.04889364037690934 -0.1194598806312459
Ni 8.70995789385174 9.048312525047914 1.2717544007587434 -1.2047533782479574 0.04701159286284807 -0.5722720278739564
Ni 4.216397825134913 6.106612202913243 6.705421169824449 -1.1590121674571006 -1.092068611557016 -1.2364427389314385
Ni 0.30824864495482024 5.106152409721818 12.081215593425929 0.92544518586609 0.6685760392140292 -1.6285413703441758
Ni 8.619325199588294 5.246576452001537 0.43835233249747296 -1.869933247296244 -0.7032820752366469 1.771959304452916
Ni 9.24161028109841 4.618330892134821 8.065879000979812 -1.917782762679355 0.8354820291423805 0.2835759665192858
Ni 5.933461235077424 6.743909891125262 4.97829272158538 1.2355852760271495 -1.556224723057636 0.8617049673946514
Ni 0.8953139840260514 9.212522775348832 10.076651945119455 -0.3895558103862259 0.2023301350639161 0.814194580518514
Ni 8.28808229178956 7.832170687149039 10.67393087023445 0.2520357298191595 -0.3407866114023228 1.3392886651550868
Ni 9.121379448204369 2.754418749845976 1.6173200966582981 0.9829625633562684 0.3362766393471112 -0.7309466310314509
Ni 8.187701151615789 8.967159033902986 8.580146659686397 -0.9759928169066546 -0.40760572590940125 -0.7060449826937647
Ni 4.793394412215906 6.243814615925453 9.364102753443646 2.663943382447083 0.7210486551914485 -1.9785173615552507
Ni 0.7747498471242193 7.941455407920911 5.025634888619611 -0.24945974156186718 -0.05846020101942189 0.517429883223096
Ni 6.001997451944127 1.0548746898394543 7.922711467493902 -0.6069919478536451 1.4064983302323648 -1.2137658661592128
Ni 7.145926516232974 3.9162106807362234 2.5899931053116094 0.11793701622881624 0.26580938656448416 -0.41340279220715254
Ni 7.931140623724365 0.9747981698617629 10.787707303512434 -0.2984935070610666 -0.1303580156009884 -0.6811960419708849
Ni 3.5922280440821344 0.3156871733961102 6.500208956024691 -1.1749311526802024 -0.33491781132637155 -0.2963540921205606
Ni 3.4637806639208177 0.32014267738884 4.045638476029094 0.7283747565392166 -1.696965624554845 -0.7053929509320626
Ni 5.977013577711087 4.76021255918399 12.76324472201505 1.2377745703689844 -0.07966306034928215 -1.1822821937286347
Ni 6.434809881894273 0.8458364431257485 1.1635429374604267 -0.05628813306876758 1.140821612591003 0.12736036642524518
P 2.041547395243416 2.961308624765729 0.8152207524267995 -1.232662960174032 -1.1374619520901506 0.938665798321422
P 0.3031088929015275 8.306038000732965 12.541224330619048 -1.0801032116650235 0.9297913786499278 -1.1512870308987013
P 6.377953231651562 7.611995073088638 7.937998887528135 0.7942926993882643 3.002501104518887 0.8259866880574355
P 4.88606963800342 0.2813605742872965 12.579719550883802 -0.35179967468337475 -0.9397027242263687 -0.27448968794730144
P 2.885530705222782 7.513442927052326 5.55552884190874 0.2457915486816606 0.9482737537248315 0.22941516420616617
P 4.442766023406921 1.266657356182772 2.2351311057072825 -0.31846995018299346 0.37072993592897446 0.14661484377948297
P 8.016611283772438 1.3521465846992453 2.85599941307843 -1.0204687878318426 0.19924532549100524 -0.3911072140337458
P 2.978038814794692 9.16664937416509 9.46295849393831 -0.9782774991757733 1.2000210057692946 -2.165670531768412
Ni 4.438068200901563 3.2456568656186864 11.423916879476177 0.41840487340743426 -1.317564386104118 0.9673647089180113
Ni 5.409672594198419 3.170565979406563 1.043416087989429 0.9076274409583789 -0.36444975934721746 0.9165211439035827
Ni 5.646819788376989 8.817218651567947 6.089363024192483 1.8218919276173011 -1.460246470488098 -0.9223827448906825
Ni 4.7594326835111636 7.382590930233127 13.393775131918463 0.2863159911582682 0.7978729605403548 -1.3206818486871772
Ni 3.5374510623002933 2.548624414561859 6.891745537567091 1.521622302492418 2.049443042031535 -1.058263490082113
Ni 2.0525027915997844 4.101598269248054 8.038539716530154 2.0062855328074543 -0.5356266087367807 -0.2721980636996474
Ni 6.023898960422663 0.8206408883529417 3.5395650824277043 -0.11383662090719748 -2.200528519987862 1.0726125597149334
Ni 5.838381392632027 4.378667670487967 10.003940608132872 0.8613753519693745 0.9537643445257574 1.0485498623387748
Ni 1.8365143671637252 1.3884108034856644 8.035916920368566 2.1488861132212214 -0.43960464741350097 -1.2713603767442299
Ni 4.031307332117492 8.135152386042021 10.837494937835029 -0.3371520999735291 -0.39397965048553435 1.610506367219336
Ni 8.94645519163629 6.985476380783181 7.293799299611604 -1.4247045688277462 -0.5764487849594653 -0.15683549306622668
Ni 4.082222072472002 6.864409966811111 3.9270927316424094 -0.8730247632828448 -0.12126248105762341 0.3455439235816501
Ni 5.032259189721533 5.512031276256859 1.124252058324706 1.8732574265734705 1.169705899725521 3.313670150165093
Ni 3.2498533394772275 4.524170188875257 2.8895359238567973 0.9969336808243798 0.5176749093543664 0.2707860138434691
Ni 6.359783985321552 5.677420624301217 7.386118939229247 1.0529883577261028 -1.531791529715936 -1.1767833753975927
Ni 1.393433574188033 0.832672327453126 0.9546773775028465 0.20383371619263604 2.6081818113057467 -2.5418375795525576
Ni 8.327679550653892 6.033768101377594 5.125346635507542 1.164787122267665 -0.6648813639712614 -0.3453374639977988
Ni 0.5980875819138416 0.740525374591609 3.55282668255943 0.8385683813771879 -1.361158468644985 0.008148854359379515
Ni 3.318426693280732 6.982301172686674 1.9076093189760346 -1.4557946053643316 0.9151420041678691 -2.0234790138676053
Ni 8.98634954599503 7.367290512271014 2.846895293021604 -1.0467616600901006 -0.03702928483915558 -0.27805015160505014
Ni 2.6065858886744073 8.578650969556728 12.726121711565103 -0.385537176145136 -0.27921897510217075 2.5511585998431676
Ni 3.8005569753029365 1.8054400352952806 0.2633519452089512 -0.8019666709937543 -1.5545059405943162 -1.555641082640024
Ni 5.779621474378252 -0.020333401322103404 9.815849450621911 0.926970878481997 -0.6094702341908084 1.1958460484559985
Ni 5.709172705266285 7.865408245586155 1.9813539912291132 0.21151334422508092 0.38925036333066515 1.2289173770886705
P 5.448295008471717 5.01309653033209 3.585072684783954 -0.3751082675023282 0.8519126638945779 -0.2783113756862368
P 0.3941621629742477 0.3977653742673889 6.180065350212431 0.5063402010678377 0.3144849973933164 1.1426807772869287
P 1.9557425027641324 8.76022273781223 2.2376861269592085 0.7094563223681588 -2.8315427988980333 2.487594501938277
P 6.995911860024332 6.681306299912557 0.7667412667030301 -0.5848506358699154 0.8155660069447438 -0.8409165698943905
P 1.1556179151470403 5.5024406623279365 9.590526657120856 0.09857866630686249 0.03574193348629974 1.36813875661756
P 7.547933857106486 7.912126512082126 4.370822492588703 -0.09817963109623092 1.238849805711034 -0.1402901871130358
P 7.533292619772593 5.472851807931542 11.200060994978774 0.16118065740879983 0.3622784627275116 1.4122002657131485
P 9.05658477772039 4.972710111560732 2.8010748119728035 0.39423007593344367 0.914689747121799 -0.21666943450472362
