# total energy = -340870.8225931487 ev
CRYSTAL
PRIMVEC
9.18517690582025 0.00000000000000 0.00000000000000
0.00000000000000 9.18517690582025 0.00000000000000
0.00000000000000 0.00000000000000 13.44343485357784
PRIMCOORD
 96 1
Ni 6.2266590367151435 0.9583538115537885 4.835482233579686 0.008883675642875023 1.4381545236850652 -0.6051194134212804
Ni 2.8599518185136326 7.259045374804327 3.474859003182114 -0.5187203198997453 -1.1855140704023712 -0.7100620742729578
Ni 3.6625801393873854 0.8109813208280064 5.139774287994141 -0.599825769122509 1.0087214174879273 0.9332739378818894
Ni 1.1335518774515714 8.66541537919812 2.8124607794071057 0.0017547779075776232 1.538617551498834 0.35616977872661243
Ni 6.216628823442606 8.40140583698883 9.408979337958572 0.32781616728458385 -0.03032256224294132 -1.0973758827025424
Ni 2.5816593260856666 3.2892761761799987 5.2688186765550675 2.1283291150054766 -0.09824030913083727 0.41875865720242716
Ni 1.4087489652340748 3.1756647219968346 0.34037877777081343 2.2824286971977785 -1.8278841406449937 -0.43388214310742695
Ni 7.7589210769270665 1.860751524887524 6.398953668166544 1.5889394396818377 -0.9725084579024799 1.2649429032536603
Ni 8.390484661548312 5.376800535761365 8.759930850420107 0.5126807985738848 0.5963100426597666 -0.1582974223237338
Ni 3.978825783135978 5.377425127796652 4.592277117251623 0.7403694670072475 -1.4602737241816077 -2.6174946040662403
Ni 1.8011213558716694 8.105707434165756 10.236275370155333 -1.5573675784128276 0.1085936273407033 0.6511017936886657
Ni 4.594048937892898 0.3675007683854183 10.615339357852838 -0.5898455179813455 0.4937029719198013 -0.39696572969705185
Ni 5.19906736101448 1.4077937068271662 2.3195299896061297 -0.19100905362414203 -1.0693698844079196 0.7614792524026692
Ni 6.205349426099496 6.222351188707066 5.4769364167832295 -2.266145129546407 0.11478587219434425 -1.2934219845299597
Ni 0.2337195840510041 1.8382845819711993 10.861542515950275 -0.15756465792276736 -0.19954383056803054 -0.2554987486670955
Ni 8.12469319500306 6.194437435835965 6.383238748855202 2.840024868227115 -0.7221421453659435 1.8867006965625701
Ni 1.0291990816738261 7.316232286740973 12.550240061023523 0.019712647937578955 0.17588093973345192 0.7560999903686269
Ni 1.9613935091615098 3.811756598873906 9.967984616951236 -0.5834190456297114 -0.2876236542260982 -0.8866737215248471
Ni 4.4055691060682936 6.748772052329469 7.399225871947328 1.2215408821189413 2.1420462074812527 3.0071771698383176
Ni 7.4044099858402035 3.9191680585891553 11.510053670634854 2.6492058191265926 -0.7217112284761119 2.340211412534202
Ni 6.538624387986627 7.320135986961512 1.771643367359257 0.055730975013716925 0.5953463931949166 -0.25034934325567204
Ni 7.800511558335536 9.192157724015157 2.8486641545112326 -0.006724206097711 -0.6410096995599863 -1.0253569691620792
Ni 2.760816203265925 3.556913863300141 7.59711408056228 0.7203827394726755 -2.5882778732929683 -0.5681423219762989
Ni 5.830447242095936 8.310160288775107 3.783022609697643 -1.3810462087078474 -2.1538992501650966 -0.021619120931672443
P 7.110410840760187 0.835633417350134 11.06679723651081 -1.3639977378659929 -0.15841569306915299 1.30318394901273
P 1.3384639909103966 0.47740324810022117 12.181432241952498 -0.6223743438469862 0.14573655493958773 -0.32822214447375087
P 4.033734771179228 4.240226735080248 8.981881467194462 1.9391861680557958 1.2285409675858583 1.3015219879292745
P 9.174044554991855 4.672407682790349 13.044662523567593 -1.1645359254888072 -0.00884793730893315 0.12049294988145055
P 4.710948685438304 8.355525877926263 0.46807110827888604 1.1289287178081588 -0.8950408625426197 0.9361905973080522
P -0.1204084851553966 7.427106558181266 9.059531116428323 1.0501094935164108 0.2708551765185077 -0.0260820417990325
P 2.2329624520331595 1.434421534919736 6.722403246228003 -0.1545955479921144 -0.29687525473135323 0.45444402641917864
P 2.8643790738225734 5.631762678635994 6.314784380305532 -1.5556734785398565 0.23944349497644568 0.7659473154763518
Ni 6.2907440165709065 4.680995823275534 9.944001201313945 -2.9260930607717928 0.17698445721027584 -3.4559652835232995
Ni 6.132308898678967 3.613926256873987 2.5763401900910456 0.4608848969485159 1.1250790050447657 0.03765946222398676
Ni 0.3991290068310734 5.309344595950455 11.083346169892797 0.43789306403903294 0.5451749145468481 -0.5948314012317111
Ni 1.766860645700823 5.483743551450151 0.7175607227031681 0.13380303672679536 -0.09384886493136095 -0.8999758379503919
Ni 5.975242372158463 8.130149190134825 11.907858174944039 0.6858361118460575 1.4933784771553764 1.7425019184237476
Ni 8.183404846319963 7.157549169070317 4.317614606769909 -0.36786418434540513 2.2055699390665113 -0.29847011002229884
Ni 8.371921418852526 0.2530525445785103 9.037483936100418 0.5449782251550098 -0.5583456476008513 -0.3613659782155712
Ni 0.27948105433040765 0.0627218995905211 7.091532546493661 0.5210782786089606 0.02621548205310324 -0.756250142793246
Ni 0.4966599716587145 0.6617543428680438 0.8017594031305454 1.0623816260155445 0.8595125877290231 0.0012940362210751909
Ni 6.7807640237839095 3.3149579310426494 5.042497752569108 0.3907452027086367 2.6677933523207926 -1.2497564253212088
Ni 8.348545143414242 2.177989167750983 3.185690342680877 -0.20338865823541746 1.1984228080442392 -0.03826341435657281
Ni 2.0338921111396577 1.273864641143221 9.071052083926256 1.2760449267040928 -1.6964010103006266 -0.06610743315203453
Ni 2.871561882228365 2.144307123730475 11.125867109730303 0.3633812088733871 -1.4433597220350887 1.068907085838888
Ni 4.041937134230854 4.336064871788723 11.10339006311929 0.016924286559164402 1.1033133312328998 1.470955886485802
Ni 5.516387670470844 2.4943725891544184 11.152794374592732 -0.18232720957942794 -0.26046149198900953 0.38510240260056255
Ni 4.368506916915648 2.1293444704145745 8.813435424901662 0.9579038206154277 -0.005011080061346209 0.858638926874818
Ni 7.095512483683213 2.0346361104758075 9.356254585003425 -0.36338018043212256 2.6541747330960934 -0.8005456222765116
Ni 8.190762173088556 4.993154063263799 3.593390038160856 -2.7397999245660816 -1.4331511569332027 1.3390672931729002
Ni 6.8659381700075715 3.8979319293894243 7.548031250283472 0.6221393450180447 -1.573636233665864 -0.030743966051076082
Ni 8.520151805109128 2.379824246918325 13.047875498478524 -1.2258235686546952 0.028490651240525126 0.2833016298119766
Ni 3.5803819905083216 3.271438562466384 2.1146252242888957 -0.6880184642093571 0.5500702949659365 0.008933812154520097
Ni 4.809248449579967 1.1542644515629008 13.21046047933432 2.8706536488565657 0.4820329917810408 -1.2240960444406273
Ni 4.763001083437819 4.676908419515206 6.726920516271441 0.44884493506484635 -1.2359616855299616 0.42331388067327735
Ni 4.88940748916736 6.1091438823114395 0.5333951685105334 -1.706269932674907 0.3831609626034756 0.5606570693428474
P 4.754761979678234 3.1328893527567185 4.155110455471619 -1.0520679027943622 -0.892867766150701 0.6787866611984439
P 6.19916780198556 1.0143190949508312 7.647956790752277 0.01670368590792607 -0.1742688580513257 0.18928924271955788
P 3.722366456412061 9.131204889512814 3.328782540929551 0.46989789908040364 -0.19814695022050394 -2.134573296142975
P 1.392068683821137 2.101715458030149 2.488514283270513 -0.2628685587686054 -0.9705847585172057 -0.7658858661107971
P 6.496005166755333 5.9230521965041065 7.8693434376594755 -1.1496345828969425 1.3455994378644633 -0.3509172720784215
P 6.031446470157232 5.9134077606651285 3.3262556987397383 0.7165913907510432 -0.4066780718888093 0.005962645341338118
P 8.422054114861234 0.19357760505377855 4.914422400180574 0.14138059196373715 -0.7673223414470075 0.6108704569724447
P 6.952976907160104 2.118212035903297 1.205611427969621 0.850828943912096 -0.28937637525114673 -0.46063807104503246
Ni 1.9323591646976903 7.252239158655105 7.530448065972466 -1.2333368463126049 1.5853856608923083 -1.04127004084791
Ni 0.5457666833976951 2.443266264384823 7.958217373174509 -1.4863128285578466 0.3562957627815154 -1.6623485487016079
Ni 5.062722593782295 2.454885513276545 6.269869783344562 -0.9190819626522236 -0.7868123318508191 1.3295225869072584
Ni 7.533930166569188 6.51860070214951 10.690757009078249 -0.23207291354398743 0.5656954030977032 0.39468053320730095
Ni 7.753088489538732 7.07282509651914 13.121545210522834 1.1633645308885254 -1.4189198438251691 -0.851294827804921
Ni 8.637373033849167 8.584135748018006 11.235740196878739 0.4834720382204125 -0.12448895841472109 0.5656259833123485
Ni 0.8238901685690542 1.732030454556627 4.914314933609796 0.133884283586692 -0.05026300992061022 0.03189864848080958
Ni 7.157668576371181 5.098305969439631 0.971711814449623 0.03273297145664685 0.5152614148168675 -0.17422720618011286
Ni 1.0467519549007667 6.054657412409707 4.950235405262647 0.6697579753372723 -0.8468715019262446 1.4952440696092055
Ni 6.79645230608198 8.424322853577642 6.395001286507961 0.14790708022834526 0.010254330738156531 0.4546977943011976
Ni 1.4585418096941711 8.468521925251132 5.211616149817539 0.1843380693618696 0.00876591911808813 -0.11650671154019289
Ni 5.006656273438368 6.681003816500915 10.581300928965137 -1.933303998243406 -1.1932019259649322 -0.5822805611498939
Ni 1.2478338495549692 3.9134732488556634 3.577311385840731 -0.005629173261319337 0.9472095741263752 -0.760624874822174
Ni 2.98311585676588 1.0481205462722027 1.0837057589649357 -1.7698828815398615 -0.6079113743441208 1.6282855455796281
Ni 1.0927605064411878 4.806345933651284 7.275506130487215 -2.8508859793113355 1.521316084105909 -0.951712604203051
Ni 3.249678878178251 8.695781574325418 12.3665888767423 -0.5489883747556674 -0.6306049592868946 -1.023401645207921
Ni 7.474795997110766 0.04492653769105773 0.32596999062737986 -1.3107705031107362 1.231559185586892 0.0844944202996545
Ni 2.678957905935474 7.5715985774031385 1.0126464742210426 0.43224126506989435 0.39865263048117155 0.8366012303484882
Ni 3.8796809827112813 7.5494163749734895 5.4372105263036286 0.35855087736427926 1.9322017663181628 -0.007841350421289722
Ni -0.1844851983518694 4.029583071179973 1.685094200140266 -0.0012246164357204716 -0.8797240296798914 0.0389090183603717
Ni 5.386867489741862 3.792614690027781 13.574777665375176 -0.3370754810993227 -1.6765014431632224 -0.6151467157502954
Ni 0.5560752075330144 6.272869662149334 2.7466012233569703 1.4278104614465796 1.0669625605180075 -2.420237769760174
Ni 4.186649597700476 9.380729407609655 7.421636785284017 -0.5573071790340078 -1.0634512049306395 0.12402924516948317
Ni 2.6108038926733603 5.990195840297375 9.207609947264597 1.2044857264088675 -0.6434543044457369 1.806998041224604
P 8.944442685785246 3.823963699092955 5.357208553242756 0.4278631906068567 0.23137691591822732 0.8479333675318558
P 9.040574748157386 3.5543144582121116 9.584012989188242 -0.9900960890772561 0.331767438622848 0.9541574661991181
P 6.215554157734834 5.577515023335988 12.438134975866637 0.23282161878455387 0.012729017530894206 -1.7287462594005518
P 3.4619207628746995 2.762745090433721 13.101326798933538 0.14546633199733655 1.3959976878113571 0.15107545065399786
P 2.8582617459475643 6.451310095524411 11.780657251404905 0.22208443487270785 -0.49677261198406053 -0.3904839786274501
P 2.9187461364234424 5.344643231121115 2.51732359089809 -0.5539464900918911 -0.11263951527530278 0.030864036568708134
P 3.6342989794367053 8.182982328178447 9.260510137100242 1.1525535563159504 -0.48777349380924384 -1.369233018123003
P 9.10633143022524 7.813352435766862 1.226705186926015 -0.3139576641349367 -0.7168269038006171 0.16034941975675612
