# total energy = -340872.61117564107 ev
CRYSTAL
PRIMVEC
9.25142738634581 0.00000000000000 0.00000000000000
0.00000000000000 9.25142738634581 0.00000000000000
0.00000000000000 0.00000000000000 13.54039912852830
PRIMCOORD
 96 1
Ni 9.487153698473978 5.7565248790372925 10.698715995910598 -1.054826439376106 1.2016963365891884 1.3089740733319457
Ni 8.329707625204799 0.748418267579737 9.909473029808582 1.1580202358574765 -0.649816499218339 0.5045779669610923
Ni 6.1632546301779385 9.287877953783562 10.340342530281665 -1.1740420652070296 -1.1373709350382413 -0.6316218305871832
Ni 1.3622264172210097 5.233597200630553 8.729048261336892 0.13754142072330508 0.9911263301139835 -3.1287540968125667
Ni 0.8846917921521534 8.504078527522578 1.452302939420557 0.35057737224049945 -0.6905150053789656 0.3065675423184527
Ni 3.5593201395651706 5.830184743439572 9.456547201437798 -0.08440186058584818 -1.3711114660926387 0.1947816332926968
Ni 3.5148762826713558 4.149968266028264 6.594959534538932 -0.19353207715631188 -0.07225879746541104 -0.3635380461662255
Ni 6.832327106118314 1.5609748305536115 0.7429627008831752 1.8020725788985288 1.3853029271016721 2.5508068729307034
Ni 5.899477934142044 2.2984246058907782 6.78147848608387 -0.9074605763632114 -1.15421988827478 0.6323923902046206
Ni 7.96769927377787 0.09306380808443768 5.757241864655376 -0.9206554777869306 -0.2457866635856541 -0.5216662899019467
Ni 6.925960802126287 6.192775934788298 1.9565741894734112 -0.40756458825882064 1.0516986923804017 -1.705319138725863
Ni 4.6211434599504075 2.7090862136467186 4.8049730215704844 -2.8513253808415993 1.7085325034568382 1.9740277012150134
Ni 6.235785820445947 2.3471426222111003 10.017254933632481 0.5943277221224151 1.1671376247777125 -0.6611977444720871
Ni 6.663294277370004 5.058597201254326 10.206428119678426 -1.0642294778575607 1.2980237449680292 0.29638340269659924
Ni 3.1603708388091407 8.493790940331504 3.2112139079871875 -1.0041790495328835 -0.6814966039304392 0.12989547414227307
Ni 4.585664236139462 2.234784037287 0.38520815574262784 -0.45408587174881154 0.30806649546148235 0.3380643273751533
Ni 6.027804482637901 3.384144363069671 12.403235972918086 1.0202379027679591 -0.8597699551554677 0.43993837660383583
Ni 1.6490299158815314 0.4034880510041783 9.112390404187037 -1.9297841580156057 -0.8250634049122177 -1.1173093884016758
Ni 8.483272067457177 7.164120295885127 3.9823536810896574 -0.1455745754404267 0.10695891995075774 0.1953868709768635
Ni 1.650149338588474 3.746254480197231 10.286438163800089 0.5205326905181358 -1.5507657568255937 0.9434799318806137
Ni 5.462375747076669 0.576167792406016 4.792569632949016 -0.057811511691829465 -0.3053809782095192 1.075304761835116
Ni 5.653445475725285 7.559600311392368 13.474186751507203 -0.564627366844505 -0.8810946847751728 0.7252884043044089
Ni 3.8022626212536745 8.231161421284542 8.680614263835604 -0.7266870844241485 0.6890003685066521 -0.7222221066742593
Ni 5.907896733012437 0.39099769896580633 12.718307207785738 0.010766237377568556 -0.0948243414707528 -1.327799690678881
P 0.31595474617767616 1.4130630103999253 6.304559080932465 1.4646080898909033 0.7808764259823584 0.6598705410202313
P 5.450728200068069 6.736186273303884 8.970013713004953 0.8913243329229812 0.6746325298207543 0.1025438216021976
P 0.7573671732361456 1.7449857201493595 10.895863912315091 1.1112986634312214 0.31304697939520926 -0.48723407636600613
P 7.772170357156144 4.675190298412869 12.149015076171455 0.7755120763466515 0.6018785378864795 0.4408927700973052
P 6.881535448087132 8.527262604411817 1.5006009409400927 -0.02479674732870568 -0.06740815424132907 0.3732560447849378
P 1.610692001025585 7.542697953660271 7.5135670592832415 0.836952700150636 -0.3219278268246068 1.3334679447082518
P 5.551929563632066 4.5380841453807435 1.4020676890180983 -0.6589454581028006 -0.7674640092311944 -0.18686083578372334
P 8.187050615774611 2.7622541665128204 2.545026027088338 -1.1508214041161924 -1.3620015333715705 0.14450216831185436
Ni 7.636784969607417 3.5953174433066013 7.700519902769963 -0.08416223377121634 0.8255549998366557 0.010193909813866314
Ni 5.29263055842394 5.638874477680373 12.156516133450703 0.5049008975181497 0.15598291525794428 -0.04025061998993068
Ni 7.623314891414788 2.2805323454343593 4.987944050734329 0.9081488606794875 0.7677874540088842 -0.6544717386021631
Ni -0.2659332037465425 6.943695788318094 13.091534765135881 2.0248841217452482 -2.048112753255886 1.3333036512162457
Ni 4.787992951848814 -0.010716853419191263 1.6047405578241296 0.7585721060582032 1.4068063483910866 0.23250228777192214
Ni 2.024693374047692 5.823246172941995 1.4112885866380118 -0.04898902830419305 0.10922894693185704 -2.598908613533937
Ni 1.558310419482542 6.237552843065996 3.4353889441938446 -0.8794458363178402 0.27706619042522607 2.6064041505800337
Ni 7.006466722752843 6.047658045688302 7.127097008852788 -1.8558857680642424 0.09983439309083451 0.24397686407042496
Ni 7.607883510628176 7.28837621635574 9.490194642637384 -0.4365391211142998 0.46237305145826824 -1.1417914327034402
Ni 5.413102645116541 5.142008070062534 3.7259929292015723 -0.10449220357782005 -0.48158356294844806 -0.07176231744496672
Ni 4.254629663413718 6.355980364318644 7.101140279192719 1.0096583274798998 0.10102455674419374 0.7880346342936945
Ni 5.328461336473429 4.564154667596973 8.324177121946864 -0.0996425887950026 -1.3581713609922026 -0.4657838769120301
Ni 4.084597680513756 1.532794982906118 9.091620024688224 1.053324915129915 0.617689536776807 -0.946201444576835
Ni 8.232114318299542 9.038459472963986 13.454417376445505 -1.0066115702337761 0.8059439104739475 0.46153949981337933
Ni 2.442265798019219 2.374711875654808 12.252016767493888 0.20024265640726804 -0.14331046199659836 -0.17036309523901627
Ni 0.833887578968893 3.6098144299328725 6.668307625840186 -2.2034950588153532 1.7984450094482707 1.95313851647083
Ni 1.6440526479779363 1.3932649559135053 3.043705714462878 0.9420699389069646 -1.520540382282149 -0.002259999678770301
Ni 3.1087293714525064 0.31957112912101343 10.679583119049212 0.1354184608430313 -0.28668802978570623 2.452989253159582
Ni 2.376173601172964 6.389137479869732 5.812690294358347 -0.9051620101370218 -1.6144316704156711 -0.130857066724594
Ni 2.3190182831275874 1.963023359465226 7.488044221564954 0.10428188733922686 -0.3690072968109129 -1.089605237618188
Ni 8.880824402686363 8.343122194833448 7.554175274405996 -0.18902261932173253 0.5667063608607208 1.6491708736690693
Ni 2.8867228698120253 0.6929790893040949 5.2377649686427645 0.30113942932434584 0.023131700921456937 0.20201028983065208
Ni 8.495817002916796 2.061606569094803 12.369831844257284 -0.5348696759660982 0.22157381378487648 0.17877317367958245
Ni 2.1748995481792437 7.393888745055564 10.515040933126933 -2.6235737203807847 0.3213914947051626 -1.3921891126985444
P 0.2640736668531918 8.937498646510573 3.565430707316704 0.8193247026562276 1.3740990879660528 -0.7897523883157496
P 3.8788829424015865 1.3527714584896444 3.2565070459099057 0.4155167532263618 0.34044465468187174 -0.0763306535419395
P 4.228198335531614 0.7165045438618137 6.964097961009171 -0.10703836703844147 -0.32763464740139703 -0.16932128423806325
P 0.6326227774025033 4.731651759408487 4.86864041931352 0.21696305448574246 0.6586094149196206 -0.7565437627742648
P 9.027894342953008 8.138240085180987 10.894604793055464 2.5376502809440877 -0.09589597726837679 0.47342339573515885
P 6.373030744888023 3.969815221629169 5.425380214326321 -0.05872348198313758 1.2194914557890804 0.5220342147643268
P 7.145811721198854 1.2021304672735782 8.245846211885613 -0.39219710466381486 0.32846459950186013 -0.6929758082146323
P 9.073975702484251 5.8974426201294206 1.771896271967163 0.8225300969674028 0.32942979162860686 -0.15495036022837186
Ni 0.9830011595327595 4.6895300107745275 12.993123632054644 0.6281678106003117 -0.44065005795887985 -0.7768881307585717
Ni -0.09773022802974161 6.1976144312819414 6.449386475214295 1.3999954961168404 -0.5616322887719231 -0.2493921215487253
Ni 7.781579058750859 5.023626805946536 3.656476779100446 1.5155606696793706 -3.0973498714696723 1.147148326139979
Ni 2.5602862564693427 7.127558655076561 12.69476047494516 0.03238484408860874 -0.733142353131189 1.1853556904476361
Ni 3.5295027892802486 0.19253422959497166 13.009533813852782 0.05528488861523382 -0.20679511281380514 -0.09658374736402076
Ni 4.2984259203944255 7.856080803040178 5.382362927526808 0.3203975062230095 0.7445865904123886 0.9469694330911111
Ni 0.3819238990404413 1.6468743333136175 0.9946912631070777 0.013712464490086063 0.8595372703193712 -0.23056136199546745
Ni 3.3897507280317134 3.926435278878316 2.8445261846166927 -0.04230158898168843 -0.2828033500193194 -0.8524312554022092
Ni 7.352627379163305 0.3057531972607716 3.5059477301550737 0.9220788404970184 0.7161023669297667 -2.1274783369694066
Ni 8.333250921872228 4.040153823619941 0.7306240722530168 -0.8177493877493079 0.14959320968151657 0.10788888796419484
Ni 4.4028097749599775 7.471073403270613 11.032513969979842 1.7584317022801266 0.8193645547552276 0.27490312133563627
Ni 1.034975678273278 0.06426226452036116 12.544001990602002 0.7714250507614715 0.04832902612269096 -1.2962111172393227
Ni 1.0686046166182022 8.289537927737491 5.47625196292909 -0.2549912129030576 1.0460024133265726 -0.4237653663883992
Ni 5.7195561754262005 7.829732738004045 3.4532081183743557 0.5416188217644736 -1.1599938146440798 -0.1625780519769587
Ni 4.359661117892378 3.75604249031248 10.743101568812232 -1.1844635176506697 -0.12955171764960913 -0.3974863780872122
Ni 0.2051365239040379 2.566096152832647 8.682117620776745 1.1496042438796394 -1.9596536918815284 -0.5635148505066166
Ni 7.288949804850207 7.478197002314792 11.804127416161615 -2.736476773730119 -0.5248786261916574 -0.2310827817165762
Ni 3.6633524398921784 4.6377127662986215 13.525789362869052 -0.4051570072585926 -0.7337625032136912 0.05283616996442513
Ni 5.979678557666706 8.576137894996751 7.3597482027792855 0.4752033704537171 -0.1152900655242724 0.09344571595567132
Ni 1.975355512096253 2.842834098558017 5.059153212036865 1.0630794234135177 -0.5805525227151938 -2.4241589591914505
Ni 4.3679966539168 6.462603064298079 1.7507197548085573 -0.09841154460137891 -0.304650784911714 0.46135875126114095
Ni 8.299094652169488 3.5613647050051234 10.334574265341349 0.9796376127480935 -0.7050497086600309 0.4946892470924706
Ni 5.994147790010987 2.6836725427709256 3.1689006548074956 1.5233850508197957 -0.1096943166040498 -2.6895155744892323
Ni 0.8854309811958286 3.500203518925813 2.872243460897681 -0.18710791879752292 2.099870345444151 -0.141522259747924
P 3.3408014260281385 3.5730215034410526 8.639884855014826 -0.5263822073203773 0.6462989729833838 0.323181753836366
P 2.5548926743358926 2.6918600559580668 0.8370025345509388 -1.5798583033161762 0.8999606684417405 1.40013433568755
P 6.855594445853524 7.436093756535493 5.415238799687062 -0.8179350213975525 0.41364139058051985 0.3414736101670184
P 3.0277146223227946 8.066939334747884 1.0463207036081832 -0.706959524088234 -0.578771519555371 -0.04876225700536764
P 3.7101831650371593 6.359819706660637 4.035323653410895 -0.6194456002359654 -0.33370476485487693 -0.6700089150058138
P 4.702093449088808 1.581587010645081 11.409668758231616 0.04098055617741975 0.5587256566480893 0.15776957484472182
P 8.472956725984112 5.44532536650729 8.715724355696077 -0.0016748165992616318 -1.0803919465500362 -0.7198829170181216
P 2.6444742451732797 5.228351641334385 11.425023352171388 0.2647688611151118 0.8309005804192852 1.5346138296560796
