# total energy = -340871.44480361807 ev
CRYSTAL
PRIMVEC
9.21562393878481 0.00000000000000 0.00000000000000

0.00000000000000 9.21562393878481 0.00000000000000

0.00000000000000 0.00000000000000 13.48799716395814

PRIMCOORD
 96 1
Ni 2.3920625889358273 2.6038284066128585 5.398354793495052 1.5755715030153639 -1.198636466716942 -0.14541490993411085
Ni 0.2561786731159505 0.41065464431702425 7.3066229403857665 -0.22031808700090444 0.8883716780525603 -0.08682692508757305
Ni 3.128676609247538 7.858623135214267 10.67284976094272 1.771345325018001 0.8123225603067817 0.16969409419644968
Ni 2.016138865767653 1.8836458434106016 11.311047370761445 0.48326789262940645 0.060322451039141266 1.9751618148194565
Ni 6.967481536208599 0.6663061837556551 6.616968052349397 -0.3627368904211688 -0.5849609361955346 -0.3155203806363662
Ni 6.749614975622729 7.404652294682118 12.717792058676496 -0.8255632273667717 -0.7916048681434561 0.8865716487293441
Ni 0.9950754034254248 4.992121805443376 1.2507591975471084 -0.4163320500388056 0.02331347791495985 0.8172063707616444
Ni 6.53620877692187 2.656827458680425 12.25283342997183 -1.0761565683124499 1.1356745211724248 0.9468107960260599
Ni 3.8230830728787666 3.7931599426295253 12.896089495655602 -0.14529355386489815 1.2054501472046657 -1.1037524756528474
Ni 7.304220427279521 0.4545007388965873 12.234139537236816 0.9256673291792251 -0.24444043397040485 -0.2022997960466129
Ni 2.8972077880371283 8.584528600752458 7.797937331394039 -0.25693959487868007 0.2544692789613166 1.8196735798097434
Ni 3.258524747594262 1.9088505743104094 2.291368076256943 1.466634633402629 -1.2043296604469775 0.3591915962720717
Ni 8.710893233329484 7.393455311850943 8.332655467042867 -1.8882554426441998 1.9917870820809636 -0.0060287226925831655
Ni 7.759149692679524 4.485704850267423 0.9285597960340016 -0.029341943497226887 -2.773690920886571 -0.6433275490598857
Ni 1.1293746880334312 7.994360057124054 1.590869163778232 1.3712186810944642 -1.78180405845748 0.6037402736855667
Ni 2.2319319110144162 5.007299937725636 6.465916606926154 -0.49084930452109016 0.4983762090257546 0.10182905492336013
Ni -0.005088867423354228 1.6765799938355452 4.924562067883417 1.3522164289603484 -2.3991063870981977 -0.1407810107065253
Ni 8.113877481270162 8.448782463218942 2.8447672027675615 -0.948151112104038 0.6321787315319177 0.07145789883067047
Ni 3.9062264301650798 8.740337151144798 2.330213773400953 -0.41131402799892386 -1.553871392334111 0.277627976465967
Ni 7.424714707540941 6.215154877438323 4.0622202145943795 2.534602238146383 0.6044020756392817 -1.5086906820324146
Ni 2.073413967245644 3.4660145158608695 8.405665324476372 -1.3384857096378173 1.3634236105300777 -1.699452652642757
Ni 1.9190338385313555 1.2501822995016503 9.173402349246887 -0.3524833310139607 -1.3853450931935174 -0.6700055725717042
Ni 3.5826013716610405 4.291338130191428 1.9014974281367507 -0.435459772007192 -0.33156252170089345 0.4501423137200312
Ni 4.602310137315052 0.719413980183228 4.28125163001964 -0.8525436126103575 0.29438282732680265 1.0629917487957177
P 8.925617266223641 1.8065479352907512 10.681683857849686 0.2530454020305965 -1.2481978225848374 -1.0571813127615277
P 1.2936708278805142 0.9717137972714895 2.28922360061512 -0.11438015211549334 0.09205037827004146 -0.3585706748586212
P 2.908395555244575 0.24372099295859764 5.797437379095116 0.912096789583642 0.45858478806042957 0.7635908994290332
P 7.336981969637407 0.773748376129179 4.31228800761539 -0.1338714280708856 -1.6006623845457209 -0.7204015085257529
P 8.915046945806061 7.602917223595633 13.11389339000011 0.2726999430367304 0.21241065922836966 0.11565516217317502
P 2.6115695305455233 6.572896174988465 2.570825414913264 1.0920691257776483 -0.4174160271316037 -0.49526671686249535
P 6.771050516417226 8.40829822817585 8.1873084927081 -0.936791978337477 -0.3959280324611568 0.43535769921168893
P 0.7687710177529502 2.7438321623093405 6.8413141179793815 -0.7019309605253911 -0.9558060575461345 1.0161444494248757
Ni 1.4985064965130648 6.338736391649081 11.451228066433531 -0.0917708993564097 0.11240683043920639 -0.3369268713366004
Ni 1.8539438881308647 2.719161937585836 0.609484490965149 -0.940101245216368 1.8805462469253997 -0.5204848679993359
Ni 7.0457129660471605 1.1553074532078587 9.816536768697432 -1.3307574877556243 -1.4078772128577626 0.11213789304853591
Ni 9.093747105542137 2.7044722333612317 12.53817217969223 -0.10892221432471565 0.4414596983443687 1.5179499958471534
Ni 3.267602136967685 7.186988477818294 5.026801119099343 2.0636211333041294 0.4429532521707597 0.04988145821147539
Ni 5.902782095507836 6.882624072908624 10.216955619738254 1.4496920920110192 0.04543730639719271 0.3495679571393786
Ni 5.525595831888739 4.473982576883673 10.452010240141757 -1.287164690766338 -0.07551818494297316 1.3305358586631213
Ni 7.166566655634026 6.920979498870233 6.511573571568537 0.17215978212812286 -0.3271782765902688 0.5925809146346375
Ni 3.634466902009895 1.985625935599732 7.332938153944961 0.5654727455639358 -1.4369381347794608 -0.16266032727811985
Ni 8.97494850004692 0.35636356180260115 0.8294688018840264 -0.02466407840558333 0.6624899809209494 -1.7796235058663932
Ni 1.3593690094471427 8.759653098481543 11.98341098399441 -2.0603987697120902 0.5164078697164849 -0.6052870493473963
Ni 8.907508565595442 4.700769861239566 7.809913955992719 1.0325755983977056 -0.03619316209110541 -1.5842723732234716
Ni 6.9412630866985605 4.629072308625122 5.547127215170023 0.502521855763012 -0.5950900542097365 0.038440563364385415
Ni 4.441432993871563 1.668829654279151 11.921231327567652 -0.33809620905435317 -1.3933697632702067 -0.9569273156347714
Ni 0.5857772989213627 3.8944027849203064 4.960925997557109 -2.7714548324672013 4.032719772648641 2.4082625996761684
Ni 1.4680027819688732 3.2230077337412975 3.2055975773917846 0.9088109197435187 -1.538511364938273 -3.43095693440442
Ni 4.636536963845907 3.962257422439606 6.144335573765288 0.22581639111131432 0.004248233753392683 -1.596011773147587
Ni 6.019636204396158 8.025333768478443 4.815930138486432 1.3867784832059342 2.053390199604741 -2.3579954759905
Ni 4.694392649618847 1.81756060564734 9.481320298666601 -0.45125405872697116 1.63925875676168 0.35130910820020145
Ni 4.857435464638736 8.57061300892112 6.5202998456778705 -0.6592683886598582 0.5253044008751662 1.7933339134739503
Ni 5.8462626751756535 1.2755621272523159 2.25953639033335 0.6590369893753424 0.26720343869853336 -0.8847158264675279
Ni 0.7856153348054797 3.6826461828670043 10.488752010388355 0.4424755412033927 2.107025468431694 -0.588368933435819
Ni 1.6329532311007409 9.072099605401865 4.164526539863529 0.5366051705999662 0.4946095428944708 -0.8750171111225253
Ni 2.8097607344692035 4.912461953926763 4.064216318694159 1.0276658198009139 0.43936656326076584 0.5965620107695726
P 6.509971896164373 5.042632639104014 12.658283090006508 -0.9362049954857553 -0.47452871298419563 -0.837574392895035
P 6.061244745534233 7.782824630040257 1.446884258630665 0.7530920567802385 0.060319108605031604 0.4752365376844976
P 4.548407954122008 2.197041559575048 0.49939464989417903 0.16699752120089303 -1.295298375617066 1.0831785081562375
P 4.067730236022165 3.09291998917761 3.8900594614566577 1.1270901219375236 0.4021200202044817 0.6913848095784286
P 2.9981372991211117 7.827290014534434 12.939116321285624 0.8308931242201175 0.7617011386054882 0.14373392268726212
P 3.1540103588795567 6.136130903959035 8.055854071145347 -0.8115491724758669 0.971720671893862 -1.4162731502309416
P 9.034776329297944 5.944657889734062 5.767049781409914 0.12794452106348933 0.4633295018342665 0.9319187094055756
P 7.572920368356557 1.870098876528438 0.43957787939162984 -0.7607943105205026 0.6943012118942752 1.953016389070669
Ni 8.297904271521812 7.646267517618556 10.979107976528775 1.0329499510179887 -0.42628684725867233 -1.206563691983819
Ni 7.855323941919155 2.7395100347802694 6.311977906588503 -0.5358330683206319 0.7117916553695548 1.4307399763885489
Ni 6.20796669092942 2.48561960103632 4.588454447037955 -0.9499110322179383 0.7725535079389598 -0.005694736391932128
Ni 4.756505953554753 8.801851439538297 9.231508699985268 1.2375421426432043 -0.37528490228950856 -0.9844085517741756
Ni 8.43259061232645 2.502484192461054 8.633626679295386 1.556181014303894 -0.08209763793270378 -0.8281289312114191
Ni 5.341992960328642 5.44125444351761 0.9958946723749652 0.7490556819273357 0.8080421877638728 -1.1141219918126297
Ni 1.083434803742557 6.136038747721742 8.87448161327415 3.7050262469848514 -1.4530797775363298 1.2089956984640793
Ni 4.624280184285853 6.375276339736005 12.142177749603876 0.09908003142331323 -0.09993852276886658 0.1418729582191234
Ni 6.34424733463924 4.250024489012694 2.9620314069118403 0.16025917403579495 -0.10026582420129829 0.12030834467447024
Ni 6.697159645355194 4.472535723958163 7.854546143276398 -1.0662323672202023 -0.895232923948768 1.2086822809887183
Ni 5.257181575147314 6.463820052527724 8.050351422216545 0.32467119389769894 1.1505504098429926 -0.8680527639895502
Ni 3.599300081858646 5.638450360078519 10.049447835021487 -1.479410702121375 0.5495954122120471 1.3426506396487845
Ni 1.3482918297244484 7.6884382118041215 6.527111113176242 -0.6709136862082703 -1.7923910899447064 -0.5172331938312577
Ni 8.573442205406035 2.021935493093422 2.6662126498864085 -1.2348867072982281 0.19074088756441987 -0.9943780042820616
Ni 7.463788952153441 3.6178972105445006 10.487335569021152 2.3498203963788757 0.6183287130227029 -1.0740639474494793
Ni 8.840243727994823 8.265336257262243 5.099622977808768 -1.8819189589032104 0.5375785902568291 0.6172156824641822
Ni 1.2105827643365776 6.732409406120008 4.242703597522088 -1.8231551106004409 -0.9608459339628872 -0.8190909893788668
Ni 2.4888082068466795 0.6255777346837356 0.27029977335645333 1.0509566720080545 -1.0237358886188885 0.09965672986238965
Ni 4.903135742712648 -0.13497939763923344 0.1656056799790254 0.21798403955108908 0.1212388269085396 -0.8997102429938312
Ni 2.921619975296211 5.8501977465080905 0.08349815879989314 -0.5448075039051004 0.1886852905869718 1.7273864029385477
Ni 8.682416956005753 5.258379606232132 12.121163362813808 -0.9192542265640298 0.6184307858182059 0.2035562941615333
Ni 4.373099143918337 4.328513956315679 8.362463401995491 -0.14117258971798913 -1.8830343034545765 -0.6311227794635776
Ni 8.105767732388323 6.556833342828185 1.4490960083257123 -0.14987011749198703 1.5443045745812825 0.00966811921738335
Ni 5.35951186103816 6.577559280595522 3.081427184824721 -2.0548631846058414 -0.41290811195892113 -0.9810702314295621
P 3.2390521346541186 3.4517579459515453 10.07521011115692 1.103363467744545 -1.3572915294904109 2.7018262735357856
P 5.407442320054577 6.0417997794652765 5.205665316937802 -1.4164556985553929 -0.5786231669029648 1.1655486830240378
P 8.765136394600514 4.266373005508584 3.0543572116820905 -1.36375219751409 0.8050368252786457 -1.410879490019196
P 5.440019549937875 8.788276825784944 11.281292886426451 0.23594422357393563 0.6848529219971818 0.842569017896149
P 5.826725552869403 2.3091311909952896 7.676612723434602 0.6190442510324887 0.9114092765983143 -0.2862121185905523
P 1.5426216873055254 4.524373607435829 12.561142121837667 -0.19546117585822467 -1.861129018741053 0.7147589655279948
P 1.302831157867501 8.16079422167635 9.682803323386409 -1.216317171826157 1.391149101469804 -0.3917880421508543
P 8.1302720758847 5.652329089414939 9.751403504865413 -0.2777483040939152 -0.4001186735037367 0.27182113997620283
