# total energy = -340866.32092602307 ev
CRYSTAL
PRIMVEC
9.26288392168633 0.00000000000000 0.00000000000000

0.00000000000000 9.26288392168633 0.00000000000000

0.00000000000000 0.00000000000000 13.55716692604070

PRIMCOORD
 96 1
Ni 4.3978505991996775 8.926233759962182 12.660062476678092 -1.7727586604257597 1.7138238337627647 -1.8604016536567252
Ni 3.2711411760647415 2.7161276915542794 2.661719363417199 -1.5598492071841006 0.4422184308872642 0.3678184187091343
Ni 0.7107475746174259 1.7237671381970354 3.445337120305318 -0.17830934666928647 0.8019892967015736 0.6778605498397486
Ni 6.949497259270058 7.014300395850638 1.9027890450102933 0.8352154057445551 1.096981475477601 0.7173388104400291
Ni 4.8835869741495115 6.74744597021457 12.674337507236174 0.7111779330449558 -2.7487139392262594 0.7161190791003151
Ni 3.629262797916998 5.599367073653191 8.694916388856045 0.021866718166104276 2.1188697693647893 0.9533036028392549
Ni 2.3190741681799847 2.106370562505334 9.3273583208618 0.13308055673847402 -1.131482080357632 0.3254363541984976
Ni 4.706804832691483 8.371461110436153 9.80000160925408 0.07043845642722062 0.03751470911600636 2.2257772672523215
Ni 2.5448013887820657 1.344952233451552 11.549323191876285 0.7046689282818445 -0.12325817133141352 0.8650355744297812
Ni 6.373790491866369 8.530958710319087 0.16720431938479846 1.852334303267558 0.042183318236269286 -0.7246178605999456
Ni 8.002205501995867 5.964213549301545 7.986391906402618 -1.2502567619963951 1.4600153283138986 1.1189893472072598
Ni 6.976498566178633 7.91612552082901 4.833183917061237 -0.1552753476679584 -1.1520151673139774 0.22884026553930267
Ni 5.2281477338013715 3.683422880762431 7.468019612196873 2.260132347693424 0.9639914215704043 -1.1707965616865386
Ni 3.0231089307505346 6.15411193452717 10.770138651278543 -0.613378310995963 0.01447608212898797 0.920372656439189
Ni 9.300769212291966 6.665858487795796 5.739087489872146 -1.3675659148332253 -0.6733027552657372 -0.10839153863222623
Ni 0.5746091156477146 6.8266992058611455 3.498670953896465 -1.7136752240000424 0.37291254540259 -0.6763723953299965
Ni 7.450572970151487 5.844852025862815 10.460642539071763 2.952434526879799 0.9976042245288431 0.06748991532185797
Ni 0.5348000190092984 5.739810921113848 9.846313250472193 0.9817353758173865 -1.089686998698717 -1.212488542108686
Ni 3.134050492618117 4.438116356020116 7.046215662730053 -1.969485076149653 -0.9807796967723366 -1.9181756272423998
Ni 0.3269066290045009 0.6021736059045028 9.70876220168994 0.28250304517008124 -1.7996518852721781 -1.8198419870668079
Ni 8.777268059206195 7.648196600647009 13.618987723888788 0.6144352915055676 -1.1086113464070455 0.49577836639159134
Ni 5.829216277642686 9.117354845878006 3.035137711934574 -0.1479001382498098 0.24510454991696495 0.26843242600962797
Ni 1.3494076806635673 4.977114314065766 0.1289078517063036 -0.592403765626825 1.8804531729909615 -0.6252655493518522
Ni 0.9544383061930225 9.014925874421737 2.105306257131819 -0.6488299669353536 -1.9348397181616417 0.7623063762896549
P 2.6967682639594517 8.339309640014314 11.327826330404617 0.030089620296528827 0.7252369822411832 0.6340831476434821
P 5.002198203982892 6.043976243569037 1.7725593797548118 -0.29442859296307355 0.5515877600517275 0.572651265590246
P -0.1551570124327255 5.589650308319711 12.004193784705793 0.9214558622010388 0.5396367583374384 0.9651440471176089
P 3.9584656958692297 3.6855070296661805 5.264926014789535 0.8642339044640923 -0.6019281601774924 -0.8762095887687297
P 3.7772836845032858 4.474695485001921 12.288690299239997 0.5430434700261422 0.9631933511491411 -2.0692626478606235
P 5.693552078334628 5.887211194471019 8.207129211384922 0.5055688701194518 0.7278721058711851 -1.3193003949586184
P 1.5102206100768678 1.451530976947286 5.494529752352589 1.0433894011837581 0.8031866594437844 0.00913024443604234
P 6.499691611420863 7.668111801282836 11.662729607180703 0.5222679280416876 0.44227988025281895 -0.9401760643183614
Ni 5.898493387203315 1.2968871282890835 7.583947384530625 0.20428417346649333 0.19812689561584587 1.517836867308057
Ni 7.482048250040111 1.7103637450249227 3.9416378144761564 -0.19626053183106842 -0.9226344558901725 -0.26171361922855574
Ni 5.57882199690423 3.0602253070053065 3.0297559763208923 0.38499107383367887 0.5347498625587823 -1.2211917263096388
Ni 7.110625126739924 5.61327992544622 13.055538530904348 -0.017236418482944507 0.30048045558410835 -0.4321998703089976
Ni 8.159109494354135 2.416000986530355 6.129425422334359 0.3433813687126925 -0.4263477824035947 0.5148140428668037
Ni 3.8776377699398217 5.004726971319441 3.479162393868969 0.6439394716122716 -0.016431406083145896 0.5607907667072342
Ni 8.761641573870083 3.5017869880796706 9.055347247693655 0.4582988813888945 0.8237297737024588 -0.004604074430914652
Ni 1.0750225303219518 2.4266718289175517 7.271752994209792 -0.4244649635585851 1.2154507100608034 0.37142721910631515
Ni 0.8965221238788319 8.787975953129457 5.075234191877483 -0.6778376670216132 -0.7690964026282947 -0.5998658783318249
Ni 8.561776325442526 0.7880556046205022 0.4279239369366298 0.07451082672438136 0.3950212043761713 0.441648160206091
Ni 2.881711006236162 0.5150784126494196 3.9690235310714232 -0.30352258484454175 0.2438220836601156 -1.6646972514394427
Ni 0.459416816304885 7.517654776200166 11.297647854278326 0.9119780046175907 1.098044883745109 0.2536241573522019
Ni 5.759494549649258 7.932363356510222 7.053970549228804 0.25537636415661824 -0.22072020753532953 1.102044234712489
Ni 6.460630029522592 1.3209706267324095 1.3452069627620105 1.17093591547788 1.1157620985192138 0.3652452586653193
Ni 7.627429214681649 1.6704499777971185 10.29380780875923 1.7862186425854076 1.8559595587249715 -1.5474876002949542
Ni 8.910366439641637 3.9821416274158223 4.215072592917663 -1.1970177001665967 -0.3894575942454647 -0.07794504921691092
Ni 4.293939566300743 8.101633299030736 1.2288225302462361 -0.17068833978891895 -0.028596580690770108 0.9705083967533156
Ni 4.374582234549818 4.234907206462545 0.6399819195953194 1.8650946882570203 0.6976511022031147 2.2793852823857645
Ni 4.753452716599401 7.221094281522657 3.957174449837307 0.2451747410332681 -0.05659615122748963 -0.2177133023882057
Ni 0.5820629584159239 4.896147444876107 7.090493174618107 0.9053137052235376 -1.4448432485591505 1.9495011768285588
Ni 2.001283143336283 8.009226768080499 9.329473037282805 0.7223182659324916 -1.4020703763679983 1.0004977440265541
Ni 6.8838789888960115 4.688047492557738 1.734585260440097 -2.0105561351583505 -0.977773305845845 -1.8771577900691414
Ni 5.364571489598796 5.685400740399964 10.389439675924072 -2.714545006654035 0.26483853801078255 0.9150923818768563
Ni 6.304865371898373 3.5681370262910335 5.253226065988088 0.050878274907105926 0.7143445036983955 -0.20495625983285345
P 7.866902555164458 4.892071775908775 6.193035499453592 -0.7183592812847435 -0.6799829954993902 -2.4183955743451127
P 8.19416024747319 1.5972083538773576 8.164030864632188 0.7177247330245382 -0.4459514155671352 -0.7319511610365652
P 8.246449227747258 8.601393680381799 3.3227261771535423 0.4863599012911689 0.606180250585627 -1.1453238713367306
P 5.6044987113984215 1.4916392647394403 9.869576983680044 -2.424037088901606 -1.0845818162616676 -0.004418955003302067
P 1.9727256719129085 4.055716715160183 8.905892466661587 -1.0779275441699436 1.5001242805196422 0.2490241966863453
P 0.4625504499677224 1.8965291879918322 11.232736341954752 0.16789097954943988 1.905131392463932 2.538204610785661
P 2.2872746873507785 6.911241548281236 4.944095837699966 0.7504782733064753 0.2350307106207307 0.14699588126798557
P 6.534325534759169 0.4714400397585147 5.836143062310347 0.039412954579983735 0.42360158711702534 -2.339713904072493
Ni 8.188269053238592 3.7701234751584045 11.601979908645815 -1.084418808321242 -1.0346245105069343 -1.062384197118706
Ni 5.683520374944582 3.214257805318409 11.481416062861724 -1.094902224351069 3.60498976518554 0.7849035448638804
Ni 0.22503713574283896 3.138107635817416 13.285088543740105 -0.5479000267874952 -2.310920119769252 0.2502251589729819
Ni 1.9769773356765574 6.8615276497638025 7.110259242821266 0.936960128484225 0.6680142531732882 -0.22703920777482192
Ni 8.210175773938003 9.296137770283634 11.89546512582979 0.7469072681257654 -1.4083338407792068 -0.5431175177971872
Ni 2.7177301704891623 7.396524041914254 2.8257205775090357 0.8862785429689576 -0.04305132266351941 0.717808550987596
Ni 3.632764168075297 1.9644817051380776 7.162319429860123 -1.1140039781775266 -0.6778158126447423 -0.4508370257942107
Ni 1.6103616491810204 0.19860549620128878 7.722663704122175 0.4364241928029903 0.27129997736541017 -2.544151315287399
Ni 7.1009824644785775 8.693753896911954 9.497758335232348 0.08402647952430045 -0.1354040626653281 0.09297340430494311
Ni 2.651889590898716 6.885722302815328 12.987955602830368 0.10139453848910279 0.28902002035299257 -0.18319238579320063
Ni 6.352402492671892 1.307511656256197 11.990636627659002 -0.788497689973042 -3.382338916286401 2.592406293639045
Ni 1.9703914251407093 3.925943710086723 11.388332415089867 -1.4666860554658545 -0.25592683734344956 -1.2037858721283654
Ni 2.5344547473354524 3.0363641177783807 13.632273478433888 0.17553718324078801 -1.956792825393965 0.6051155567665385
Ni 1.7737774490030032 4.957013855749605 2.529808484712693 -0.8459435907953368 -0.7431930524989717 -0.42625779379294976
Ni 3.884723876212569 8.82403636060633 5.751316349350946 -0.07683021888617737 -0.7142910247526408 1.205520595431285
Ni 1.6104172264851204 4.11952872315098 5.215943884109418 1.8238595928666328 -0.572417295202569 -1.160728635927575
Ni 4.825842155189629 1.6910043174300953 4.703632294915775 0.17762491900775215 -0.6774216625301173 1.132291720743121
Ni 4.464024642614724 3.501018168706288 9.525550692435944 -1.6389260560126095 -1.4032659393379963 0.9254562416096836
Ni 7.037615074920581 5.564742413198902 3.889008886358678 0.1426471173809866 0.3103192960514011 1.1541368416426705
Ni 4.695819052247719 1.864600026786392 13.444940912080877 -1.3564908879659865 0.7315312998903273 -0.12156535701002288
Ni 8.24896873219979 8.53927678016605 6.759210759204135 0.616405527858061 0.717358350824055 1.509189476045704
Ni 5.511740190855551 5.8863590091414855 5.777685001281182 -0.19379715789224042 -0.7828389490253679 0.9282322616929239
Ni 8.483115914373018 3.030019042226966 1.9604208567851722 0.357348629526062 -1.0429867664287005 -0.35873059747525315
Ni 1.6310364063062137 9.081979891818367 13.284559633062756 -0.3407621859222905 0.15135518667794579 -0.1584894837298819
P 6.851773832894255 3.0582708384777906 0.04925260689340482 0.5356924289777096 0.5103050992528566 -0.07374103843789236
P 3.821365749538589 8.4851630117407 7.995556603848706 -2.0815810602166605 0.38922233830620706 -2.4105945902434547
P 8.778120244535728 5.2152352734821426 2.378008341447607 0.6617741858008473 -0.027855331649371384 0.5396115615264577
P 1.138232450851666 1.6423371248065437 1.2466711814579459 0.4048063087873931 1.7152765070488911 -0.6219516544872709
P 6.634114584270688 3.9443675863958676 9.562954218095232 0.7609120670452896 0.018103394468930112 0.0666519928015949
P 4.368616937243087 1.150431669101612 1.8726652198997011 0.18851996865370113 -1.378614202227587 0.8319580751495221
P 1.5358787988030267 6.8973750109082905 1.1714630472614473 -1.2664354286387867 1.0640340740173029 0.37153571965972143
P 9.009951705704788 7.788482979079382 8.941317440294917 1.0219926806755366 -0.7525660090734394 -0.15936263036345458
