# total energy = -381173.066755296 ev
CRYSTAL
PRIMVEC
9.21143985251298 0.00000000000000 0.00000000000000
0.00000000000000 9.21143985251298 0.00000000000000
0.00000000000000 0.00000000000000 13.48187333076168
PRIMCOORD
 96 1
Ni 4.038461125749649 3.0731943224539227 3.5395584786777863 -1.8130907843859034 -0.11563227935503954 -2.308252343129102
Ni 3.948354819137961 7.72569004222679 13.256119823284063 -1.8886930444022505 -0.2581492989160651 -1.2586151612634193
Ni 4.633805707902584 2.2237890121618573 6.408581232326958 1.8045871177902664 -0.2349839165431953 -0.5973310277251132
Ni 3.866944111937583 5.899172016729101 11.332188976923572 0.12102568245646898 -0.22599122612628175 0.5471387231414383
Ni 2.445830774672054 0.9306317886913562 3.326045588513916 1.1361992833276433 -0.015376225345754163 -0.46187991387193356
Ni 7.918439425364142 2.93119997401606 2.4168414516769974 0.7407196512578147 0.4812981704975453 -0.6855908286044708
Ni 5.97749689151127 4.235263542510916 1.8794948595382894 0.10434950735236867 -0.7705115378082665 -0.25825522836631004
Ni 6.965497528861142 0.5630207178582026 10.286319309720232 -0.29582624464154855 0.2747025752890559 0.9256321050659155
Ni 9.504363848082168 9.130609667876765 10.766987911204502 0.22668696664172572 0.3390277197296871 -0.1131190260148826
Ni 2.742807602024418 0.100911325795445 7.936010247267822 0.860378535273744 0.8171801455093991 -0.9690405539585376
Ni 3.504787134760612 3.5259826583256797 10.79658058352312 0.8695532597944767 -0.3891945703920652 0.20995217038554811
Ni 6.251306947126934 8.164136165933918 4.4208547155820295 0.7569394555507867 -1.1511181094210046 -0.6808520283679048
Ni 2.797035349624398 1.9897078975006208 12.614625005314808 -0.502537796602612 -0.645463878676598 -1.5039446827069969
Ni 8.824716166551788 6.410250345264807 4.972007414074203 -0.1847471318748302 0.4287054840024939 0.017012732507912638
Ni 4.43959170579659 0.846542394723172 10.68805231794673 -0.0006566597473924175 0.5052675368289492 0.23512198478295634
Ni 8.326939157454566 2.6446781311253873 11.178090796254288 -0.764600057419838 -0.9474515149338522 0.43251251645340993
Ni 4.854659194645769 5.5319948047225065 7.262469750493478 -0.29485719586005993 -0.6586227846560593 -0.303263160535568
Ni 2.8146015658080508 3.336586239368113 5.601394715236013 0.1553537663143776 1.7995991776573714 -0.6688902280203384
Ni 0.005368427263677348 5.479664613773723 2.6356794753362895 1.2565798760009455 0.2548978818583029 -0.3876459949580227
Ni 2.463590431096848 5.037837891566648 7.368288931549882 0.18899176608379709 1.293464921952753 0.8054988525167289
Ni 5.9978633854714465 2.7630635587039416 11.452123768719268 -1.2280102918933689 0.3629685468160007 -0.3249671278715629
Ni 2.8153476924524536 0.17974927778864216 0.8530198793693936 0.12467304940106916 1.2588306197083352 -0.25573991814362407
Ni 2.2311489527652864 4.543119080567472 13.106430237824792 1.9713648096708691 0.1363060056543072 -1.2309148671346737
Ni 5.103275961712776 4.39647295490216 9.336911842766089 0.4052256557129989 -0.029422676136491265 0.040555295714543055
P 5.396706384644213 4.983020611803188 12.462724674242494 1.1816952108769134 -0.8124344032942977 -1.0630007476567822
Ni 8.499791830074514 6.630173476562502 0.5706745033993651 -1.7137222751878938 0.3630194546585942 -0.000662573284663375
P 4.391213222631125 1.5372511734708205 1.9600350856535311 -0.105537871233515 0.11279635256814122 -0.5999697508995409
Ni 7.36380940825145 3.982050266856787 13.08187990779193 -0.9089117069874411 0.13690635824246744 1.2875045906042601
P 7.0915468745649175 3.270862614580299 9.393980398478831 -0.25529537440703776 -0.04238926359948829 -0.3593031821492715
P 0.9209745149383719 2.151304190374148 5.040967017753111 -0.8357553374084251 0.14605974260696136 -0.17891407013282093
P 8.377786306554599 4.944000951732946 6.581634714340091 0.7584574348572098 0.026410885893360964 0.10129400835549651
Ni 6.537211623533965 5.798712051496318 5.568000481606965 -0.5230667697938992 -0.23324610791648215 0.773103724015475
Ni 9.003952367129402 1.684164430897708 8.992368981261052 0.413795656770197 1.1354274381586253 0.005335039059668231
Ni 8.300345730017646 8.722690256509766 8.701982939267578 0.20438521782073185 -1.6158694313034623 -0.24944585760479618
Ni 4.097902548420394 6.799783722283317 9.163629917039607 -0.5182783472663203 0.34392284303845927 -0.9032251981256252
Ni 0.3340464255630996 9.108179811344414 13.161503595621763 0.017951699382414244 -1.269253614813872 -0.8537255487336007
Ni 0.9482624849553892 3.3783416971344984 6.916079995257544 -1.6646923663434363 -1.522977788079048 -1.512262458544073
Ni 0.02499247915547251 4.886825543315572 11.978873520219448 1.3387639029998686 1.3773409919421182 -0.8533995328527496
Ni 9.457846075807682 4.296252487110792 8.806670034341304 -1.7565504260970133 -0.12586347016474453 0.9425728466853122
Ni 8.239402842618043 7.5586405768410865 2.821850969130827 -0.5296094560084234 -0.38637946954077323 1.8064707079662243
Ni 7.791450512774821 7.983693266709184 6.579895594457829 -1.1225634377117635 0.6315112731512479 -1.2309313221949059
Ni 7.184637687754217 0.8314494501941134 3.418261314898051 -0.7872545615945603 0.10028510747500793 -0.49472729941925764
Ni 9.195752971941156 6.391320835953111 9.78784038889087 -1.3009781996106626 0.25514779308558 -0.8721217918526013
Ni 7.216684287703313 5.043171315358118 10.959725319469783 -1.5376441318419711 0.24656185118878177 -1.361296793995062
Ni 5.320850175796611 8.773380811128874 1.8666191086303139 -0.6417126391642819 -0.05390626310015233 0.4964651080459708
Ni 6.40651050060274 2.102584883926671 0.8656800825800973 -0.302085338177383 -0.7914020081040306 0.5709646219164424
Ni 4.418267222070762 3.3650035319357943 0.06263963465761617 1.3842510887983903 -1.1429612846418251 -0.5527712388368673
Ni 2.026323371716677 5.419716561899989 9.83624005836846 1.2512913739084965 -0.8382374804003305 -0.08224907590890351
Ni 6.7465231758890445 1.5625642107401845 7.969903740947816 0.25335470574089913 -0.4582004081378173 0.2995710563959615
Ni 0.38412165598657727 1.576464273782204 1.189990016005745 -0.3134269884424473 1.134810887620549 -0.45259257503273664
Ni 6.531666336621244 3.689688370971654 7.0639761133382315 -0.20084043789226702 -0.08932526602939456 -0.9762519841053123
Ni 1.4750186844636066 6.628754914794132 0.37649089904555066 1.221407956085503 0.5517538533159465 -0.20953565167341978
Ni 5.471917792688012 0.6792543530400595 12.786829192554931 -0.9032341969866895 -0.399403392604267 0.3113243402771477
Ni 3.8856986038882466 7.910499164037289 4.329811605516814 -1.0883790785205707 1.1167967104313155 0.2527438116297776
Ni 1.229791727336602 4.818402966591833 4.399607607952658 1.7969326865688022 -0.3100063927966725 1.2743246015788763
Ni 8.288186629145901 7.07803369200518 11.65456727136982 -0.883118657183737 1.8317227976647938 1.462853826203958
P 4.7181088072800295 4.28588040560959 5.029480352005332 2.2102256926709676 0.9115979955703525 1.6748425674035607
Ni 7.198510116476073 5.325548010224331 3.4775820677040836 -0.640882944174135 0.37891555706356034 -1.0358509267148677
P 6.388179734894576 6.5902603068069885 1.7118604677091331 0.5127296495339492 0.05974549548974872 0.4129353656524308
Ni 0.15502485153875137 0.685162570690922 3.608855221062684 -0.841047696155616 0.9527351319302947 -0.0857437193257233
P 7.495846189990556 9.588464295778417 12.370590008530838 1.1682087463547042 -0.5337239923974292 0.5982609957385503
P 6.024226526907006 0.3417923255048056 6.124868878652864 0.5164086410474332 2.3318797527400545 -0.1681264925990137
P 1.6887425166047216 6.797701936831034 3.509695911165577 -0.36738081695108343 0.15208100910037678 1.0123813828380177
Ni 5.166807263767653 7.923385968673331 11.037609887417354 0.8458075794381046 -0.35141452342981416 -0.23986849832900622
Ni 4.999674895421459 6.062988266655727 3.4008295857391917 -0.8533136580071626 -0.2640571797600678 -0.3248028343795567
Ni 4.919415618227875 0.9683710585940435 4.2482728592996795 -0.8920049039297734 -0.7494022666334771 -0.2886297268931094
Ni 6.132691233547022 7.575847546862619 13.270356103888066 2.0758331019892893 -0.7512038386185901 -0.15232963477607311
Ni 2.571272165332243 2.7069382544527643 1.2795537687982317 -0.023078736196334448 -0.17020240129143593 1.3764956132226873
Ni 1.5711124271106247 7.807349458308636 9.083574212671223 0.31831954064805823 0.06658771522256274 0.5750902140490419
Ni 1.2325827936730713 3.11150470163998 10.718831423744346 0.49037210777435547 1.0395273471251902 -0.5133639406838384
Ni 2.33884910988079 1.3205796805123122 9.975009481643294 -1.0941013257163286 -1.0601699630762065 -0.26971026428078715
Ni 4.190919670089257 1.9124054925644842 8.594128029959162 -0.18318904335909095 1.2464913814166918 0.47147758486269764
Ni 7.20438701523075 5.4593810227740365 8.348097835259418 0.17399452134401647 1.4561252492308727 1.095148021813288
Ni 3.1228992529872155 7.369833690046997 2.0758846037851213 0.7153518619169873 0.5254406693427145 -0.0087458645134301
Ni 2.5955535213155194 5.088012605542712 2.0606912545594707 -1.2245164198074976 -0.9486992712980242 0.9270834928004614
Ni 5.333792249072977 8.949181144566214 8.607272754916725 -0.09292018246950448 -0.5307754512920665 0.5136611602092832
Ni 1.0322616068110408 8.449598693218341 5.048543427197817 1.1532127871665043 -0.9915348784063116 -0.7119734323630578
Ni 4.46952888597324 5.499773187412377 0.8060396928041788 -0.48429993343834654 2.897531447084016 -0.10602175284846901
Ni 0.24614717998843466 0.6277835894483472 6.807280913343557 0.8336966551071835 0.2806317962892973 0.4234061832767676
Ni 7.7071382019573225 1.7014727267598384 5.717056319990494 0.06252742911026006 -0.17907399274945288 -0.27417318514814715
Ni 1.76494876017439 7.128926898305485 11.420252186131203 -0.1854043058428549 0.7401470665837963 0.8658580703310766
Ni 0.6550614268813049 7.2219255970942395 6.968861546768991 0.6471777760439112 -1.1745981948208157 1.0133874555050288
Ni 8.359796364128446 3.7870256580260095 4.646958723156196 1.1693382319734573 -0.5986975690553367 1.4549106600974815
Ni 5.440608107943264 7.71472842856211 6.604702923668209 -2.2155177943078423 -2.105156276433439 0.6537857682787321
Ni 0.22950671353024465 4.38500471203449 0.7496168590392459 -0.3800643259560229 -0.9184713256514182 1.3968448663030009
Ni 2.678511750445029 1.1511260292724212 5.713914297787954 -0.12056416943901817 -2.4020361591504824 0.1606659225559104
Ni 3.3013616926002642 5.819732557700354 5.284745936503572 -0.6848297820687302 1.1021925873648954 -0.07179239935195376
Ni 0.9271498643508106 8.590156057007723 1.9149386385794316 0.07314017162909985 -1.3862568063745095 0.19404269824414325
P 2.328559931340077 3.300026033792383 8.675935750225882 0.549691314359963 -0.43414928072588455 0.7535396858406184
Ni 0.9561751119620792 2.9651164962961905 2.940248371581452 0.39277148911004617 0.6816012478291036 1.0839940620789976
P 0.7584579992034146 2.966498212304344 12.772646338303243 -0.21223608132371835 -1.7001445365034593 0.9059819349351558
Ni 7.608612639135955 -0.18128206141368663 1.3362022828444962 0.5073082214080618 1.19213414682205 -2.0854965932209826
P 2.6326664132945106 9.184045231632071 11.810754606643432 -0.2689124509698401 -0.866688793762488 0.17065234434466095
P 6.947581277955423 7.278281187346776 9.854508186284255 -0.09863265947324949 0.09760884619442545 -0.3182362369056326
P 2.8428898982149713 7.320432737035498 7.2124792653185 1.1482559573818611 -0.9845296507330722 -0.11788585127590666
Ni 6.295954797070387 2.9150615310408323 4.02911151409448 -0.3807140437248798 1.059063874496221 1.055040355159125
