# total energy = -381162.1893382073 ev
CRYSTAL
PRIMVEC
9.39498803630546 0.00000000000000 0.00000000000000

0.00000000000000 9.39498803630546 0.00000000000000

0.00000000000000 0.00000000000000 13.75051465108683

PRIMCOORD
 96 1
Ni 1.1606098197207364 0.27930077425451777 6.112942771680045 -0.8851449435851465 -1.2420860532601448 0.27797841782685034
Ni 8.354314409682196 8.829559868301805 10.763696614779226 0.4713767976187752 -0.152581345775563 0.1772935038102624
Ni 8.146450304276268 6.170299172290358 5.79107048913961 -0.7874224546309923 0.18934709254068682 0.4100981533139518
Ni 2.5000344425235523 4.098582224250703 2.3128092463495227 1.3193366475131922 -1.5257304111235208 0.9689940169913182
Ni 2.257700126824547 0.3603485156378089 13.229067310260714 0.08768747331565543 -0.23781418690313885 1.2248763742500777
Ni 5.685602355928902 1.6903086277158375 4.809792196830777 -1.5145625674321594 0.4554639830432608 -1.265152448161305
Ni 4.691528090216097 4.728431602353248 2.9986161113767342 1.83803357037417 0.9964179175302259 -1.6561005109093672
Ni 8.221929636381635 4.971216877467372 1.6184764298802379 0.21303363752434926 0.015059208325967615 0.4805003571865982
Ni 1.7263665909496433 6.075560115164329 2.650438802453202 -0.9953126002811891 2.697228112642142 0.6814986608129683
Ni 8.949515072723178 3.399726660647298 -0.13398286072788596 0.6353314182282864 -0.7147265696281627 2.068426525112573
Ni 0.8842872566035599 0.16281889682833406 8.818205086028648 -1.9707459451399476 -1.0111598517260907 -1.6749934911591282
Ni 7.649568188718812 1.8684282016996108 11.817893165515068 1.527620429057382 -0.05443513902042883 0.0036918470292904163
Ni 0.45079030533727577 7.091815947108249 4.666443472750161 1.3835779739907654 0.9402961348359935 -0.08321529647691475
Ni 7.910701875035548 8.88955626048812 6.86945443600506 -0.26227077728360637 -1.268807014194757 -0.5851941352522632
Ni 4.93097814465591 2.0159483003700687 2.256390465523142 0.10940635304998576 1.9134707655675625 -0.11076209574693181
Ni 6.310397230586999 5.534916146364803 11.128538753088929 1.293340737670063 1.7932421250910926 0.6162543469921774
Ni 1.0276237672000172 6.619595674565056 10.331930220268458 -1.5072441793938753 3.253143810645262 -0.22326328567215742
Ni 3.568920996206862 3.664862611773205 4.465617152716417 0.5862274616127839 -1.2271021782568028 0.9623675128137361
Ni 4.246393567543425 0.43671003709899947 8.055477697765255 0.3457753228661658 -1.856692580236254 -0.5233992134326534
Ni 7.4576567726226815 6.782354443471374 3.4639197938905557 0.09590189080564773 0.26844168198100865 0.30469217967261075
Ni 4.187543363870533 2.865208223903124 7.700054034740048 -1.4999646150133263 -0.09892447968205544 0.3811187353624662
Ni 5.94056353525121 1.2956251896094861 6.907144308622325 1.6170539385298663 -0.12996463681731166 0.7082941837392576
Ni 5.87677156798765 3.4179153570570553 11.289460801877423 -1.6231353688372563 -2.409327036384941 -1.6827826481862438
Ni 5.817357665045861 5.995674533773749 5.051223654200766 -0.4275662281917282 -0.013877272202724488 -0.07888478742236091
P 0.433085450799989 7.639515551756808 7.136324701881608 -1.8038042168776547 3.0667082353244153 -0.26403481116256466
Ni 2.7370981700583674 1.4465368788811432 9.3981605023423 -1.3144559223821235 -0.16875564154258033 0.8806144027046447
P 0.3313396117615656 1.4831585413838466 13.093982417462133 -0.08392749205259094 -1.7479621702073702 -0.04234504062511417
Ni 8.011942263729527 1.7412670416241653 4.193934774081049 -0.873008822443245 -1.0988157004728625 1.228412412427794
P 4.334791007894357 5.927795746810682 10.636517604226933 -0.568276276451002 0.5834056758932726 1.2635658204004754
P 0.4519214618701966 3.7331641731879435 2.102494928121454 0.5251398502728439 -0.8127123395460327 -0.33657051643844615
P 3.2621840390363244 1.5030571255759257 3.7904388374042672 0.07903982494298645 -0.4198094670644448 -0.34965691730875914
Ni 6.668543561080983 3.6544153853229724 3.9110996054105436 0.16430763307355573 1.184581788396089 0.10870289922505795
Ni 7.283135478972037 7.922473794767688 12.865998945650475 -1.279852730485957 0.1530495436612332 0.35886738016343356
Ni 0.7212757625250192 2.1983989637365373 4.816887291628633 0.8305930764811954 -0.17505741539089206 -0.29509450868184667
Ni 5.721697899113967 3.7303174918800117 6.351706052510584 1.9600473277755208 0.3718846183587079 -1.1014269128434644
Ni 0.8210665045991501 4.2713748401433955 9.523551646713408 -0.053494629484030456 -0.8094388110010835 -0.45155153536273207
Ni 4.8938491528112 8.531381745030695 0.6497658127714726 0.08104502829847332 -0.32060576557907366 -0.7431760832181071
Ni 8.505911933064345 1.6527944413707134 7.371871138884307 0.1678722104963625 -0.33197415531701535 1.2073000559292109
Ni 8.811559071648347 7.355373540281243 1.5933824174264872 -0.048212298039168586 0.571679645705596 -0.4256080760240928
Ni 1.195587359355822 2.7249034758745534 11.635149378528773 1.9878874899162409 -0.7605138031656064 -0.4357212531986948
Ni 4.88278185716518 6.34413463183051 13.250930386404901 1.307881097378083 -0.6839229539837447 -0.763154326112247
Ni 3.082373367245859 1.7932307192286936 5.906795130547909 0.059360344236188085 -1.0565045984094772 -0.14706992903903057
Ni 9.190318005408345 9.322571248879498 3.463190742836115 -0.05072709404122232 -1.1735021335431595 0.26454311825755084
Ni 1.3200333679527447 0.16294666866261745 11.097586026233772 -0.24657573514585276 0.1529688110219688 -0.01081637388921363
Ni 7.794363740922932 4.818332240754574 9.453822047150794 0.40351278678695024 -0.659164258981826 0.4579065310464823
Ni 6.899237486877256 4.113238405242036 13.107746074611043 -0.13266069559223603 1.2515911645371025 0.47842933359018247
Ni 1.3129307571646374 2.2823055999119197 7.544357478174233 -0.40625563963940997 -1.118683643041383 -0.02419356652706801
Ni 0.36860670992715633 8.016527017783224 12.936813666305714 1.0976887859572708 1.343919479058879 -0.07298461988784204
Ni 1.0315790570701142 1.2602154805349124 1.938932887756957 0.4258749565322343 0.6706097818146064 1.1167697138481216
Ni 7.042060091640235 0.6780550605810902 9.076934594963536 0.730448865459426 -1.1981857523327686 -0.4819597153409442
Ni 3.9089162102423476 1.6114846799483469 12.04278286783926 0.0156616177966569 0.13341942813513152 -0.6547946691592207
Ni 8.934220032560429 4.174503120783372 11.584849553266274 -1.877420813922541 1.0796787225330953 -1.9917135485305504
Ni 3.295010126461785 3.452028557813165 10.300674974805657 0.4833303704362256 0.5835195757633177 0.4162999112492895
Ni 8.824486574881728 6.01961296272626 13.225932202826861 -0.34869403917485753 -1.8265795629009576 2.264282108195739
Ni 2.9282016172024115 7.17805254026174 12.407941617238327 -0.97420795709209 1.1221312352703514 -0.6071043050617932
Ni 1.6357425384865663 4.267513500151448 5.396636957709138 -0.2002709385420422 0.05820026248981589 1.6770873975736795
P 4.932424972779414 1.8388527800581258 9.53892466527502 -0.8866377260805893 -0.4614862779779407 2.092951506837131
Ni 2.9170591616538726 6.148916180023515 4.816090596661924 0.4291703394540544 0.537144588043204 -0.3519675677198067
P 5.992799667502371 3.759009784666891 1.1926345146855808 0.49541738350774683 0.3810490584667954 2.082824445705458
Ni 4.268997908226211 5.474139970189845 6.738824646428333 -1.3724073020859267 -0.06989723921176995 0.16150178819364447
P 2.471652184334567 7.944664755986618 0.895437228142351 -0.42249601275767235 -1.4883262594434499 -0.24306309400690398
P 6.858444449784712 8.589123340141422 4.668093232610467 1.1321708788945406 -0.1505002948768182 0.5297992034217263
P 6.778991037833619 8.558749344535665 1.5532028730382599 1.8369771040851977 -0.7169893975204104 0.003816802642928911
Ni 6.288093529514291 1.740036298220406 13.723892862985474 -0.7955965058013524 0.04246845357685589 0.4521326046771826
Ni 8.063238897199192 2.552139044945305 2.1498513037015274 -0.6103212693371941 -0.07051327552921403 -1.3966378924985172
Ni 5.378987533599958 8.307856194937232 6.2162913956397 1.1623795412674367 0.5107203324134043 -0.8702595418328819
Ni 6.500833633596182 2.869558103261449 8.801951757108771 1.667098661792084 1.6649047394645584 -1.1505900048316766
Ni 6.38491827393524 7.730139604219885 9.84919131936764 -0.8155865757700341 -0.14934689799866538 0.685425249560884
Ni 3.334826084821574 0.2300700986053606 1.9048309609862255 -0.956474544368069 1.0520805011998524 0.599434190111045
Ni 5.894152295445322 0.4599973933959338 11.035998123111602 -0.30109700612218465 -0.11863661339900215 0.7885491120362678
Ni 3.5000463405354107 4.175414434601423 12.692605050537624 2.037844538560658 -0.9149203750753662 0.12349676970478086
Ni 8.333485721696436 7.021588413191444 8.811810857321788 1.6324450762739564 0.9002308913839916 -0.3834273288909848
Ni 9.056354874154872 4.527303703210645 7.203537384208594 -0.5022009820884834 -1.1606018805417238 -0.2556296178180049
Ni 3.1190701896510817 8.354774764085128 6.465464322969212 -0.6662121669675429 -0.6084330511755456 -1.294514960483822
Ni 1.860508226971602 2.9015010618323034 0.481474335540926 0.6412457268301924 -0.19243575876833957 -1.7944500293562642
Ni 1.5986605215809302 6.053970433165558 7.090769345465662 1.9083144181776037 -1.1190006600611697 -0.17438018681820935
Ni 6.6918525258498915 5.878876045258201 7.722907342599931 -0.5812184384339667 -0.5801200631634654 -1.230901754508551
Ni 4.872588295385952 7.270132815836137 8.084972322511533 -1.165047060797271 0.050957721994789665 1.6296819117065224
Ni 9.205124506204719 1.7574264206658916 9.890002206937032 -0.6452304225095534 1.284151357861311 0.07661244644841644
Ni 2.5595422953434914 8.197108078574518 8.627361880047077 -0.6482800079691545 -2.1530620989757825 -0.8009713969600205
Ni 4.932049173266816 4.686201132125015 8.949659755535528 1.3559540416259102 0.7947601259429861 0.24800835382732128
Ni 4.12656989295146 6.9783432842791955 2.7115052837516425 0.1051015550270448 0.46324671231247316 -0.5643697423077442
Ni 6.324085727833392 6.0601147551965395 1.3413693852805126 -1.125042238269559 0.9819696033153796 -0.0713617395724384
Ni 2.6269419379279944 8.404859444126666 3.910027637300857 -0.6283012508543825 0.572553306559801 0.5552523533875082
Ni 3.4759388018022306 8.689809424554317 10.48599110945569 1.7470795104921006 0.3582477443015637 1.6620952950402215
Ni 5.520635764886069 0.02406714028557583 3.197448814996144 0.002885291967595031 -1.7468874490859527 -0.45530483175757713
Ni 2.776763808613117 5.671716563938395 0.540309507233314 -0.44545133600226505 0.7400431940160803 0.3398949528259888
Ni 8.585017730466284 0.4471394130723835 0.8988297582423321 -1.2247686450276196 -0.8745026333799519 -0.3708782885813806
P 7.843302232451044 2.9318656624502446 5.9770602444159735 -0.9192619398735137 1.9704448689597613 -1.0808120648065902
Ni 9.35198695572813 4.824965102151934 3.940333988994346 -0.8729003218898387 -0.1456121135465815 -0.2887564822789608
P 2.2806332920808576 4.007883011885107 7.8013958893024276 0.802593763054792 2.113256022722438 0.12253877666688573
Ni 2.7304747036488224 5.685019866684374 9.356152693325281 0.9196738305999517 -0.11522835904840156 -1.730156766594833
P 4.05657723373003 2.5026650391117404 0.24888262220603088 -0.41003696105871323 -0.7412528980534653 0.2638005836645715
P 8.542796655225867 6.349997104227044 11.274995339138735 -1.229166002764367 1.2335049964593532 -2.1866671886247375
P 4.945737670513208 8.332151633426712 12.211597645891102 -0.002337904104557264 -0.12682943362243965 -0.13577327307928877
Ni 1.8235389499197454 5.096865444504609 11.674846960042094 -0.7584589775191066 -0.4911938323447025 0.5069168995069141
