# total energy = -381171.16389519564 ev
CRYSTAL
PRIMVEC
9.21696906392668 0.00000000000000 0.00000000000000

0.00000000000000 9.21696906392668 0.00000000000000

0.00000000000000 0.00000000000000 13.48996589056711

PRIMCOORD
 96 1
Ni 8.995236277051584 6.57812305147215 12.350293143489878 0.2787638898426231 0.2276794124619821 -1.1991105781398832
Ni 6.22817317635947 0.7498870593458333 3.4179387150468252 -0.6364650176120974 -1.0630015189877307 0.9598375473030308
Ni 4.042977322187149 1.9130832814017866 3.890020801630826 0.5092152086227876 2.5985412028921893 -0.7562779107073878
Ni 4.481603655065818 6.782979402195243 8.075660211812314 -0.598448429159008 0.3116896940363664 0.2582133193847811
Ni 5.8646190551535975 6.1120117173401605 1.9567330027081138 1.0167517439915714 0.15573531802351245 1.0513919597732604
Ni 3.6347301187957144 8.864512007173708 7.078859772662604 -0.3124988202012231 -0.3337299616658575 0.58307246092357
Ni 1.1456784509687439 4.742757251816838 0.9684361390635385 -0.8789169603975637 -1.6596686878765996 0.40843079291385787
Ni 4.023723074159588 1.7953825885765409 8.473977974610118 0.706879562779918 0.12361863999462581 -0.24271856618329168
Ni 5.414646633561703 4.303550249897604 0.38792378697172586 0.7058701476787973 0.042647659467197514 -0.7194681980782061
Ni 1.9447712204725143 0.9849713812662395 3.4668540906844805 0.6231924688729074 -0.35192848695175516 0.6204179914515638
Ni 6.7699189572670235 2.9096680434792876 11.802101014535182 0.49118843302806375 -0.04413324287378851 1.3465317198707456
Ni 0.6039299049705207 1.734993008357981 6.095777870020419 -1.3184637579899356 1.2770378867449812 0.4069544654786475
Ni 7.161695437238041 1.4399301830318583 5.783795454888556 1.0015974048486365 0.14754712578576526 -0.025389643717698213
Ni 8.817745106986138 3.157069922634749 0.21290921644912508 -0.10965009362967566 -0.14496702376341483 -1.26397462580312
Ni 8.773393052649796 6.667269574651929 1.140997152465538 -0.004506629621101915 0.44748302172031323 1.1837888601811486
Ni -0.049492357890659484 6.227048706153934 5.317029715964821 0.2517901894672567 0.7898184656669945 0.5194618260514602
Ni 0.8730312940021354 8.980784069819792 5.226377140067137 0.06564103503857727 -1.4052821984370767 0.781505317815609
Ni 7.227154350350405 4.0828499296391465 6.173062154228695 2.7873591624022835 -0.43822653611905166 -1.4644749067471488
Ni 2.870311586285568 2.1580610977371197 6.273427571950909 0.5674874620011194 0.020272119985474766 -0.46407640730262006
Ni 2.7811558461368913 3.3935681275840817 10.53059066077953 0.47628271956082496 -0.3608990658814817 -0.18171991501273219
Ni 2.4507920299320927 2.5648520200426965 1.6929230755207412 1.5893209913909725 0.08401876621481659 -0.6586258699798528
Ni 7.240518955252254 5.5303564611050176 10.993728600745081 -1.404887019881187 0.9681090432832036 1.8756120428485763
Ni 4.532628794884186 7.305166775101609 0.5400139124516523 -0.5688660875162009 0.06754982202551592 0.8400567929972566
Ni 2.4347268531431805 7.476980292325996 9.187812860112103 -1.180175431798277 -0.39176027423671245 -2.1503894372396255
P 1.5325975883306069 8.076516468222922 7.005824511116225 -0.4565775278224136 -0.6069430968935805 1.639328690767667
Ni 1.8535140114151334 3.254373463289104 4.079459928478525 0.17748993609178462 -0.37024733986560104 0.5771787211469542
P 4.807211515319339 3.3575942979758646 2.257357347067185 0.40938930017238523 -1.1883194010616502 0.7221015219359951
Ni 6.493133381265291 2.875408570086066 3.8913425149707743 0.5704486015119723 2.1030937374774554 -0.573634969659754
P 7.580910833617888 5.004178140665894 13.284594238240313 0.09165751370699698 0.30961378534394424 -0.10998150882716544
P 8.58363409698134 2.8211574911534587 7.603201151200392 0.001918042958319277 0.3805461506884479 0.18759539995690272
P 6.532056640920812 0.7833216140226994 13.069578022701146 0.46677657984260257 0.044437404377768636 -0.5462699473832399
Ni 8.145026198040467 7.265791883970094 9.176400409222815 0.68041468372017 0.7013702029259147 -0.42922021885538336
Ni 8.54101483279779 5.278041937527015 7.8717052806474275 1.9019463098677307 -1.7378405083923358 0.41935335336363255
Ni 5.189660422765755 8.355412730102257 11.89129638765012 0.6508307994154662 0.6125915534286095 -1.0791668158936834
Ni 8.489095646996335 8.93079123051798 7.1567099787612065 1.6583101169661763 -0.36770966104541186 -0.0985627254672625
Ni 6.5312178967511105 5.730226431654388 9.002690039799257 -2.353789408328953 -1.121738884927939 -1.7836768500001603
Ni 4.666256409964877 4.72378872982511 4.328025910805782 -0.27109634599503635 0.11864304115690535 -0.8612565670033232
Ni 0.8024634150297055 2.029779324617169 10.41163646018418 -0.40233933530413934 -0.1585982413936043 -0.11431484609519668
Ni 3.447570348356448 4.944682606430422 1.8190812590066325 0.12079479739258552 0.9806693964467174 0.25139295402883804
Ni 0.8343744047477609 8.319162391427104 3.1155207485402365 -0.04280809630446176 -2.6257912968573938 -2.0515847709648862
Ni 1.5267724639871803 2.9997178296110536 8.268162137424762 -0.773255676212307 0.07083800585848445 0.4941272039414135
Ni 2.1095521904278582 5.8473464554390695 7.4253495976510395 -0.7973029469694979 1.395124026957152 0.5128600044642264
Ni 4.68413732962666 6.085310158443157 12.132578199457424 -0.30883165576228105 -0.40177754926339837 -0.26019101193644223
Ni 3.767242480639768 5.490345599119553 9.951722615939092 -0.3735833462173695 0.1814314372380359 0.016411608588803993
Ni 4.060240704932777 9.118540886966708 9.801620590650424 -0.6564622866696308 -0.35609830205872867 0.04724324925767993
Ni 1.8653209485732491 0.6473390633886146 8.406393628469916 -0.636568118848865 -0.5554994364013078 0.19840791719137443
Ni 7.220140237019159 8.22681758003978 5.309623881455418 0.06359469403250982 1.0024409837958543 -1.8971005517396555
Ni 1.6620867843761726 2.2026251423581114 12.681943648552812 -0.9391239689047632 -1.205358358821808 0.9710858665233406
Ni 0.03830203595180821 5.075379225401604 3.2287963745976356 3.413036088259942 0.8200147867447168 2.4780798775796224
Ni 0.9774595516145108 5.032400499431038 9.766668001196088 0.5280197429238004 0.5745073449623784 -1.4943398126273815
Ni 1.095768564387013 8.496819466932713 13.079533270807689 -2.390660313213373 -0.19272629342556488 0.48047875992004346
Ni 4.095145366148847 9.078004657754066 4.592699467978881 0.6003538737118371 0.07115630842985166 0.5196392321695888
Ni 7.8543783008164025 4.488433429019108 1.9373746029320087 -3.68766872954301 -1.0900443820381356 -2.4567950000589174
Ni 7.059018403716252 5.336486737308133 4.111269531538705 -0.13924529078828923 1.0255192057715565 0.4074437464102402
Ni 7.213734443635169 6.548278506180987 6.686665764000516 0.411234323800924 -0.12308256498549772 0.2583621862578196
Ni 3.9167693670692088 7.1586722714395545 3.2513650446408535 -0.10932870573451493 -0.5947010463014338 -1.658213700597628
P 2.7401772024171542 1.1520289425393466 11.180065295861771 -0.13915581639827646 -1.059495562717001 -0.8184289303148355
Ni 1.6262788602081162 5.224786291235373 11.918303949914533 -0.0667707777676463 -1.3338389548944254 -2.1640674489473506
P 5.7489921803303625 7.6994687045506325 9.66682887239794 0.6409443935396897 0.1729622234247602 1.3230904581286698
Ni 6.8502540581804805 7.255017247328535 13.098243717670277 -0.3199151672699523 -0.9070466287542442 1.280282618934524
P 0.5147465139151505 7.792062374098198 10.5649902321 -1.7005615694362197 -0.04984649120848189 -0.7044676109043158
P 1.6852674611542067 6.438412236918895 2.1638853003836562 -0.14906253398902716 0.6379590856591206 0.6428279837156478
P 8.756231056562042 3.24726718026888 4.542044850310206 0.2670489153985401 -0.17688135597350826 -0.44424368884740917
Ni 5.476400325177141 5.204637997224723 6.80839888071856 -1.9530642115894687 -1.0803346109495395 -0.0663804843077631
Ni 3.337316966400646 9.021357166908025 13.141816938134752 -0.24504695720615216 1.6007904254831529 0.2484618964249721
Ni 7.758438871558925 3.2260865857416747 9.639552174641711 0.3456053729472048 -0.8075770752019963 -1.7546637505972618
Ni 2.371682785882047 7.867355793024544 11.335644965766415 2.4011064482473614 -0.16579707313488867 0.9150306754009854
Ni 7.6516971547531965 8.478293359448081 11.245842194401112 -0.21302129622917504 0.018135276148130056 0.08644537337843823
Ni 2.9511444035195074 3.896233960364851 13.126316761539277 2.726438672767827 0.6584667186941692 0.13168958992821836
Ni 5.414517595997133 3.4820694629410127 9.810726034224587 -0.49344380472114374 -0.0816464093278981 -1.236945646709786
Ni 7.237136327666752 2.2120725354783835 1.6325556160275363 -1.5549147459969608 -0.6962359670231428 -0.18062282529381152
Ni 2.186919427356215 6.469593242700242 -0.02927032812882793 2.2480761878598376 2.275042689146353 1.9852294834681035
Ni 8.407239746214735 0.46241717299774 9.327380811647444 2.1963509915714043 0.5950897970994203 0.16864148456221925
Ni 2.351248765835565 5.483110278534759 4.1013539163984225 -0.6852347308166328 0.20973156973430976 -0.5286141819746896
Ni 3.8879755562323983 0.08342739397867746 2.0989038262601993 -0.5662186225910248 0.320136539252139 -0.041925436589192316
Ni 0.3526827063908859 2.3435341628680844 2.465129025052662 -2.082801562887323 1.0363864875033635 -0.33622521728388544
Ni 4.853112020430515 1.6324265784629666 11.524302493651579 -0.7677537725574713 -0.13998216895431376 -0.10407285665221432
Ni 3.6038071881435063 4.003740685589101 7.861331582152924 1.2038048982917589 0.2523959413720556 1.416459555210135
Ni 8.53996409834344 0.7019837068931591 3.90162220038252 -0.3973812199679156 1.3097248354550413 -0.3917697873184091
Ni 4.6061894236577405 1.781870512172327 0.44952447690346015 0.7405962383060729 0.5875112134212139 0.7025868489418352
Ni 8.79181777347655 4.108712744366447 11.296213851124623 2.50042456382341 -1.1266982858157435 2.636614869835459
Ni 6.338223784999519 0.8757696554616796 9.72946278454312 -1.6092874072105705 0.43474654799025125 0.07649263304110053
Ni 6.2206152618632515 8.442181275306396 7.635536121487747 0.08908306811160142 0.31520027829278624 0.5290895789492113
Ni 8.80115456297005 0.9476887420745308 12.565916757279412 -1.3494434942009017 0.8788915064762671 -0.3434009090967183
Ni 6.353302746116363 2.636007019933918 7.7294404440125835 -0.12379244656832876 -0.871227562173106 1.8083679249889373
Ni 0.972611425974254 4.167876467721596 6.208729980469505 -1.4205859186736827 -0.3448265857996513 -0.7383156698020124
Ni 6.255464621265935 8.864475139298118 1.4990994365683459 -0.20555095599405893 -0.7238221041715276 -1.593324970344043
Ni 4.935760580537326 7.003172789164321 5.390940589556493 1.4144767204521513 -0.07706007550879632 0.6337540464388375
P 5.290825873388299 0.7500087233352847 6.497361204898724 -0.4856731596367893 1.8285264022146834 -0.7068196560762602
Ni 2.6632247290891997 7.402709956947309 5.275911896014727 -1.077246716052835 -0.2124050028014148 0.8906188222155242
P 1.7197204908942825 0.5181614008917953 1.134601497747336 0.32052888959455117 0.9501959104482087 1.462038015170882
Ni 8.539106920235941 0.2605286862597462 1.475532568793493 1.23342683492325 -0.4874333368610056 -0.36092914778846874
P 4.738342323714778 4.017252761993315 11.686168136344541 -0.7051648940816566 -0.26009665245042307 0.7316151178533852
P 6.110638388974385 7.757600127389224 3.520881197272871 -0.8940342756549764 -1.0898602910517876 -0.2763377968996338
P 3.0869287893222888 4.644799306370737 5.964466479223752 1.1436698806730756 -0.7231777857193094 -1.3258834474927748
Ni 5.178747531590729 2.954785106234149 5.843300206092924 -1.7324923567065453 -0.43027668514435574 -0.027727033601623215
