# total energy = -381178.5989003855 ev
CRYSTAL
PRIMVEC
9.10665724582129 0.00000000000000 0.00000000000000

0.00000000000000 9.10665724582129 0.00000000000000

0.00000000000000 0.00000000000000 13.32851339429197

PRIMCOORD
 96 1
Ni 8.185063442960006 5.114817732735411 1.077120836595239 -0.2986948244385953 -0.1746396111271831 -0.8555492322059006
Ni 7.682130088749556 7.603903903864124 7.321072078216127 0.022898244754412177 -0.9177455032289872 -1.38213918466171
Ni -0.011543598598460283 1.228852315301539 4.174796708809753 -1.3046970432231466 -0.3393110552980608 0.6212749401352203
Ni 2.1046304263896793 4.707558918502418 6.6960985902586865 -0.5625355173124827 -1.3757854745295404 1.0904534445510963
Ni 3.858190113138114 8.86309049411949 8.561690194550492 0.8016092876543355 0.7697417495217777 0.772016147378251
Ni 4.417648488254719 2.8735328092105985 3.140184837107029 -0.8838673624243036 0.5727613088055491 0.3394658357083702
Ni 3.001672581914081 8.493715373614481 11.992609614376947 0.08655798769690254 0.637411697796083 -0.8222398194204936
Ni 2.099885858016535 2.5262231189707136 4.229323729138042 0.30266640749183354 -0.16639331195799084 -1.7693732888932947
Ni 0.8144547925316783 0.9327402515373115 2.0534309785825924 -0.34063157388169724 2.0382993667098894 -1.1130467564705797
Ni 8.483816437296618 2.4522224230010954 11.732970623148766 -0.5649227865977366 0.35883524137391754 -0.03642944647162758
Ni 3.0483441997881022 5.006776352353483 4.070194912831925 -1.179379161149227 -1.5059398587601547 -0.7900501220618266
Ni 4.361314707148632 3.7152975558578674 7.742293219185599 -0.36379567070298635 1.3003140836641025 -0.6606948366937396
Ni 1.5877638867456196 8.271248846191172 3.1881669029443813 0.7362351331238998 -0.8026395286910628 1.2382412255927577
Ni 4.456060368097182 0.6655099509121003 0.19658996114252236 -0.2782622676158562 -1.4442069005267322 -0.47093585342661476
Ni 3.336679178349517 2.0240091906748097 6.055290446855519 0.2916232623037945 1.3668238944608782 2.700133202104079
Ni 5.369895199399085 5.188053469504752 9.572524584444617 1.2850504726368128 0.9016082313474924 -1.239463528035633
Ni 7.473050347331087 5.607952323856604 3.303938924577677 -1.4015846949808313 1.0455673826716831 0.9887040938257359
Ni 6.244161605400965 7.788395670987985 9.62193366345677 1.527196711256402 -0.45058171525029495 -0.053640668143591495
Ni 2.364534421340813 8.611619263685691 0.9424260920779571 -2.40506671844669 -1.182532362066228 -0.6933846136172768
Ni 3.856332355080299 4.882597975508576 1.7615362077427474 -0.9577428695575312 -0.1850993730079264 -0.5927768326955275
Ni 6.484458967516437 1.6012053126933377 12.816018982880435 -0.3942316185953404 0.7532463229699157 -0.4794947987402194
Ni 1.828853528032806 6.6045666686170135 5.193522017121016 -1.958207960573937 1.1303495094150855 0.2049248923742858
Ni 2.335720958130393 6.191151754153223 11.683947666399611 -1.741425397530117 -0.8175436994964049 -1.0724588077458885
Ni 3.3961092228852947 4.1616148225907 10.344392094832322 0.7953095706885529 -0.7068443386666086 -0.3156401940436822
P 1.0888465683366222 4.316236754275188 4.816484555293238 -1.2934140141101595 -0.2549125371463223 -0.3725384498926229
Ni 6.356036888441422 3.8917936780074087 2.0061947479655102 -1.143887138890204 0.22533250949636033 1.383091264162334
P 6.560435808086769 3.999370618874884 -0.4783107746186882 -0.007962706490502415 0.3247303292704085 0.3486374749053093
Ni 4.615372228211937 0.9761425794958644 4.6372700959855715 0.26127833146335 -2.046923875154107 -1.3900720663555415
P 5.598035174224446 4.2865035186930065 4.651571190367886 0.6403602389014456 -0.4956572674326948 0.5284108077146319
P 3.183232005436883 1.0386051408613102 2.403864252223607 -0.08152711014121443 0.6071356725203608 0.18941754076730605
P 2.5445912464344986 6.543488319137784 2.3117640751760145 0.7427107135459144 0.2693719071047619 0.7430452140671977
Ni 1.336192483083214 5.871717541437705 0.6496406901692184 -0.9281217042569887 0.554865916582367 -0.32864072006840817
Ni 8.57369914332912 7.740084854827658 4.352759002759824 0.19171276455938593 0.25797806344552343 0.2400088805616125
Ni 2.6116982029444813 4.040241296146807 12.871305498414715 0.43482933751204467 0.6620426089708856 0.16389959900185966
Ni 8.710426493721423 5.640208103468268 5.697966165752013 0.2116185023443775 0.9116332196836622 0.21310948506760716
Ni 6.1721643740035 0.3989007243042565 7.798433028494472 -0.8638464392176864 0.22135938378122524 -0.5310893829880595
Ni 6.411323403975702 8.169126792954243 0.8365775947368215 -0.39429718172595324 0.6405206757387097 -1.162727925745791
Ni 8.228219891175613 4.248373945222075 10.070171524181728 -0.4270028994890904 -0.22703329423755095 1.1836978431292389
Ni 6.220447870192388 7.94920102287471 3.240334388406104 0.9244699664370144 0.7534635811870443 0.2725734447611951
Ni 8.1610674013799 1.6500989549110192 7.33550704045849 -0.598494451905595 -0.16107961305456128 -0.7442130091230538
Ni 7.118318731517091 6.023725862521248 11.638018241083001 -1.3050927359996685 -0.9138950191346453 0.8078372708419185
Ni 2.1155128816793294 3.382540303737531 1.8693107630702939 -0.6485247769901089 -0.854728278966502 0.4414453001666655
Ni 2.4007607034681993 2.586354376106745 8.365641168842451 -0.278213673766108 0.20120604876180184 0.6520471883210706
Ni 4.18789663511449 8.14963854666148 2.0568824016409835 1.3228485173211928 -0.5136621886505476 1.611176139592851
Ni 8.709907414264093 8.498833314930618 9.075744598467821 0.2410553195482558 1.7312831668897926 0.40759621282770453
Ni 7.144983023641019 0.3448691061247168 5.605199381401323 -0.5560619937729971 -0.5023084542006252 -0.7396043067064488
Ni 6.093901762489483 3.3729054604769035 10.65137477523191 0.06901843615124242 -0.7500612403737147 3.5481622146735345
Ni 5.71391738640921 5.835327339481688 0.9428914422581254 1.1906537056217819 0.9063300623031939 -0.9870485605001841
Ni 3.7943979798293297 7.619612887441233 4.54607603132402 0.5480082702305853 1.1884500131022435 -0.25953460929936595
Ni 1.9058047809177772 9.460997175707142 5.379161223045292 0.2351708357430208 -1.918287727340232 -0.18388709786738008
Ni 8.66281689016135 0.6382546367393866 13.233294209308479 0.879251718029163 0.11032449398888096 0.9688533776483959
Ni 3.9852644069554968 2.107763116447955 11.550662632408553 0.10706536362163496 0.6350668517129902 0.8858275714744679
Ni 4.677570696520144 5.300447832002542 11.891392762860344 0.7003147650782068 -0.3906385019274433 1.1481425717324485
Ni 4.795419946648478 1.9938479422067594 9.314671408682797 -2.05091242748821 -1.756879013081026 0.18765556377087683
Ni 6.402307813401013 6.855801125965012 5.3647535807743685 -0.6818115640676967 0.16685739607860295 -0.09136543638787491
Ni 1.7987560261647788 7.322453558105199 9.638274649039824 2.3686647827788883 1.8534553042458788 0.33016101336767656
P 4.696803956412814 8.606665242198186 6.309757767490401 0.40666187393889325 -0.4055344452026693 0.13369685016623425
Ni 1.6403639384217845 2.71791825189718 11.262966941178798 -0.30028710862637964 -0.06328770431505229 -1.2350520292314988
P 7.58174740702754 5.924062606713777 8.873457512614667 -0.8647800067755493 0.28067884747714883 -0.7134515595704809
Ni -0.4082905984876522 7.7266252155656465 1.5767229756216268 0.6121012440557523 -0.4571290294505094 -0.2668360280567856
P 0.5649041560900033 8.112210185790802 6.475724772647562 -0.13550433568861822 -0.7080980085680515 -0.017095264919389914
P 7.140010788839221 0.9260923918206218 9.622867095814252 0.1652874804883218 0.3153254910167408 1.1100583632662173
P 3.3829592099662533 5.652556730558448 8.513161729284372 -0.004017348689509211 -0.6187521737133667 0.5146482067129008
Ni 3.973771805637055 5.810548125387013 6.0409356231960425 2.5005798584543513 -1.254015971928511 -0.5020575145320838
Ni 7.828446749116754 3.4872486476039684 5.467116049759957 0.8547467909092634 -0.9327504612782517 0.20748493979197816
Ni 6.483184035515975 3.029575379409886 8.511762036081008 2.610350022601659 0.5266588580205317 -1.9516791583164839
Ni 0.9736109288092346 2.251502592842794 6.2488205711969345 -0.5997378373943929 1.7077683715973042 0.6877053038443125
Ni 3.4274543367823442 6.657904359522017 0.21190462646520355 2.0581251431865653 0.020994085753163846 0.5282539704217935
Ni 5.759459778797108 1.4815165178214824 1.814690854839113 0.39426607137770164 -1.6727527747540676 1.224211744082885
Ni 2.8253494862503166 7.324120076362943 7.289510225878999 -1.2414540761031008 0.7503281208818561 -0.7537965390464308
Ni 1.000694127161886 0.35709297201199447 10.977097134706845 -0.9204251069436793 -0.5314686207043492 0.240281931717341
Ni 5.485276545440811 0.3165055117773166 11.25567615146759 -0.4476460296607388 -0.34455199198202596 -1.288110085398743
Ni 6.69442205467808 4.965240889109891 6.845164550418308 -0.6858898479021284 -0.39641448517927214 0.7170390198114232
Ni 5.745772473106444 2.575635840645726 6.0912772238999615 -0.23244906593648354 0.06220449855320256 0.769518577767378
Ni 4.141297870497638 7.122817420147289 10.319188510514635 -0.4582091498885657 0.0502781794292618 -0.3758842264364043
Ni 5.358520984623543 6.703628885052838 7.6948038234998535 -0.5674362970482099 1.3499970527115266 0.16510981725987695
Ni 7.617081236754603 8.45527617380058 11.675230774179315 0.2519593680552693 -0.17924188578588485 -0.4632909352868473
Ni 8.935488418431385 6.711096343912682 10.440077562798354 -0.03416738991032826 -0.8221734849589324 1.246723552032156
Ni 8.857043673774445 4.149757954986412 7.912005792426973 -0.07723053964838958 -1.4441706479721579 -1.7608464823692063
Ni 9.206101842186392 1.9554451690214432 9.286801395152718 -0.20512595264149835 0.7693005482193009 1.4355600234850114
Ni -0.4892068898940572 3.54279014953834 3.252957125876383 0.89085022150004 -0.4907672863302451 -0.4731788838245206
Ni 0.6214419263161638 5.693400087858933 2.9285543210219247 0.8606878389840467 0.2119648299402027 1.0214445214815504
Ni 1.5119236460324788 0.43382020113117026 7.9751294971012285 -0.1347054939364067 -0.846130252884846 -0.3902322676279602
Ni 7.767841945809123 2.389313635435488 1.1945548231577072 2.632779298139453 0.4451158070397173 0.3386675081767909
Ni 0.7077293241073682 6.2065784313588015 8.119490047513436 -1.386120280796645 1.4269977357372974 -2.400797144537059
Ni 0.23151854462658236 4.807996240167311 12.22084703043377 -0.05911017589859497 -0.743879537043035 -0.5814318399963535
Ni 4.975868357999448 5.896542288818111 3.433531209095971 2.0884713595785906 0.7700181431116158 -0.2417618586969772
Ni 6.6364581819428325 2.069141783491131 3.9726963094280947 1.0287143156700862 0.19606512799081072 -1.0673124876582587
P 0.7406872269850012 2.8736147691249143 13.610144984664762 -1.477154044876714 0.6857098706808383 -0.6341366265892369
Ni 4.641890813821528 3.0628328913076275 0.48269380870313044 0.1122592491177486 0.5538796414096978 -0.8055428183807868
P 0.5712906547465988 7.9478714509313715 12.698981135903825 0.7376649235918908 -1.2267391384904294 -0.14423143114897097
Ni 2.3470860662487882 1.5261937777804964 -0.031006346251212978 -0.41064168452224764 0.9483053782937152 -0.21610199203702785
P 2.8177727475047196 1.0423661902626704 10.070731583596215 -0.10594744796710785 -0.06914082066171964 -0.7037713561682396
P 5.099227135701202 7.531041540037774 12.327808361278167 1.0375897637828453 -0.24593990133406676 0.40504387871949593
P 7.6748720830040735 0.358470809238207 2.456897780779929 0.0899497869872709 0.5862369746944808 0.5687832979944075
Ni 1.3582123800626058 4.7811407082433135 9.726002719991548 -0.008967493605932943 -0.4459244189839417 0.6003965540243144
