# total energy = -340864.7617414832 ev
CRYSTAL
PRIMVEC
9.30308254146171 0.00000000000000 0.00000000000000

0.00000000000000 9.30308254146171 0.00000000000000

0.00000000000000 0.00000000000000 13.61600166942437

PRIMCOORD
 96 1
Ni 6.220310704842672 3.5090296633254128 0.1897652057994064 0.41087359802739554 0.6554649557533679 -0.3912817919383971
Ni 7.3693065070334285 4.996313452068046 11.585569521315989 -0.7473263579410548 0.4190353079025816 1.3225189018959158
Ni 5.107410862496296 7.701547490003127 9.150933311833889 -1.1245964089813922 0.21532860420611305 0.6286036125861497
Ni 2.6282417277103116 4.426378712906603 2.908037513765906 -1.3123748714833785 -0.9128218406751247 1.092516497727712
Ni 6.136843449243755 1.801802399675334 5.777896107530431 -1.0410414697768717 -0.4840559357483406 -0.07468489040840041
Ni -0.3327368372634368 1.7161954351165694 0.3114634786613364 1.958363255204879 1.4935687387893117 -1.9083460427464876
Ni 4.020913168097953 2.211212451436051 0.4137973854366474 0.5245970903954966 1.4870767033070649 1.3720686877995854
Ni 0.49667296499275465 7.305385027628596 8.447598882724881 -0.7600646314433298 0.646973373342589 0.503199855666643
Ni 3.8644446246385016 6.015559163550143 4.87853177691088 -0.03375164252914832 0.26166245427564616 -0.5600963117433708
Ni 2.298242787607236 5.255608965671815 11.431450006171154 0.3022743142597375 -0.24345364457710325 0.599430333456303
Ni 7.258785887716093 7.364896845959656 8.05958405994615 -0.7784855571526785 -1.8167430364265098 0.9599334494509468
Ni 4.0931795124461905 8.318183702983848 2.791470821174636 -1.3330493691135945 0.3498523211490168 0.1721996342271228
Ni 4.791375849126834 2.730417482084242 9.452255500333791 -0.33040192573388905 -0.2623831344917546 -0.568282189988273
Ni 8.635939786603624 4.785170693143277 7.669036007820611 -0.49543460989892735 0.5560082577169263 -0.009706942875118765
Ni 6.19788097309401 3.0901304674818943 11.171016725585693 -2.0935086648921817 0.5578406829399747 1.662930389347007
Ni 0.4325105357528781 0.6365513215474404 4.004561140103501 -1.1372881455164479 1.3607074971504953 0.3031294631711811
Ni 7.8411774542568216 8.434537354987377 4.463978981180582 1.367314975164684 -4.119049960605455 1.209495263808317
Ni 2.8326862672825146 3.5211608828195042 7.9682612815398635 1.2306706123343516 -1.012157696862986 -1.3059717961705122
Ni 8.869447155700016 4.205039775634039 13.637650887099944 1.2904629019016356 -0.7664481663721704 -0.37443258159154225
Ni 6.196987877180335 5.515918515260904 9.011791759407986 0.46701543532628603 -1.0236117043361985 0.39899895807699676
Ni 1.4990428849393596 5.746495413390548 6.069169106384998 0.20594073523330986 -0.9797641110236289 0.6301714712939018
Ni 9.22907641335576 3.407570246298909 4.1452963105503695 -0.6046270471658941 0.2898558859907266 -2.6057004396447896
Ni 0.7463658369080266 6.321379392406943 12.963318817479303 0.06947454985205455 -3.023862343803483 2.033029890780834
Ni 1.942995281777961 2.47985756288611 1.5387847227896732 -1.2750187994324234 0.5962532212799022 0.7050785050154372
P 1.1882734162276085 0.09851592174434844 8.686913235876649 -0.07582903131517263 -0.4859940333113179 -0.7138374821549901
P 4.227143899497506 1.6775876430149748 6.9811688835665695 0.42897519272411283 -0.07638850336306843 -0.10497428542056114
P 2.2175757598209884 8.793906126334967 4.179812606997438 3.519062726204417 1.2885052639546324 -2.04603375923967
P 5.255599662589381 7.738536545761185 7.038287949095574 -0.4445879595607053 -0.23729225296139775 -1.78381568957087
P 0.4079485375103166 8.236753822438004 13.4642786428577 0.4464188421218569 2.403604789189183 1.1585498831087013
P 4.003581525523188 6.082829752631258 2.5508084513781637 -1.5285092594202383 1.099542551336558 1.4602935216759496
P 6.616026619260365 8.05527859339564 2.4994619484995293 0.7576827614747145 0.28449642145102616 0.4356875717472819
P 3.535692297581598 3.7014453173102995 12.3875110423772 0.7473014182403904 -0.07453859463852323 -0.46166574097859847
Ni 1.631779265109372 5.498856662076729 8.890649810875615 2.363037152179466 1.0601866752467548 -0.09780604980689607
Ni 6.838779625062915 0.716681561477239 3.4987404541532765 -0.3208230237962023 2.377966005575156 -0.1998279374673526
Ni 3.295635558451587 0.8956030943914361 8.855942801238648 -0.7082093373349351 -0.30630760378884664 -0.3837366326012875
Ni 6.104952482659593 3.424539068658742 7.665195695391806 0.39954454616782153 0.35548380840318133 -1.5287776825902768
Ni 8.213998482804147 2.362164267012069 10.958498040768916 3.061493523892695 -0.7986944280003858 1.272880412933182
Ni 9.103540618989754 1.828325487695008 7.907479592456546 0.04679047799097748 0.7833781093582896 1.0116388482450385
Ni 1.2245554377206733 1.0434616350581094 10.689840835311694 0.05408598321112621 -0.054520756755699645 0.2549374768469868
Ni 5.316860460418056 7.004514038626748 1.1305859323618788 0.5014355646773687 -0.2824598506369716 -0.7875075581456309
Ni 7.537794632997762 9.594734068428814 0.9552767863568502 -0.2434474739295162 -2.659922434213148 1.809634964626819
Ni 6.436774826919756 5.91636039555513 6.184646408023233 1.2862941152359264 -0.011330851631786936 -0.6396724688058015
Ni 5.916006878422634 5.029962701232255 2.9097530021667577 -0.48251070274840774 3.7404789313655065 -2.231851498470859
Ni 8.35972196605219 -0.1375349100895311 11.920673062750666 -0.13344051118105407 1.1811177411068883 0.4702869069887061
Ni 2.564924948663696 0.2997434554108331 6.252317959957258 -0.09728694407863245 0.30177423469486736 0.1517033140459839
Ni 7.569601871840015 5.759659275034827 0.9323567821639108 -0.875350326092228 -2.347033834772674 2.5307399269774993
Ni 6.5881452812053105 2.9478956401466463 2.626771840685721 0.7248009231450292 -1.0511266219270157 0.14631453893024476
Ni 0.8314174074454743 7.7842053774302755 5.166523578590934 -1.318148540742362 0.5937947324370806 1.5248798901977674
Ni 5.492186351971466 8.099077505495474 4.6924691979202535 0.008298749673682482 -0.23803530177500942 1.0404727417575954
Ni 6.343623062506921 0.7325209896295705 10.379572802743139 -0.7126576029142759 -0.3256438422236133 1.3935304572177871
Ni 0.7169867025810781 7.479306153734454 11.189657311858936 -1.5510933153683415 0.7961320665898483 -2.6496297940378883
Ni 2.2144499241231244 2.2407032227522086 3.9741019179059514 0.3457619531297271 -0.07086423111072956 0.8533637945188078
Ni 3.5419904843894967 6.649573534517799 12.86676770674504 0.3755160444637081 0.2581513557985941 1.6900282740050636
Ni 2.097482268678944 1.3168606216320038 13.135765405019352 -1.0554998112940468 -1.0101236971520926 -0.6155820035155012
Ni 6.583075101278715 7.372525373555635 11.024154545047711 0.8334323457022033 0.8095987336177155 0.48720065202490925
Ni 2.3343666566989203 4.603388462380588 0.3134459655280472 -1.8066350014582304 0.4964717929141901 -0.3931018758662714
P 8.243386920213531 6.276622262816395 10.113734431263454 -0.08665466117576688 1.7423540799919732 -1.79883221758436
P 8.137294568134836 0.9341597195396432 5.507795063679431 0.22696438867282848 0.15795932225802473 1.288458212766781
P 0.5920984027524888 4.990815330349481 2.06594202830255 -0.45702412844152895 0.45132939204959693 -0.08567378531973632
P 6.80202314636571 1.5703417087144491 13.049725847127402 -0.6361865671397301 -0.11060345868188048 -1.532543320280296
P 0.7714478774586553 2.7748210945422933 12.269460508137689 -0.32797943233532545 0.8157601252334209 -0.8099082944383342
P 3.5068155297060923 9.400206614731381 0.7502442919748109 -0.1701797755836166 -1.5702758018340632 -0.21584719571374442
P 5.9383993978415575 5.839823936369632 12.965619469765262 0.06299511277529796 0.26541420800859455 0.9661208092085812
P 2.8035769223461555 3.973104627469014 5.815502887962114 -0.03593733732655746 0.07092876580007784 -1.2077775097862617
Ni 9.454257523673615 4.69039088930447 10.738762954907996 1.3674756691122643 -1.6935149470020834 0.04090599418574246
Ni 4.261658335328089 4.334613107776451 1.4048035901899758 2.481125863494798 -0.6960225654607561 -1.168714225236213
Ni 4.718383864348735 3.704245545122969 4.536293701557477 -1.3942909895328954 -0.9442031831998835 0.11675456588494085
Ni 4.759968642829247 5.86091402424778 11.200999629962613 -0.0926936682809952 -1.426179610711376 -1.718292153946763
Ni 2.824053006783652 7.348988574997312 7.5962989275012065 1.0092040135513007 0.35403267777895153 -0.28402513824156245
Ni 8.010065612765821 2.9665390173446213 6.10774340738983 -0.27563897106039625 2.2333247405822765 -0.03721723248024558
Ni 8.394673646757177 0.13182653870795558 9.517571511795499 0.3677304869810183 -0.5900108399146161 0.33197518375827983
Ni 8.508087524711524 8.855790230686727 7.291110377941684 1.7184775304846922 2.500335089433397 -3.438114371384808
Ni 8.863995549393621 5.926305390677203 4.092235249579127 -1.03090900932856 -0.9655415396663435 0.490189302339588
Ni 2.629404613014576 8.557579923261038 11.986955664477279 0.8753130450963893 1.4742713240122804 0.3933337893714194
Ni 4.4293184869557845 1.1255520344567769 4.418841355518479 -0.940792871966754 -0.8026752670250047 -0.4847737877509715
Ni 4.496616985284202 4.999550924755119 6.968492503441839 -0.9116077657623655 0.5332627364902945 0.6057961277733309
Ni 0.9800704313520212 2.5707579813498893 5.904783639774112 1.571672939291906 -0.21844683812012056 1.6780826716074133
Ni 2.314839486669704 7.203441850315518 1.2497565577264589 0.00015915128568359688 0.3481708196815359 -0.25747798388065335
Ni 2.750698201790622 7.098400746551879 10.16608752766146 1.9908838535404034 0.9409473952667473 -1.043893594513686
Ni 1.8128172492773313 6.436821342331927 3.5396293620677177 0.19585146931810785 1.2904582739159454 -0.2164192661671305
Ni 4.26211418636736 1.6531763547078462 11.9398448550309 0.46651407020983526 -0.8597056775764355 -2.7436468091159973
Ni 8.978302523261643 7.520695567483851 2.3388209725683766 -0.3166210698997128 0.1719648925084974 -0.9000753396427338
Ni 6.031458131430053 0.46879627847891653 7.982585237563677 -0.09819968570088894 0.1421123279234391 -0.4474321138777197
Ni 2.6631189837558242 3.2235459726695974 10.272170576657722 -1.0304742357839867 -0.6008272138038298 1.0372370084291167
Ni 5.45976510968856 8.824317902812103 13.061517504112647 -0.4402458805419257 0.7306794934129932 -0.7248911688659903
Ni 1.2307605937042307 9.462909390337344 1.8363493962944357 0.25140709509622505 -0.3619023103350154 -1.1513276543286495
Ni 5.47751539097286 0.8895672545081796 1.64994632448672 -1.5856880226240755 -0.027802366924248895 0.20490792309342132
Ni 7.678838665781442 7.510155175085993 13.4682538499818 -0.6122513964803714 1.364095696896438 -1.641475819017657
P 4.0966123498643805 5.065556294625194 9.172949986722475 -1.104645419780762 -0.24879511139467475 0.11666997659093456
P 4.32051893788876 9.219550056943222 10.491551215077903 -0.6990176435333382 -0.5700562511695602 1.203721080328701
P 3.892958572299077 2.457660408198302 2.6619691227669673 1.1583256829130373 0.10130275010624488 -0.26768629187222287
P 7.145939497790227 2.5625061472308253 9.19833065621924 -0.09484259630319794 -1.1446155324157965 -0.583394105929047
P 8.742878719183823 6.583977500274825 6.243140469136 -1.5636796366737842 -0.11341495998874661 1.3761091764175462
P 0.8912018060918544 3.693742365054849 8.789387619196715 -1.9964824306741038 -3.457366277635885 0.09521746314411345
P 8.703201072602305 1.9012058354838974 2.388518969239685 -0.3153509449380375 0.016440662054526524 0.9601905597670755
P 6.759387119570142 4.335664356091507 4.515611088689943 3.167372837626029 -1.34886782420309 3.0046451474450833
