# total energy = -381171.29459555406 ev
CRYSTAL
PRIMVEC
9.25183588662533 0.00000000000000 0.00000000000000

0.00000000000000 9.25183588662533 0.00000000000000

0.00000000000000 0.00000000000000 13.54099700997675

PRIMCOORD
 96 1
Ni 2.949272478319945 0.7558463086548175 2.622078527760374 0.20804981115651267 0.7998593948427645 0.007963992042083059
Ni 5.384920037318829 2.8352158459006422 3.29306237203605 -0.22152316305259911 -0.04310762982275156 0.27397983819041843
Ni 8.803445630199699 3.916561168786411 0.9999948553971505 -0.20042186229760967 0.18848397320944313 -0.22618071642926854
Ni 5.711657872370752 6.424863394753886 6.348872515776015 0.6481321695373806 0.6006400374936881 -0.21323958288756822
Ni 3.796176280642351 2.972568601002603 9.186388368070187 -0.5429586236218198 0.1566678571401108 -0.4633477566667117
Ni 4.595322106281722 4.032431161033276 11.27132288458274 1.316844477218958 -1.3959799471995442 -1.1110464382110996
Ni 5.999482485816935 3.559764119041892 8.699549363916255 -0.42227155545169215 -0.04377405976215687 -0.9684240034204612
Ni 8.37022841629364 8.403451758848615 12.728144713804085 1.351839248126588 -0.5919142275849161 -0.7652317774665659
Ni 8.178317585155288 9.033048440610944 3.926374591077712 -0.745371033986897 -0.005178715987462049 0.6259718313902574
Ni 5.770027704779366 2.584065509783315 12.790175497660487 -0.22161135189103123 -0.29926638067134914 -0.714121589054312
Ni 2.516971196163523 4.481024926130192 4.641338887456863 -1.9530433856538623 -0.07710378426253818 -1.5339553701364743
Ni 4.198954954585762 1.2082435034716847 4.988747174175821 1.9682694585749971 -0.5000301996894098 -1.441565606249143
Ni 6.767616157670655 7.295849725806616 2.3366205339258777 -1.0027101782968408 -0.7388579154587275 1.2598536616562108
Ni 8.058321274117134 8.980248213386986 1.515589490571722 1.7644905068796966 0.39517187102142265 0.1765234584134573
Ni 6.984460686437984 7.240551502901833 11.131715457082935 2.131093050903859 0.5821278376221135 0.8814934628754882
Ni 8.399899053880329 3.682498973493099 7.66620811654726 -0.6823131862944637 1.019180408037722 1.8938090254725772
Ni 4.014454843967191 0.7557445384604135 8.97758646021153 -0.6722298339165326 -2.900598516045114 -0.6934095533179413
Ni 6.8901752272406185 5.318935944001627 9.900039828941527 0.3427707317118871 -0.38480826839891147 -0.8287596228168823
Ni 2.5007527279098696 6.388799738591455 2.75460460009683 0.08655207415963158 0.49626661888191953 -0.6822869610422184
Ni 1.5260163095802033 5.316465703828366 0.8436221761446697 0.6830382373859463 0.2067694017821923 -0.38227958843978677
Ni 1.3839358663563839 8.042926219254566 8.54504648069005 -0.3408668298209549 -1.8644506269151182 0.39684797317226495
Ni 0.8137396715169031 9.146734999596053 5.602208654207193 -0.3235949301143846 -0.41169352282552973 -0.8021751874601345
Ni 6.08328561499069 0.5083763528405725 0.9139296523568706 -0.7871290917602897 1.6888859328705041 -0.2554295859920569
Ni 4.209585313983052 4.961241466179182 7.22355310488561 0.15155007629757125 -0.698143468458501 0.9264078068896755
P 0.7015796654478557 8.255736947589156 10.806175734774222 -0.3684555380725009 0.48525715514529333 -0.4605385693526908
Ni 0.2839814008320531 4.670474768931139 3.3293517729933404 1.1074121838926219 -1.3425210560494556 -0.32892636962962707
P 3.501801367410894 1.5098163449982596 10.968424254978155 -0.7402496535999316 0.8643326348254856 0.035689997202441766
Ni 7.897700151840079 6.221665323872546 4.265941946909637 -0.4834401565412126 0.834039640268899 1.1802057708155804
P 5.494322996303114 8.670681785681772 10.803969171922828 -0.2574630714823179 0.2707911560497917 -0.18391023779583163
P 7.2891513966476635 5.880189314303753 7.652897500302804 -0.032031060293615805 -0.9244396274197111 0.2936924861279974
P 7.094677806977501 5.703090672369108 0.6753220301080418 0.37481670440383835 0.1775444434788039 1.2375567979312234
Ni 3.29452323691754 5.536122790695588 12.093045040075257 -0.5855862284843593 0.13114914404371608 -0.5290155311781662
Ni 4.186520487196766 8.088084430062372 12.36004562137921 -0.48517642250602894 -0.04779038001040156 0.935330563300602
Ni 3.105637756103742 5.071005246761808 9.566984840367871 -0.022453958128141976 1.3930378338520848 -0.19261933553405536
Ni 5.7054313868404005 8.100518897451368 8.755026147253039 1.0985639894733725 -0.6029961964306906 -0.14855294134246028
Ni 2.1022854094748453 4.079023406398592 6.860491637083732 -0.5547209063640706 1.3321520541103058 1.2142086101235865
Ni 3.0913806770513292 8.092608577795422 10.231198191164925 -0.732210585345539 0.14662615663339265 0.9942000839433007
Ni 1.839403745493495 3.1115959383943026 10.567556085138783 -0.38375643009562943 0.9738505737526713 1.1490388582944726
Ni 9.179125676924086 2.179029387891306 6.052636133170552 -0.35711363069712043 -0.7764096484602564 -0.4253332250961514
Ni 9.218149920560085 0.35068251142801093 7.748185858506842 -1.1906259377076398 0.6746124752160964 -0.03186933790477092
Ni 8.95693358703262 1.2390798723760923 11.480558703542991 0.054922105959176376 0.48544638833796394 0.09853572888406902
Ni 4.49071159827028 1.9903659511380258 7.150891961631921 0.33545594321802874 0.5841600375607939 -0.06402149715728328
Ni 6.715620840166073 0.6226874107458858 12.15404701978459 0.49393797074874285 -0.9535666266926544 0.621352330340375
Ni 2.152171308404508 0.5099010553894613 12.447249725413231 0.843415167946528 -0.3019295293258091 -0.7197168237539024
Ni 6.667085709271227 1.4810616391612061 5.312485564043584 0.0959330011538993 0.6583160520489177 0.13657622859655832
Ni 8.851888242735996 5.872797097455682 12.673885472065809 -1.057721501535714 1.180175174687961 1.811476388710932
Ni 4.39579701423478 3.4857679358743394 5.423168977110189 0.7172575635801325 0.4984263455373997 -0.2735008416714709
Ni 0.5359366466687574 1.7268181549751223 3.760849070613971 0.7602687770343358 0.14777209731237775 -0.373662279084421
Ni 0.9193586296365305 2.434759382756812 12.9166083109029 0.15828636658014028 1.4666675435230934 1.3066456823090853
Ni 6.44698453428297 0.8725054825001065 7.7517061820496345 1.0350970792679786 0.8998403408137922 0.8622873222606827
Ni 3.607522095724926 7.093586090346622 8.228511570218918 -0.06443364499403742 -0.07422414872189798 -1.5498558434168148
Ni 5.8564491035000605 0.40960652880433324 3.272642645120683 0.3476882236181625 -0.741524149436981 0.7908816168241863
Ni 2.7658455806605433 8.244255419293216 0.7998175089224377 -0.058347843811273704 0.47614619398296065 -0.16160051855503782
Ni 1.5860514724427 0.9109394590085644 9.830953595062173 0.006183503102892576 -1.2925372679321612 0.05886052178163412
Ni 5.017261332280647 8.634507107489082 6.51724112539797 -1.6978937927960693 1.067711265758574 -0.7469118961114556
Ni 7.977469480581093 0.07215136709808401 9.82416922382977 -0.9267109399523911 0.04680719016152584 -0.5195829250103569
P 0.7082955730949332 8.073142715156695 0.6054503153646071 -1.6436414592104078 -1.4082916746873617 0.8040063271316024
Ni 8.635922638374883 4.076617929076316 11.151498657691485 -0.4205401745828822 -1.5926564835221089 -1.1734183155801017
P 7.821677816620301 3.242648193279072 4.544480492708248 0.6552430695505489 -0.45045367431286293 -1.0872621913073082
Ni 9.031179569768254 6.4946222370998905 2.1360647873646994 -0.06874255678203645 1.045125152927942 -1.4111738813311632
P 0.9990317392846545 4.6443013252976035 8.989840516801355 0.11734977626677855 -1.0345386356613473 -0.9200692662661574
P 5.298711430822798 7.5742467185166475 4.224790706210592 0.39605890161206625 0.5660674417251413 0.0334708780639359
P 4.043783163627248 1.0260008408017107 0.8289136075025373 -0.734260268785716 0.20294848537420532 -1.2767139277466595
Ni 3.9514220862877036 6.009381950181686 0.6752295117494928 0.6026275002373622 0.869605967409283 0.08671662476195388
Ni 6.65470675289736 4.145127773581908 6.103035508990161 -0.6148296987305089 0.20021925936850035 0.2609608002229312
Ni 3.0830077656026376 8.615772139882893 4.4119821758793565 -0.7157087310357738 -1.2358287594965232 0.4355181360489531
Ni 7.597219026944384 2.145981830217575 2.525828903811012 0.20544271255096874 -0.5566602894786283 -0.08258203376829003
Ni 5.761127438686945 3.8797851212631524 0.9721079717632873 -0.3270165542014239 0.9931168781814508 0.7253732507087314
Ni 6.066660065959421 7.609986560424156 0.09792883215702813 0.6556670444618449 -0.9594328556654445 -0.49902875500808896
Ni 3.4416921898615587 3.541158677137672 13.43551232776277 0.4221311732190859 -0.44458590267817627 0.008310833858540525
Ni 5.630075183802176 1.4895363208043018 10.335233234986193 0.96585058626633 2.027665541145127 -0.288448978340871
Ni 2.4930644523144414 0.30068651565167465 7.267954515520484 0.651354276019104 -0.7246710824353841 -0.12702612301427801
Ni 1.0627583846532596 0.8056008315153407 1.2386274576027876 -0.8604986057913762 2.3574540016647334 -1.3420191767123726
Ni 7.163335680856772 4.5733582479621715 2.7088218903688186 0.2008867177491702 0.09322845773854267 0.0496423456174758
Ni 7.280574944810163 8.560834738576451 6.178783989868634 1.486506946846524 -0.6721593856899133 -0.0749402009523161
Ni -0.051450384372727795 4.5843031697785275 5.603020965395255 0.6616890822862088 -0.4062906066424035 0.19065089895377488
Ni 6.622260564554199 5.073308953889679 12.283268336353673 -1.2543856965631042 -0.40996959815588746 -0.3927090113032269
Ni 1.0698452909181189 2.5413405318053504 8.1874287931052 0.7035744096660851 -0.7772997643746936 0.42652647407330413
Ni 0.9784834118509043 6.9418559823261345 4.393809719893146 -0.08111907606951836 -1.4561149648182279 1.294104612419281
Ni 1.8369797644995094 7.154685214332432 12.50464996542425 -1.1918657236520118 1.3713356662883025 -0.13798467890831073
Ni 0.9498767353875294 5.905354307829103 10.756873626687005 0.10236384438090758 1.0721605597791795 -2.4395794075115793
Ni 2.4079198069417247 2.0326653446666643 5.896738998281013 -2.3028409423055436 0.8938666397288606 -0.6899627324199213
Ni 5.5157872554865 5.291439487840841 4.228163000379706 0.0866880855168636 0.18798697896836658 -0.5773962364743991
Ni 9.031401613828772 6.641929967581732 6.508764593387703 0.13539223559078617 1.650448197719596 0.819387437573363
Ni 0.9213468491617502 8.566136040521313 2.8832032681128776 0.8242316530395417 -0.13630112055830074 0.17538754503680118
Ni 4.431277804738352 8.102230487084526 2.1503644248620453 1.3869772294803016 -0.7888067365730286 1.1404120358574101
Ni 3.5414917432284487 6.433893186548276 4.991536602686077 0.5960539607849026 -0.17783934901140339 1.1096842677562502
Ni 2.097733506234231 3.1639243219896613 1.7510672167508354 -0.9777437381594903 -0.6918198402333182 0.9116008237838301
P 1.2289768676225332 4.515043926568687 12.343336805825247 1.1650102940220646 -0.8359733669565022 1.05923331019455
Ni 4.927092940038716 6.564630879013978 10.542410520468728 -1.3274793312249848 -1.720328981871134 -0.39089946889831384
P 2.892799272261588 2.5568003495189013 3.7412148245626855 0.1779931009804483 0.7956432998788878 -0.005959817127860704
Ni 8.410982753234508 7.099164947367131 9.04223088769694 0.2335502694204623 0.06409888736243799 0.036224786659989225
P 2.0843368479163242 7.331173235100655 6.293503053735148 -0.44278895867875356 1.053661215423411 1.2524709960388944
P 8.13138302186334 1.9707613109614763 13.8466176539756 -0.362345311409705 -1.3612001205161977 -0.47727747937392634
P 7.590751993681803 2.4474066423704715 9.492915567697066 1.0161917577230435 -0.8979837472210276 0.48519287756626117
Ni 3.952689587799826 4.556936239319709 2.4340886246573317 -0.09045912252352162 -0.6214957978967748 0.7112594370151686
