# total energy = -340897.3983929661 ev
CRYSTAL
PRIMVEC
9.05174002644213 0.00000000000000 0.00000000000000
0.00000000000000 9.05174002644213 0.00000000000000
0.00000000000000 0.00000000000000 13.24813649260881
PRIMCOORD
 96 1
Ni 6.261007226404873 1.935832313071336 11.443077797622832 0.8710941219190352 -0.022341086699361523 -0.3802916114754806
Ni 4.763324397415487 0.4603072389024064 5.968285715798925 -0.8183206868717455 -1.0409363116575752 -0.03212156312489307
Ni 2.6614017035277127 1.55370404904895 4.8243620918904675 0.6188344490145278 -0.35645799939099254 0.0942522710173667
Ni 3.49676870253515 4.321518010295233 4.924915158181577 -0.2492327131527256 0.21528823788648083 -0.05463054286068656
Ni 5.062004668591029 4.5391399480351 2.74121180199066 -0.10028587880595631 -0.5892983872286237 -0.3496121801137527
Ni 7.411112283691692 5.992505457035533 2.5899970510087487 -0.7517530262538408 0.13669038557691943 0.35725221315751376
Ni 5.303613717844524 4.319463265271236 11.719288934115252 -0.8453923462775569 -0.07240560745592045 -0.8388321765615361
Ni 5.52673006188204 7.75499694539518 12.549867562560156 -0.5801252053697881 0.04759960415583415 0.11258243678512223
Ni 1.977696611467762 6.289981846765297 0.20425432782163025 -0.15918985223101614 0.6299698968060571 0.9331440971722444
Ni 2.9408922854923523 1.7896105019803368 0.27672980120552354 -0.29161940564905264 -0.6795003994360169 -0.10974908110138519
Ni 0.666902346738159 -0.15238966685906946 4.580331702135125 -0.5198431206502788 0.275152518342281 0.9134486756258461
Ni 8.517642263685453 2.1612930578190523 1.2496334665879874 0.8785714041326869 0.7505865167495653 0.1927867143498551
Ni 6.827238834229403 0.77770922432083 4.7582671901691995 0.9746450446295087 -0.27931384880882215 -0.1647352075292776
Ni 0.5827238784576734 7.409727367442037 2.49098097020255 0.8388033802061297 -0.8374795191883835 -0.2427450485458529
Ni 7.626154475476319 3.7394187019109335 3.949362048444381 0.27359031606148365 -0.02137383769008577 -0.289746614106372
Ni 7.530540943808979 3.796897252141703 12.669577731797471 1.149203151786479 -0.20626392290068352 -0.17720557208214643
Ni 7.977742168084751 8.935796453679249 6.857526862091951 -0.1778601749470098 -0.3791981213009856 0.03079795921746309
Ni 7.005005959895872 0.5224818319457304 0.3060085600364599 -0.8780206738355394 0.016577444742706934 -0.022783316443102695
Ni 1.7785311719830987 6.642320833809816 9.167206907256364 0.7354542890938173 0.185976376296241 0.7637202259180459
Ni 0.09546960899825911 4.929333312570181 1.2953646683952145 0.4210947615347716 -0.9498282426961449 0.3459655845001009
Ni 6.538515477267066 1.9581358009089131 6.975819528814912 -0.6232279500965331 0.31662929742982887 -0.041893812020308493
Ni 3.3243149483624546 4.223261370491296 0.5022973564875269 0.4405749817465703 -0.5886394134883862 0.28076060855767776
Ni 5.819101270142487 5.587259048558127 4.805933654029865 0.5981890048500343 0.7159357594449154 0.5956022179594646
Ni 5.386980245029623 3.0941654021943386 9.086909825170988 0.14007292889590714 -0.9362970409789295 0.5066217368639985
P 0.014955285148232566 5.620406521147903 12.406138600718535 0.9782944684566379 -0.5121606644043566 -0.040817548236994225
P 4.098465028439074 5.86417893630772 12.652129597399858 -0.40060795443532937 1.796402782207261 -0.4386479399271865
P 2.3831783651902088 8.251512050246895 1.5037293914388592 -0.3980787602555725 0.1363833958594619 -0.8259182967133454
P 6.260391708071693 7.786270707764834 5.938689240887185 0.3244765613883896 0.012957588601932522 -1.0168155073499714
P 4.770710617413646 0.8673377453720158 12.68660133957999 0.5558473066590298 0.6825934365390438 -0.8766189083920064
P 3.8304248978196194 6.349741435524909 8.271222214518941 0.11273130365816068 -0.410798521815086 -0.07965149038505637
P 4.84390298862089 1.0868786520329725 3.667150513377479 -0.8899793888593124 -0.47126109797651744 0.908543782125061
P 0.2600220991557671 5.53933008423184 3.65720084055643 0.5650436284463172 -0.44050684751279623 0.07079198311189744
Ni 1.4696767448297012 0.9409102896674003 2.5210807218690663 -0.21787759588021186 0.9808054078039496 -0.5069765491002559
Ni 1.8420381811829531 6.5090792181567565 5.0367159168375295 0.11960103419480046 -0.03577458649644807 -1.4021346539470303
Ni 5.792706395737303 5.693417857551271 9.19206027030654 0.6524153702937667 -0.3237869915205327 0.9603306848893656
Ni 8.520231061380885 2.370098600610136 10.195023859698667 0.338205738049024 0.24221745817715704 0.3346815269458494
Ni 2.275924295633613 5.241138607026764 7.094152023194726 0.1984914780441162 0.04773330152022102 -0.14011998008375867
Ni 0.4150630207176069 0.07601741932173582 9.057234600119564 0.12552357032682254 -0.5594260251492237 1.0744565549022076
Ni 1.600474390630428 1.2610793920630752 11.474410396303748 -0.451699373794506 0.1513508158025716 -1.2076432982012426
Ni 4.082533965697947 6.950686466992747 1.6590373393364168 0.8163098270893037 -0.34598615332539123 -0.46776079813274285
Ni 5.553188298468581 7.8880122675433935 8.066127885207324 0.029672330253452128 0.2617989798535104 0.153133104513975
Ni 5.373411686479084 2.8179243949592814 4.873036014434706 -0.3602521763261021 0.3023666168632277 -0.25490045296146424
Ni 0.8249529719144446 7.560321169046652 7.017007662218861 0.01586859160114041 0.5069480098551657 -0.31468965720495484
Ni 4.920209158454808 4.629693556934094 7.235748395046683 -0.21033629319784422 0.05863812135818288 -0.9417495794530684
Ni 8.073446217154029 7.100981561170965 9.218490446498482 -0.08778491812546817 0.6773442723249625 0.38416883504269966
Ni 4.550699020262611 0.39905320783679415 10.446553616204591 -0.32929969380864577 -0.7111730479489494 -0.2577968006726528
Ni 8.125557085449861 7.100112594112359 4.757419042113037 -0.4984476856936383 0.3814372950441495 0.40690072942257666
Ni 7.09426516994715 6.103253498306945 7.0853283868537895 0.5710306992676876 -0.13730230812930547 -0.42033217233713416
Ni 2.5402713162539885 5.2164726149986 2.651535306716447 -1.7059246335203457 -0.36856789528064915 -0.2088108576922533
Ni 2.447137961399754 5.180745396453585 11.319870035974628 -0.37435467716575527 0.5234457503998726 0.747124526342894
Ni 1.316340265946358 3.2908144579051197 3.8233853594708838 -1.168190491522259 0.6570994060329973 -0.3980363370534113
Ni 3.519307535617766 2.5683045556342545 2.58158526884663 0.28245059466559097 0.36218384613117627 0.3402361382154914
Ni 1.1083946384736871 3.3975344747902803 8.19581397731225 -0.550023243778085 0.3946905605096299 0.051588670710569225
Ni 3.789257583418117 2.519778176455175 6.8785250889935785 -0.04862290321402594 0.4350016014238508 0.29951526345736157
Ni 3.9993394215765297 6.936113165280693 6.157879845202641 0.7352755974241079 0.3789101577469216 -0.6430668391993313
Ni 0.904166560698619 7.45016149088784 11.455425276421227 -0.847975533623701 -0.5113217134428291 0.01066853545743969
P 0.20220772936380713 5.802020636396746 8.005187044352418 -0.8201045182450457 -2.2382915976692486 -0.48549343952581553
P 8.569725976760703 1.7361599761358184 7.966621200082621 -0.7735701221289323 -0.17934370147107176 0.8097303740995733
P 1.835195065596424 3.2945709300855555 10.320854815655045 -0.597210700097165 -0.3080091598609857 0.3700884456902336
P 3.980122577145046 6.2377623575871395 3.813542497184122 -0.032402584700421615 0.3325020027960273 0.6366542508047681
P 7.008581397272431 4.06430376094759 10.37804733089569 -0.3252430072407689 -0.4730991796265207 -0.5950368323742978
P 6.209149806834467 7.65976358681598 10.299697278126006 -0.5980717625458797 0.7512984552149254 -0.43529033630886327
P 2.456959099510051 8.605634230109594 5.909304576695981 -0.012537984566010666 0.203721616094804 -0.2832540644034928
P 6.928636427880597 3.9433906154385165 1.673994434832688 0.6110180382939024 -0.24607565558098268 0.28516773648643795
Ni 5.4748273836106645 2.835982616645956 0.40834210362369416 -0.8939715407378411 -0.3410658332056384 0.24103243673012037
Ni 1.4761306355878963 1.1382472776329118 7.174422855233539 0.3017770629083448 0.12430820986248269 -1.366573726123285
Ni 6.822296584083577 0.7180265753528652 9.150037566456723 0.35709280476151406 -0.24575555323740256 0.5344397875175313
Ni 2.8363718414742904 1.7784949650223234 9.072986438404852 0.26406412173860333 -0.4065369183252547 0.5490847911242156
Ni 6.447292039593728 1.860304592894086 2.4522702980896516 0.13581466784018545 0.8736724241691728 0.5436553925785281
Ni 4.02738171269699 6.96372097287185 10.45398509490372 -0.05079831359878994 0.040479448171285126 0.2986467448094792
Ni 8.20114816780847 7.258092615715133 0.3031780808778518 -0.05716385080550155 -0.027252665068365968 0.04858947887292922
Ni 7.642945453535858 3.8254283372326294 8.12998429157866 0.4668382863184734 0.7092174668844754 0.46178786837875957
Ni 3.002290239227046 8.455882240343005 12.391883015087284 0.7553196605591765 -0.18167157827330002 0.4347252078340126
Ni 9.22580515774911 4.900811279219448 10.180543790910612 -0.42650359125516873 -0.19128210477987057 0.14450705340786082
Ni 8.77678453369438 2.309017457782226 5.841965060698063 0.09686374049828479 0.5890657023925274 -0.762926526372157
Ni 3.6889914572911517 2.6079059189822256 11.260704241371728 0.5215490475977921 0.34142733031011524 0.5915427031781102
Ni 1.1623701652494471 3.4801678110196805 12.582165981919752 -1.0136162836863833 0.234745318169828 -0.16651029715182938
Ni 3.153345679581546 8.570676409481054 8.070128754372993 -0.04164955721998633 -0.4231472731884261 0.3151411429200766
Ni 5.7525166692767336 7.855616089389705 3.5800438071442917 -0.9142534309153287 0.030217147013328605 0.4401312093409323
Ni 2.929767696794145 8.37693296237249 3.7035430348267395 1.6961858089660273 -0.5528810249418542 -0.35960940053578067
Ni 3.460607000460831 4.483118727975536 9.37227498652142 0.2660559553576515 -0.3810431449295244 -1.0080385324882897
Ni 7.102991047493994 6.02603310271345 11.416687449087746 0.7202066189061274 -0.16770611723214343 0.34061383326988437
Ni 0.8354104473603671 9.069934191611496 0.1480104349532984 -0.5305975309533055 -0.20901731727610454 0.7243833759916364
Ni 4.553622732345215 0.4120279722306185 1.5920816171227163 -0.1573646260968193 -1.000943316204405 0.08646851330688979
Ni 5.956814445451294 5.54489690445104 0.5477334715644353 0.2064158750975155 0.7457407586214899 -0.17327589801043705
Ni 7.801803493937434 8.70609044278063 11.305575527860542 0.5663386931086569 0.4378467841821298 0.13717709540535084
Ni 9.13836534747679 4.933116939971199 5.848058692196543 -0.4345583432388452 -0.5729844805599488 0.3691330237554997
Ni 7.840363907163115 8.89077309795518 2.6258600456566707 0.5015700333727039 -0.008374082996308159 -0.11631644990625775
P 8.686728770506045 1.6085938015842862 3.645370216123105 -0.7080787252943418 0.37711629907129246 0.2612186818700082
P 1.5867066937956247 3.02508252103509 1.484731599120066 0.33967692327791177 0.6484774686919412 0.6017206721523767
P 4.861019829327407 1.0083457541113736 8.229940848190997 -0.23813068970229312 1.0199748789145593 -0.16699906386278981
P 8.59728852565089 1.5124281137651223 12.324821387513317 -0.5239998231311298 0.5421638956346663 -0.16921689744971502
P 6.373764753999313 7.717567999693727 1.4556519785733935 -0.41515808433536244 -0.6129844179916539 -0.37795525003282004
P 1.853950271278023 3.2916924767039206 6.046754346365147 0.02060276385201613 -0.2917731576180975 -0.03440495984243107
P 6.727561071215036 4.064140829624101 6.106053201548894 0.9677524312747332 -0.23962244375647115 -0.3071131304092775
P 2.2502354569635465 8.565372089727475 10.213903074220923 0.9428039888595118 0.8035694967044998 -0.13986492665015915
