# total energy = -340888.8816555383 ev
CRYSTAL
PRIMVEC
9.11691165303501 0.00000000000000 0.00000000000000

0.00000000000000 9.11691165303501 0.00000000000000

0.00000000000000 0.00000000000000 13.34352175577218

PRIMCOORD
 96 1
Ni 6.338642152579291 2.1305492920950084 11.235458420143745 1.1273351480687939 1.848950731507306 1.8694303395178968
Ni 4.946763267447814 0.7894698380760794 5.925110897014916 0.3098143313905245 -0.9725819914528928 0.17205205290566497
Ni 3.2492399228676407 1.8372855985204737 4.619326654340049 -1.1650025807125808 -0.31563196651356606 0.9831160582149971
Ni 3.8472272678251214 4.393576425808183 4.6659623919513225 -0.5077288538852481 -0.3021179911875313 -0.13825901561561996
Ni 3.7526666613105233 2.53112815143153 2.4876459535226676 0.8563408748692607 1.0737728985716217 0.020784026624886785
Ni 5.309306371830721 4.562521913594725 2.5089558225611577 0.008472556247385408 0.24597512544737637 -0.4550855166579194
Ni 5.608149615269017 3.176550787142526 0.20707241185557881 -1.5502474224282785 -0.02555162321685922 -1.0655209429754746
Ni 6.024537199219529 8.361684823769927 12.223506443591631 -0.9553802828626256 -2.1678947931132404 -0.884230145080361
Ni 2.1479625931404076 6.767319333288546 0.13902651917885256 -0.08421288450349369 0.8425718461096264 0.5186516714453391
Ni 0.9629828985452105 -0.019609565035889773 0.08955906884260524 -0.5019855236435677 0.08960783026681986 -0.2673008835083461
Ni 7.918876430170427 8.906402054586954 7.139784372502713 0.021873660144639748 1.1671047146572482 -1.0690461825199138
Ni 8.843540949504217 2.795090091309775 1.5473678114818874 0.3212590828923564 -1.2126312383341376 -0.6321787315319177
Ni 7.500711048469206 0.6774521693406801 4.82104105728234 -1.1865080588845243 0.6633315029856383 -0.17165250347440117
Ni 1.0079566231823598 7.7875017348488536 2.593567143509868 -0.7295782899290145 -1.3103416431034336 -1.0007422559371928
Ni 7.819666198769361 4.103339546865623 3.697836643605217 2.167627655494783 0.4371978377442212 -1.5406497514375146
Ni 7.935733599611758 4.070254274879365 12.684124723888615 0.5314197697442847 0.002818957506033855 -1.6631756725885933
Ni 8.595643007763142 7.685720534392917 8.894031317315486 -0.2408079794241401 -2.530036987373204 1.3875816958335199
Ni 7.12158428199123 0.6117557047683514 0.2499948313957569 0.3655278229027447 1.9738924611887296 0.5881848424494709
Ni 2.0539307674952507 6.565315924250371 8.96724649883658 -0.08042976331197761 0.6555716565345613 -0.46923943956079833
Ni 0.15445324519922962 5.0595941646927685 1.246001918619894 0.4645708304405354 1.2365905773632124 -0.027170903987837076
Ni 6.696800022510449 2.1756324196706625 6.933360173057777 0.9050455391638156 1.06193631094801 -0.3826485417434313
Ni 3.3040052105009985 4.544588948591426 0.0003929388874642472 1.382657004838393 0.2378877204535516 0.5940320452588673
Ni 5.978861472393639 5.766236861408925 4.66534882380454 0.9607826848251194 -0.41696916940217216 0.7682697929619414
Ni 5.71644940747755 3.3115813639924783 9.157431655442739 -0.5520289613542042 -0.6039739869629276 -0.09362312207380005
P 0.3836724585728629 6.0343561129503644 12.566341520293996 -0.08667574422168943 -0.706063494636526 -1.216219469906028
P 4.20085403271986 6.546863295289173 12.504494215774738 -0.06593259813706709 -0.7068080861120344 -0.8465184894622002
P 2.6076828576504925 8.669325886846345 1.3449067334843 0.938443655008287 -0.5514278374350955 -1.0029068676886792
P 6.598811457256024 7.907990837789167 5.736687127718691 -0.5033222401771202 -0.2708999137135141 0.34092313698018706
P 5.073898598902313 1.1005570937154074 12.825365740881042 -0.49579996365814605 1.0620113871603196 -0.5650001768028915
P 4.301112708948266 6.551348815767883 8.181940354261776 -0.18039296867119256 -0.9972237012609729 -0.6682441097959072
P 5.251796893823192 1.1703470515701364 3.7235226301839117 0.12261436709982754 0.16775393975094335 0.31437521128832957
P 0.3910626270688843 5.77993046254515 3.435916891912401 1.2979247574963195 -0.011053429600684188 0.22122337242399318
Ni 0.735569745348066 0.03981902285124933 4.5299918615213794 0.914667892744928 1.156465489775847 0.7316817094252624
Ni 2.180418798230262 6.806066207342445 4.544296295730925 -1.0485704311640651 -0.11526641137518857 0.22994378301612658
Ni 6.325759956570312 5.958813383912574 9.270625405767069 -1.0680018004157994 1.065177957813759 -1.0212347194635896
Ni 8.784436011976823 2.7141227999044393 10.727804169818793 -0.6904779814934431 -0.44975022048793517 -0.7636353795137235
Ni 2.91071076348661 5.657289768480903 6.602014228280762 -0.8388404040916522 -0.6839257821972221 1.062144313193758
Ni 0.717482704539706 0.4155871191171168 9.07240733840117 0.44654893994181805 0.566578834143921 0.9202312457653183
Ni 1.3231738397502566 1.0937467607934634 11.345582506351851 1.3422847716689335 1.1880895444390311 -0.04005238793619554
Ni 4.229371732023529 6.903216016734997 1.290163326438643 0.7087505545503858 0.7286123264713193 1.4001968134943692
Ni 5.763246514423118 8.282850889665442 8.165781540244568 0.6199145694525839 -0.2043862462619964 -0.7943875730949157
Ni 6.051660011057259 3.1153671937835337 4.529804964834767 -2.566953143673263 -1.5645543259692538 0.43382429328629796
Ni 1.1065469045985632 8.214173195018848 7.022628412422189 -0.49084287676318694 -1.6240874483378804 -0.015824882847398553
Ni 5.277087206440961 4.595661887050237 6.905365784476623 1.0531961028615346 0.6918139266960472 0.017919046372265914
Ni 1.055264277174285 7.841519435735759 11.235311637867916 0.36909060055333853 -1.0787191868333035 -0.6391129967579058
Ni 5.073360701121331 0.5445786537615867 10.399193298504406 -1.1373030579147831 -0.8170724162869412 -1.533021031247663
Ni 8.458761697870143 7.394726951792364 4.614216625420706 -0.5098842096653541 -0.23563826229774257 1.264400400486629
Ni 7.634219101091629 6.203629809552422 6.96024776857772 -1.8842342372999485 0.4642376154708328 -0.24023359497790886
Ni 2.4212511335262143 5.492583644561434 2.3845810919216044 -0.00079652775936637 -0.20641536087688322 -0.277903855835173
Ni 2.3795139124865083 5.725393097700344 11.23568543124114 1.2830496401567 -0.33583312405178933 0.7547105662202679
Ni 1.5638603044615353 3.4228350355406505 3.37062704159485 -0.951756055846477 -0.1395769630960951 1.8834641919031434
Ni 1.2903711920218024 0.9953297006965596 2.3429086009538476 0.9172230550666138 1.4501422921745606 -0.3655327079987511
Ni 1.6136933429506206 3.772805918907009 8.153545733263924 -1.2239600330833955 0.143885617773778 -0.4604100141946264
Ni 3.7078114565234217 2.834666604314004 6.9772471618391085 0.12787535838845074 -0.02051483212390015 -0.2821112090483013
Ni 4.280636125624724 7.33357982607954 5.572935544437679 1.1113711685403698 1.0339498530374127 0.8675133465463124
Ni 8.230583635794616 7.590412341131867 13.44159602583425 0.04219000310448864 -0.5222959530661456 0.7268657760938578
P 0.33112896228231314 5.659687516216473 7.856679036247954 1.2965247918249994 1.111797200334195 1.6079689455094632
P 9.028887761154985 2.1472514740401243 8.099797892958664 -1.8425651396959364 0.16204300540909514 -0.10832700394287795
P 2.12411275254629 3.66300183629403 10.339654395987607 0.9674253869526177 -0.43368468238464025 0.38890814949989794
P 4.103047805696277 6.34460461272782 3.602924124305094 0.2820677574048755 -0.5020037784760129 -0.7414027933677683
P 7.031089818024406 4.408136133540907 10.555446222042043 0.9077038027222689 -1.2848586683409806 0.9379587449520684
P 6.739458051615907 8.124827461906328 10.044829887157064 0.34492917281578656 -0.29562801258781346 1.0769492394170743
P 2.572008382786279 8.806353067324016 5.6394926454595815 1.0839192429770041 0.8159251900563755 -0.24883316372146178
P 7.133965047865394 4.196259109302645 1.2677439292654797 -0.5157460677627698 0.9864191544463011 2.016339060388715
Ni 3.01211817056932 1.6501609891189963 0.48432407368873387 -0.2448242996723848 -0.8991973079131546 -1.0918564955462098
Ni 1.664684229205552 1.4419489633206557 7.101569014391718 0.5841849772614585 0.44531301065218787 -1.2391768500331497
Ni 7.119505626159634 1.1872771563038047 9.130597849700894 1.2261832659869594 -0.39192328217713795 0.008897302489629838
Ni 3.1697951556898345 1.9291840668647802 9.392705409771475 -0.42250526872905303 -0.3073825820205803 -0.8571646563221367
Ni 6.589029011171357 2.169250581591197 2.130719778340845 0.10421143911260762 0.10596930234397878 1.5801400962226528
Ni 4.255309345360787 7.298880860750331 10.424052381206232 0.41033135237068047 -0.9133936540181946 -1.3675376326984514
Ni 7.770170486007332 6.38192013166961 11.219793742732119 -0.30214730176356996 0.7293528041817697 0.7505926873971525
Ni 7.838191763022896 4.141840264307886 8.4742704760944 1.1499009491844518 -0.7182533518344985 -0.6937232279036182
Ni 3.4177751496347883 8.838399011394475 11.979026431987688 -0.6428308119291252 0.2700085122474963 1.7268842664911486
Ni 0.4223391038051916 4.962407887654048 10.29271233014852 -1.1023226851848564 0.5811384771256508 -0.7717068436679484
Ni 8.972536130913303 2.6826876889072993 5.610483544623793 0.24248639556782753 0.11660235657779273 0.6645718031506426
Ni 3.694008452448691 2.4937488141089452 11.68167927373345 0.23229737084996768 0.41621892149970896 -0.2261552625079718
Ni 1.425675276218018 3.4834169127378645 12.510005388801934 -1.1702144639308234 -0.42017764903714083 -0.40051179517709734
Ni 3.5273239587245886 -0.4654146874592769 7.763407561025408 -1.4228978546363107 0.27529058658204203 0.24753912750038656
Ni 5.841870759562136 7.883831022202617 3.60563275872425 -0.5883298526677674 1.564582865214344 -0.4728212433747857
Ni 3.3253114327748716 8.69790740453081 3.311808375089877 0.5990847771914263 -0.042256851786682065 1.4136156580034362
Ni 3.7491110658091067 4.508932707550297 8.902330441892255 -0.1925432308804813 1.0360288470536287 0.6762183862506355
Ni 4.974433093978069 4.776887854683978 11.231962996258506 -0.2916150347736784 0.028793527192924603 0.4333057017786666
Ni 7.890221977193626 9.102306249803467 2.4484824366112945 0.7288591523748028 -0.19950963489598542 0.45632196016818183
Ni 4.9483040254984285 0.5107184442942498 1.6537831380746704 -0.23066240634970595 -1.1465142921004063 -0.521658833702779
Ni 6.265506288188613 5.990822860336866 13.44159602583425 -0.2702954473602958 -0.5038030364682807 -0.012771954953687681
Ni 8.246419711143234 0.006715517041906369 11.351093679379046 -0.612298704778539 0.5778163547309533 -0.29635280656897994
Ni 0.30955196773563953 5.345272587864281 5.705582960610529 0.874834305687758 -1.0244761092190227 -0.8655839907340834
Ni 7.6022643261365905 6.391328784381051 2.7249609843456803 -1.167284691878538 -0.44904728088363954 -1.9653967650128927
P 8.993559728929371 1.905771838024683 3.5854980595835357 -1.7435162186208746 -0.5505060969517745 0.21486477719581706
P 1.912363365069617 3.367613902330188 1.3392360145051174 1.022982555392632 0.47665527240889516 -1.0518151633536077
P 5.042600241578306 1.3927996931972275 8.214432115306643 -0.03302813409956248 -0.13902057637199283 -0.4378408706448589
P 8.815150886962137 1.746152950745703 12.765667292412257 0.04990768346372051 0.38833299372271834 -0.44209758903868374
P 6.348880444241062 7.793108635447242 1.3927832827564517 0.921673891749116 0.10690235568120944 -0.34787077194261384
P 1.9440355157668512 3.623051529916575 5.6663802409795245 1.1053622433421286 -0.14514854364660162 0.6592964136843161
P 7.321326696966966 4.238032797988518 5.814492674201228 -0.5354486883980197 0.5405299595756691 1.5884396172272837
P 2.6686294113093907 8.907787825141352 9.90204081858479 -0.22401173380240774 -0.5256198752330561 0.23314686333445653
