# total energy = -340866.28793834266 ev
CRYSTAL
PRIMVEC
9.33052909682347 0.00000000000000 0.00000000000000
0.00000000000000 9.33052909682347 0.00000000000000
0.00000000000000 0.00000000000000 13.65617247753588
PRIMCOORD
 96 1
Ni 1.4414734666727758 4.821037820328112 13.240588328017623 0.044514280362291075 0.5082893543744085 -0.8174290282954114
Ni 1.6761829304189968 0.5111851756565131 6.04883750149024 0.35020944737811943 -0.4493133900608326 0.3246190005035248
Ni 9.166759818666161 6.419600077763414 5.0809565080516546 2.1505969252647414 1.585852573226398 -0.3132781215694089
Ni 4.421588531819288 4.384826246501851 11.184678981857315 0.5756075200050925 -0.24752164399888982 1.0851001506589828
Ni 8.136193530443787 0.3174376684514284 2.865064974002692 2.3197765417186176 0.6685081620905712 1.2596351178875016
Ni 8.589666583416559 6.300281269479309 7.559197332698575 -2.8288786218023088 -0.1671039648717703 -0.8914382327930261
Ni 3.3731449495186863 9.310347333577337 0.539064797110447 0.09602530375738946 -0.08398585609435213 0.9092019845343502
Ni 6.170773523234127 5.318131097630583 7.46323470527909 -0.5427660479950394 -1.1079454306882726 -1.438459970740626
Ni 8.650408328953745 2.8703600493625006 9.469408598227199 1.2168799863081623 -1.0730190511247328 0.5122300841897114
Ni 5.087685685760014 7.87569448379975 8.275695206588335 -0.056566326430818714 0.5890304782792177 -0.18844360688981093
Ni 3.2444116372027807 9.111504424338786 11.871543094790685 -0.2007648474593252 -0.08045367457137757 -0.14005210296030074
Ni 3.6064268422868446 1.8367520085986317 6.963787335442205 1.0373138844136394 0.7165749356908111 0.9651247638438992
Ni 2.2455784790221824 2.828904507823067 5.0338559963048475 0.03976082483770571 1.2775464509502836 0.08613735521971617
Ni 1.046045636278626 9.277298598908716 13.415578672234474 -0.14376040504982338 -1.0689657069909655 -0.5407986398560234
Ni 5.400799586948472 0.3059583182925345 10.094315197659714 -1.1836934722538646 -0.26494960966735015 1.5237660883082984
Ni 6.700299720273504 1.8780116090234296 9.098793444316465 -1.0414158223971548 0.11315476434882449 -0.663644920460999
Ni 7.492722909978893 9.081805349677516 11.918042720452608 0.5643561154609894 -1.2629508125242959 -0.2574337609062792
Ni 6.008898170956918 0.3852444907506348 2.609831145024805 -1.97996052175968 -0.4730364447093853 0.3507681480950669
Ni 3.128507802630904 8.829330558204292 2.8387771408419447 0.27305758348646525 0.5612036858749367 0.6157653231709008
Ni 7.429704515300221 2.1216223976916897 1.1708787873603466 -0.5594185689500559 -0.6092532330839959 1.1411869663502217
Ni 8.237299145596005 6.1156300952579725 10.927054671280867 0.0928394498302401 0.000785986236405098 -0.49386649408085903
Ni 6.794929948113463 7.159930922563411 1.4572635213536635 -0.14653591091243148 1.3681878646879404 0.6577936038865445
Ni 3.4354915460900344 4.270844500959262 6.966519314411989 0.8197569050976398 0.5354119216228134 -0.35775280694301614
Ni 8.13121102781447 5.60514750845537 2.775657976447175 1.1608003697057752 -1.4086853105813546 0.5059277961207674
P 6.411986365880412 2.815235282444883 13.106443308726053 -0.35350097364519767 0.5309204615103631 0.3808233156092345
P 9.195899061571327 3.411456102694675 6.781669399917234 -0.2652380874420464 -0.9280260592193887 1.09677167345964
P 7.0128257981180555 6.3688979817190114 9.004306906627239 0.42982751342207914 0.5376976323331966 1.0576032307902945
P 3.7616028745493533 9.081898654970201 6.784441500162872 1.0607163224979796 -1.6428212773019577 -0.22212685807486907
P 4.905357813326505 7.885388903709601 1.9355025981635097 0.05381730293077183 1.497143086404131 -0.3328028218658978
P 7.790450768403785 1.4928940134708448 11.02132380763814 1.017414574386551 2.82563826048814 -1.4324824130009521
P 2.211036859670622 1.7159683072193896 12.814201801510972 0.4933255339757245 -0.676887387293202 -0.21491362815588147
P 0.5557337876484165 8.520144809837824 4.613546443510695 0.0029667959378077936 -0.03790783078936697 0.018811476279548246
Ni 2.1040623416085893 7.166592920461038 0.02117003785703839 -1.8449400676860161 0.749684059539954 2.1562104147967767
Ni 2.988531202546595 0.9979560884293702 9.826940483997806 -0.6035183874827477 -0.732726605750009 -1.8955596896150968
Ni 2.3537193132427627 3.008899747939479 0.8397970859597591 0.7579185316346043 -0.15227127073431196 0.9642588162991781
Ni 8.02583203025733 6.929000323170886 13.283003981018773 0.5372132364976102 -0.07549041702883127 -1.617697999871769
Ni 1.258408482427065 5.166640624429086 6.724449929178864 -0.4774754543173455 -0.4657136857957269 -2.0469457295309774
Ni 4.998971013476211 6.066262264898948 5.488074558566164 0.05439425848016438 -0.9005201404896361 -0.9581555316149176
Ni 1.2674590958173984 4.941065748836614 2.5514920107742287 -0.11567033168182661 -0.3014903849058614 -0.061925276749886904
Ni 0.09181707326554114 1.9856579251927857 12.766076797650497 -1.1149812544891315 -0.49297432128389296 -0.8930788537202425
Ni 8.824105461813996 4.162489064565508 4.8233191347342315 1.165897067502392 -0.07455607814001998 -1.7586317341060747
Ni 5.0598620474816896 2.153243561382246 1.3736199917272276 -1.0116691872623416 0.6378274451772628 1.039740491577261
Ni 0.6854244122672586 1.092940876381528 10.633201781661134 -0.2006468338242222 -1.3289140067889822 -0.6697762301697175
Ni 3.5759906558133734 4.0217007084348495 2.9675412439044364 0.196781437331545 -0.10111146003104521 -0.34970911070293326
Ni 6.95762638696629 3.2154776659415196 5.755230004790266 0.024998321816550494 -0.7338239525792459 0.4621100276048687
Ni 5.275957105337484 8.175838949305152 4.529343082128157 0.0381068341740505 0.4396005336484429 -0.09327499470576193
Ni 8.913016075212436 1.6747740204994706 5.255578296362404 -0.06026228722516719 0.16757164853680817 -1.354542505990364
Ni 1.4415107887898493 1.0359313425516967 3.6786040844953627 -0.6130569231008023 -0.017643681223692195 -0.641450900862463
Ni 2.620945671489305 7.775932464862178 9.06229054771269 0.41968528278175465 -0.26210134158527765 0.4164865733387989
Ni 7.219273088710339 8.633716012092604 9.03075895710311 0.9583830742446916 0.6594411667922966 -0.8799546576334586
Ni 6.939413193834403 4.907345216060671 0.9156916110288016 0.21936420772806736 -0.9291357473437997 -1.398243032202108
Ni 3.588362937623252 6.475294006966403 2.7150244650495026 -1.3922112241857314 -0.6110416924429863 0.5519693117608623
Ni 1.9601575887022897 7.037906260791473 11.38773182590176 -0.9039433072385723 -1.036980926554253 -0.37355763518575663
Ni 5.748818998129959 5.692089380178179 3.06806370097738 0.21722299301534848 -1.0715226690848643 0.4996072532193782
Ni 5.717739005136969 8.288719692394073 13.03108902130165 -0.5228184012285189 -2.023998376706185 1.3372664925187354
Ni 9.003764802876747 3.617847410111348 0.4890410305438553 0.3907053506096368 2.124908005139069 2.0954439342416813
P 4.424854217063222 2.167407304811654 10.928270439244537 0.596748672859082 0.0576868131885071 0.21876231247801034
P 6.152177778402236 3.456746491763415 3.370398041702074 -0.06600870279064117 0.7370170055952469 -0.689228168246742
P 5.519148020188666 3.119018654364957 7.390666513894227 -0.5265367306203707 -0.37974010984738465 0.003889307752077173
P 7.203485833188231 6.1763438492073535 5.533644863512955 -1.6821802387155544 -0.2558651308675787 0.3600290045717025
P 9.259943814469521 3.0274954927713695 2.8624841496070568 -0.23117405587880185 0.38224616409869006 0.9829828750712425
P 4.071339124142657 7.310236418547823 10.960785467639006 -0.6110812874316701 0.8470689626490314 -3.273206899943724
P 0.08863629583794874 8.061409338357683 11.658971244786635 -0.050277665208629536 0.16010722183896295 0.2743829871661081
P 3.3943439120164567 1.7668010306735504 2.9512492067489093 -0.18689426012482005 0.38038957050592553 -0.53854815325895
Ni 7.5335626365866135 7.559436194247845 3.6992656085072744 -0.8166301865432002 0.9183864792470958 1.5746093962124108
Ni 3.974562874570969 3.2124079218122206 8.998284049984498 0.5301874399990805 -0.03896172597517806 0.8102898461474691
Ni 4.76639824093245 4.307280217752305 0.3782335310583705 -0.27628997438083386 -0.017816716466446735 -1.0402446849071891
Ni 0.06813245777067303 7.898554280507292 9.42494396099871 0.34703464919456367 -0.37481567596257387 0.7864953148310326
Ni 0.3909071889636176 1.5362436524517606 1.509280288971982 0.8731186085482319 -0.895095369929639 -0.5747037772439006
Ni 6.149658535499772 7.3977847746730765 10.694695567857352 -0.2733008098455229 -0.7116415029449357 0.7395204887433909
Ni 4.074894055793911 1.0301370838760298 4.883747374487999 0.3618483171686284 -0.5383334661449825 -1.029831459993665
Ni 8.035405153286693 9.194116930481066 0.5351347781826032 -0.16908679962975395 0.09442916291486317 0.2354402873543235
Ni 2.3095859098033027 2.9250929340508462 10.94625503440935 -0.9444134994384767 1.0483981672522589 0.5674208704292422
Ni 0.09773449492755082 4.842908580933206 9.013810983740017 1.7304336744053037 0.6971091136567156 0.5654483200839036
Ni 8.082570978738378 3.951283204046349 11.923477753751442 -0.6679340347546562 -0.7929495550968085 -0.05422302300962275
Ni 1.514400883434472 2.295758065427556 7.808955074048846 -0.32547594918718137 0.6053947785698541 0.7457541283579286
Ni 7.678437764536826 8.670263695236866 6.488976295085563 0.826025511715171 -2.1395635502687154 -1.1717509551800078
Ni 4.750032492595703 3.4454658818779373 5.002365460024048 -0.6041801894364628 -0.035308702603623066 0.711816080849587
Ni 3.362218899745408 6.8735583182581435 6.9022394321762315 -0.5344009638597957 -0.17712946742857236 1.1659238069752693
Ni 5.026580049581361 1.0290920645979706 12.9890279284127 0.6858553951197671 2.340169503552673 -1.6714754507035405
Ni 4.413424318709451 5.681023372465875 9.226219549481872 -0.523532396576408 0.8499198018342654 -0.04602223236638526
Ni 5.992952296437248 0.7136380666690008 7.030334536290179 -1.284915232610529 0.9648632826523963 -0.10226280002666904
Ni 8.753156117257197 1.1069366702841055 7.484648269950033 -0.5415766556726286 0.43728294125885986 1.6581211408838217
Ni 2.6965322890924908 7.312802314096627 4.786721066731919 -0.8678673874516215 1.8035445354583646 -0.01753903732502786
Ni 0.7648589401407262 7.7133526050591215 7.082514588170695 1.934017222260347 0.6168048201790086 -1.7521985768862212
Ni 0.38226431970231267 7.701754757178518 2.521652978173934 0.7010842962543797 0.407635293595756 -0.37954779133092054
Ni 4.032066926452025 6.533320568486489 12.811606981321434 1.0459738740814826 -1.7453381023209618 0.8034483977456034
Ni 6.6456414798193055 4.22614193523443 9.844079733210902 -0.25100240345863867 0.9803546934197762 -0.2541885144961042
P 2.2468660920612193 5.335149983016117 4.489630483456057 0.2739926937062249 -2.1025831163896243 0.6376595521408308
P 6.907017596214571 0.7044885496684226 4.9315719353060326 -0.648640990852999 -0.5471214967502577 -0.6465524837550864
P 3.0324593343421506 5.420039138299882 0.9397559790648929 0.044379297446323566 -1.1425882175731226 0.5083631450351374
P 1.1850518613190235 0.02469697792048787 8.283438612828167 0.5693995914221677 2.147135706189018 1.4270519860140003
P 0.7640882384231577 4.784602103535068 11.167444561245683 -0.1923822798225848 0.03138494206918466 -0.5297328689601651
P 0.09060970277821215 6.063780344113558 1.0469161746593663 -0.17853971751253767 -0.14455744702982198 -0.8002455745375895
P 6.121760252987301 5.8518280412529275 12.587140572606048 0.5723550745060659 -0.18543618752205485 0.23568557059591022
P 2.267701163917523 5.5244664218716455 8.503944211869126 0.7453286107847357 0.5173807751527154 0.8414747563907056
