# total energy = -340869.3939403927 ev
CRYSTAL
PRIMVEC
9.23710208735793 0.00000000000000 0.00000000000000
0.00000000000000 9.23710208735793 0.00000000000000
0.00000000000000 0.00000000000000 13.51943260543401
PRIMCOORD
 96 1
Ni 8.39193485459009 8.45557848719023 4.365979060255186 -1.4943899491390262 -0.027413359015946333 0.7316621690412367
Ni 1.59924717604647 3.700022803765602 4.239667233023348 1.2705563927856958 0.25671925133775786 1.0114128482771616
Ni 4.558131102936557 2.700134226397324 10.449507632667114 0.21874174365272006 0.52017710695093 -0.35478061168856967
Ni 4.057627969582998 0.409014256853111 9.639003662228829 0.6070130308995675 -0.5890381915887017 -1.1236209324420006
Ni 1.2323125372354404 9.186796716545782 9.126198556466434 0.351340218548453 -0.532226067695664 0.024485129625557833
Ni 1.2637279210486594 7.916113257710778 6.223873404962509 -0.8409052570404808 -1.894020884373067 0.747286505842055
Ni 8.999412865903336 4.611336810306197 1.6359997573802059 -0.300195834464154 0.4741566743567576 0.30950605612148635
Ni 3.029981900783162 5.932353237796956 4.444919333724098 0.23335563691115296 -0.3586112982885695 0.21104823166320427
Ni 7.443395327094697 5.4252363394300875 13.310827441088522 0.28282109063113225 -2.183805807916542 -0.282612574164752
Ni 3.9189605947508763 4.4674781841647455 6.85220232656143 -0.5704874251697079 -0.2702075156321798 -1.5093653395019362
Ni 2.3303360859743862 6.935687254201499 2.1688410610341773 0.9017537557864213 -1.747897892628338 -0.7203984232019593
Ni 3.1335667623184276 2.7078564436475006 13.045319876791657 -0.44925219780559406 -0.009967652735673155 -0.6566232377275272
Ni 7.874416979400615 2.2001853191621974 2.4637133725060574 -0.33495869186663607 -0.2996517890352259 0.008594940757862617
Ni 6.865217403242649 4.388464013880043 11.012483134090525 0.26531547764720115 -0.9336794008504243 -0.20514343614299504
Ni -0.06576447121334723 4.555868012952953 11.96556269720609 0.754764559386655 -0.44939437981041314 -0.36018635608517324
Ni 3.330252374648587 6.842955987485561 6.697445767511177 1.3209533571810088 1.3149688574628 0.2490193115903389
Ni 7.499852494359146 6.045581633792969 3.9699133729490823 1.5391929643863298 1.6836408824214812 -1.163893406808802
Ni 7.157137536923671 0.49547630245936614 6.216221389687335 0.3522424186477482 0.6331387814523418 -0.18363153021314826
Ni 6.850733627347581 6.416340432821191 1.5720937910840063 -1.0185468882187814 1.2368340608325858 2.1108957500203775
Ni 3.2776378418052774 1.8098253897453682 3.8120476053744166 -0.039345334566841916 -0.5869329723202408 1.243965786781361
Ni 7.108947575925858 6.819225872514622 11.68072187847786 1.403663946107363 1.5162492111059627 -1.214977627079127
Ni 6.517874657718251 7.211414748122282 5.996260127803353 -0.8467128648611933 0.32865074737073724 -0.6313104699943515
Ni 1.8328719591702378 9.420550819097185 11.395948490594039 0.5439053038058053 0.36346065596107086 -0.017999007680581904
Ni 1.4008988853610091 2.274719494989561 2.1987461786746643 -1.6401717554942528 0.2644976097315961 0.4611893155628122
P 4.3672833390539 6.145915035433423 1.4792830852910928 -0.24789316840569564 -0.2407629851188176 -0.2195207879105897
P 7.873391661081511 7.918219316960827 13.710191697509504 0.8660233922643473 -1.157119321309762 -1.1190042596055954
P 0.9641779411371985 5.821129292929279 3.9358986686404087 -1.357931991287887 -0.004092939122451016 -0.2760927707683632
P 4.059235225326455 3.8303213642093743 4.435820788279811 -1.8497097211605174 0.17393204353719724 1.4408786074844477
P 5.690036341715753 8.31453717715082 10.867460633100366 0.14412987257410018 -1.0520439915349624 -2.618581409372516
P 7.555903229136746 2.3497801856294362 11.97655392484483 1.6343047551905143 -0.24389124633515416 -0.5157144431938859
P 5.224957494432082 5.925711761477725 7.344093709744727 2.09560539952021 0.7995403209404488 1.1555818016193131
P 1.4359721615558911 6.075029514885748 11.49553276326441 1.1889801745741007 0.16623467489293953 0.8516552964681332
Ni 8.274060196301209 0.17734589192741412 11.400531940593488 -0.4303638455415234 3.0505429384184626 0.5183307977708106
Ni 0.11368747996411509 1.6616345627781608 4.467117937187764 0.041261577752948295 -0.36165445599026746 0.37892686991747
Ni 7.274282464156616 9.06365691013178 1.9152983149240979 0.4317350148574371 -0.4837193783445282 1.2713392936983072
Ni 5.205421023757292 8.15168706935104 1.384930707178736 -1.7258139162451052 0.2838631587424015 0.052688074422335064
Ni 5.606837764236874 8.016003278456488 8.00374749155752 -1.6463729992089582 0.7620736914535585 0.30604766525924065
Ni 8.477359573644677 4.605064818065921 7.529985768418388 -0.21049981535890203 -1.475024400128221 0.28974404300321066
Ni 7.467531874552487 7.405597105817516 9.140231561785177 0.3800735819274035 1.104191105852163 0.8359414852773023
Ni 3.2071957021523496 0.14260145656280315 7.6766312282253635 -0.3589997919762398 -0.8469748602733285 -2.731539227219186
Ni 0.25673416484206 6.5077415568528885 8.355252475231357 2.5911055725497505 2.102923016227546 -0.8846309800632055
Ni 7.588260797351301 2.3801610140215796 7.849747451158931 0.37525482038252145 -1.043339521782429 -1.0644634482452378
Ni 5.380898249955388 0.6629763673928049 3.1777829220470712 -0.029988575942290287 0.36033779406137295 0.8641657702303183
Ni 4.973689846538174 3.854365540647424 0.9965743051800452 0.7169911972926233 0.4975367438435947 0.12503660338807498
Ni 5.032807299171105 7.11713164827473 12.70614365312238 0.16488587417452893 -1.6369866728980516 1.2461743643969054
Ni 2.4178483900750734 3.851686781074995 11.091260834564698 -0.7222257062186852 0.49610566782402304 -0.18623965725995667
Ni 3.3104849764244504 5.3188618730987045 9.424031359120947 0.20583917665843907 0.5853167768730565 -0.5993156622553099
Ni 5.431526805874309 2.3578072272447517 5.848980079090771 0.16524042930047025 0.60215544569695 -0.8172657632446699
Ni 0.9444936768308269 6.062143757632164 0.3422604920183595 -0.11864612648069887 0.05059185401493868 -1.5072462362764043
Ni 0.7660356378257557 2.1676707202140846 12.55772744086701 -0.09204472184308664 0.27016020733401214 -0.512163235507518
Ni 5.458887101920989 6.206528898586126 9.891033371035585 0.1990182970818637 -0.048409501651639215 0.06332421397994255
Ni 8.56189753090977 6.317512678802482 6.001451379112683 2.0468236021308166 -0.2539892540011045 -0.6292325044194002
Ni 3.2135415912084158 5.200793235668371 13.363053091938731 0.359326064967407 -1.1021396226397728 -0.8624459593257341
Ni 5.406660527360582 5.481481053349137 3.806896073603575 -1.8760560723645303 0.588887010722818 -0.9758724892787065
Ni 1.4116693462625716 8.084588760612661 3.9208384975821695 -0.08305743074281179 -0.2878517110765042 1.0410337564673877
Ni 1.5492190317558514 5.456605537733436 6.50841678900718 -0.7035558977233238 -1.816869791812361 -0.28630596385593915
P 2.5092402770047966 0.19214372928959492 5.3631048204230725 1.535430154909788 0.5832233846791375 -0.661817380333957
P 7.38051837395839 2.695044583209707 5.007219602993217 0.8013082114741491 -1.2798159637107507 -0.2440959061467925
P 2.6530989031462466 7.383197133530818 8.716316012027777 -0.2610212211472215 0.06623958785452463 0.5995704585785933
P 2.7912859486757253 0.44492995674801195 0.035570232281077245 1.3111780229618 0.995774370408956 -0.5524516507139196
P 8.377100068820013 8.167611833154035 7.125200256848927 0.03301964945913023 0.05790664250879705 0.1117152036888205
P 0.11387591684438256 0.23893519304856056 2.6278400477986295 0.3635732702795351 1.898297143150918 0.17547830497839456
P 5.0638070133954995 1.4611247902308087 7.689164128183546 0.18974047132436356 -0.6540721891708994 1.6497439725637202
P 2.5073281968962 1.8444275737395812 10.17901018588395 -0.7896883678470336 0.2621170253145615 0.5133474856236062
Ni 3.443240605993278 7.405135250718821 11.138403308198672 -1.1566596080645242 -0.4813619338559451 -2.8727046178483238
Ni 3.596170066273094 1.8693400377631777 1.5672406177069218 2.1630102113274297 0.3802707855398741 -0.3078356103975989
Ni 3.1230641773741086 2.89868573332621 8.334486546283841 0.7024390105100612 -1.3809662473995312 1.903619840915412
Ni 6.283806493699736 -0.10851747398932571 12.709213142108306 2.188135031419516 0.6663386652430782 2.4576938577241028
Ni 6.022248714206908 3.887739190079109 8.232968948170333 -1.3030098853287106 1.2099287518013098 0.3773908928889178
Ni 5.709563575288568 3.09561151030769 3.3858467965886754 0.9465580565853055 -0.5150037902801067 -0.3021143916431055
Ni 5.513487611688686 2.512131489922626 12.68403926809885 0.979540425048597 -0.4048564452990382 -0.10676274477955161
Ni 6.432422227357743 1.073425146182462 9.792760766845506 0.04893632068938669 -0.22849290950221293 -0.05667456987390884
Ni 9.389514156464895 7.7464276944503165 10.808285910435195 1.486523659017072 -2.9852572298367748 -0.7895230459137628
Ni 4.854309540627546 8.98005190016605 5.734835362578949 -0.47279836055665025 0.9496829753675322 0.5935710464620487
Ni 2.3865807998934367 0.017317718780659505 2.1701795171101947 -0.7479110267999314 0.3159590108356817 -0.7381277221609224
Ni 4.374248113942217 0.444164200994376 11.75286179747359 -2.5027712096787154 1.168578213878981 2.7655929743697856
Ni 2.7488137537997535 7.482754618605466 13.2741764678765 0.6394647236703697 0.5517775074650304 0.6815099736668778
Ni 1.3066250226154306 4.261509284350821 8.801001762924452 -0.059540064347161976 0.7161116229011474 -0.6183233137060641
Ni 3.006612032789206 2.421164509683702 6.150895680817747 0.0339771282763931 -1.5485566649894171 -1.8853868628471528
Ni 8.389126775590025 1.1558293328915847 0.38030719133863816 -0.6209427536067822 0.28954529672884327 -1.0578153468011007
Ni 3.162451180190799 4.45243094504927 2.3665362886100834 -0.6121539516705586 -0.34502070408832836 0.23997005690387704
Ni 0.9264998021856783 8.819390985534085 -0.08857272340729029 -3.259468467311709 -0.41368767043742305 0.6912544546481515
Ni 1.013236189720558 0.7562027427745439 6.907456823148879 -1.724562046115875 2.540978316876056 -0.1482940312541188
Ni 3.8341732357324885 8.161155098874282 3.7876173180738575 -1.7679476121903617 -0.2513351042077091 -0.4488192240332335
Ni 6.789685620402103 4.66237179871197 5.733415620005561 -0.4871114347452126 -0.3406302883301166 1.0729390898164166
Ni 8.640985598010264 3.9779487279561736 3.768095626762226 -0.6368514544172387 0.4223571731869629 1.5144854343373209
Ni 8.907559123874917 3.139515455989616 9.835711443603724 -1.1991031219407158 -0.7611059282236505 1.2845799607582973
Ni 9.087682612365882 7.415009712728915 2.148007701242253 0.037879034433960575 -1.1676752424487373 -0.4819257767792151
P 1.2976835079046998 3.717471689394291 0.5871018880690289 1.4654717234427792 0.11724436103716582 -1.7274763915491926
P 4.805362137267874 4.563266931634043 11.58416645154473 -1.4893708986578802 0.7690925459735528 0.47662364784001143
P 8.540458217228357 0.9166964658607828 9.073107389161272 0.1876301098495801 0.104068228666524 0.8779342847693203
P 5.795228458994476 1.2895456210656977 1.1726251554107192 0.12243721809201495 0.8697404361046183 -0.837238606822171
P 5.852590862252368 7.863554147479313 3.9119016014224255 2.4485523004341507 -0.5660725839314638 0.18429487482876003
P 6.941497391343079 4.278718005328189 1.8985477542046356 -0.5441400455244306 -0.46626030232781634 0.4010375857735803
P 1.191392175491083 2.9907057431901576 6.957478501468115 -1.4890610807269453 1.6928780847490328 0.41614795905245755
P 8.411369717143167 5.474008237852256 9.715605101477951 -1.2247843287569036 -1.3871096412931079 1.5291288952821085
