# total energy = -340886.79082042264 ev
CRYSTAL
PRIMVEC
9.10570910606858 0.00000000000000 0.00000000000000
0.00000000000000 9.10570910606858 0.00000000000000
0.00000000000000 0.00000000000000 13.32712569591202
PRIMCOORD
 96 1
Ni 6.73204178052252 2.3652898279187924 11.422958789705133 -1.0229396179698382 -0.8027670554078626 0.3286720875269759
Ni 4.816273481924625 0.37972080747913534 6.069199899153624 -0.5114973197887449 0.8860731118263708 -1.0486262241026651
Ni 2.646109889179482 1.8104880927517177 4.753239212337171 0.37884999393294755 -1.348688361202432 -0.3213860953885239
Ni 3.6725691319075557 4.161108623696094 4.593167224564146 -0.203757611539062 0.10554224210888918 1.2804944778350142
Ni 3.8790592917392246 2.6222165091292857 2.78355692214659 -0.6487242945954248 -0.8133242620984186 -1.3765580910295065
Ni 5.4111494417871695 4.403466170729639 2.601667655943585 -1.4733436699916884 1.087683852225759 1.2462162733784345
Ni 5.370264809003107 4.677220201914508 11.3702367354023 0.3030734131222651 0.04075609887143949 -0.8374499515020288
Ni 5.698707727604699 7.989039360183089 12.254198008458294 -0.2523118662986816 0.3647570061749911 0.8370655715794165
Ni 2.185834517694224 6.224061600316615 0.5316659500940796 -0.06517206582195872 1.424745449368011 -1.3670367818026328
Ni 3.133738810081961 1.4314902785561134 0.13363902552160795 -2.022226115297111 0.9861299053406566 0.3275904244270229
Ni 7.947808710462324 -0.12456063378759667 7.167381168293043 0.06232328351925396 0.4497083115064061 -1.0273151213297147
Ni 8.516533074477245 2.5057362813845794 1.2459232165443155 2.551845855718179 -1.2579477028827497 -0.10832983215635537
Ni 7.002454016555552 1.059613128689493 4.805974925203294 -0.48258655029166564 -2.534173892359713 0.4919679915065656
Ni 0.7562391371520002 7.522899912191609 2.04079605525004 0.7533301409329736 -0.6498116141223326 0.3584228364268472
Ni 7.854265763337452 3.958706927142832 3.6960381859248486 0.27779561239208284 -0.09060644673466332 -0.2867152834792159
Ni 7.866185136235968 4.147723231671023 12.575835320257479 0.7086819060959795 -0.2838312770632015 0.347601320331311
Ni 8.219732494166214 7.446639600484143 8.870614937517608 -0.5294400203100946 0.22118120633214813 0.9083748606473646
Ni 7.208215719678373 0.4973146634174923 0.3162704069967508 -0.5076596912102096 1.330610677765115 -1.678774555468115
Ni 1.9057975473955453 6.834881656394058 8.814254241954082 0.7010377592871604 -0.9249649037955618 0.21118964233707496
Ni 0.22738685109584378 5.0128839476425515 1.19035471765166 -0.4159127031131998 -0.606328346127717 0.8090693434768067
Ni 6.121959286862785 2.1972986051497108 6.949295798798296 1.5468209132452329 0.1821238353193702 0.9378584719287784
Ni 3.7192267841092344 4.391446635033656 13.592735389823702 -0.35554782887189734 -0.0902449496301865 -0.5940639269380672
Ni 6.2072524617599605 5.760845084869386 4.807640359353897 -0.3534048143869656 -1.574244042453192 -1.0298065202930007
Ni 5.55471915339214 3.19850771720736 9.444947507619768 -1.203742677595256 -0.7204573014643527 -1.2758670063653317
P 0.4140456876000269 5.90936830209452 12.486956317211002 -0.4675409688124529 -0.09160429187155836 0.05845351615120256
P 4.281531623377438 6.27373324215115 12.217935433491869 -0.1719877753266328 -0.058240371699131946 1.6485234698930578
P 2.70426805167209 8.413037587567745 0.9091349157719902 -1.3103627261493562 0.31429345020780064 2.4585623763719853
P 6.701501233004092 8.143563239547353 5.682632509182208 -0.8558605927987325 -0.5752408806942931 -0.5662083381783797
P 4.97754469155459 1.2503595179011964 12.331123036912585 0.7323049448315582 -1.1398643908840562 0.22393254382504013
P 4.224511674492404 6.479194456881572 7.921109861512178 -0.08428333273011292 0.666819975754871 0.8086955050771557
P 4.670236123218434 0.99631024069065 3.931421670542065 0.8169284345099094 0.08365804044128818 -0.6480336962863034
P 0.44082102450460087 5.533894397227964 3.4512985854533724 -0.6826870246941146 0.30858534407942984 -1.1042296723995821
Ni 0.14059305537844288 9.32224261729796 4.937820126079366 1.207971370964623 0.37063351956042623 -0.5514772026157921
Ni 2.021503789887101 6.537744164855186 4.459802280879242 0.5954410097912519 0.867938349898873 0.870561646454333
Ni 6.092802807091166 6.117069521204647 9.189999496944681 1.032682556289215 -0.7299379872612783 0.13865573683340637
Ni 8.783976849421723 2.9235790495794736 10.243001881001385 0.04745305127564085 -1.4771900403209721 -0.13489652690129028
Ni 2.666115131546205 5.4641264559381 6.907741896412979 -1.0484768430089941 -0.7829248238709549 -0.9235901349352222
Ni 1.0090491273866198 0.03982745998534798 8.701293370683993 -1.7120821684813097 0.8653741887161225 1.1800486764124258
Ni 1.7574746557653451 1.4958494287827853 11.474294955119385 -0.34610596673270716 -0.37767705667076895 -1.555923132656817
Ni 4.305151832161816 6.712464506472245 1.5894998232722126 0.7163052269691922 0.44348187098072006 0.2962185949839608
Ni 5.834218886868045 8.118358637421231 7.909848831364283 -1.0823683535501165 0.6962858464244718 0.5671704449813328
Ni 5.941183648853432 2.9209383940099016 4.712418319515132 -2.723397314838342 1.655420197012891 -1.109474208627973
Ni 0.8952887748785725 7.8930378716658565 6.791103229334099 0.03022023233712215 -1.8601404295755382 -1.0202381598782753
Ni 5.207318148942794 4.6353794697000845 7.331211992683721 0.4464283552035538 -0.25160918380470215 -0.7225838608890524
Ni 0.5054223865869644 7.346977617004951 10.784376337882629 1.630496694298334 0.06599250484072505 1.587122698188073
Ni 4.294816852605043 0.43431408495282103 10.16975646949766 0.7266433756704067 0.3654468331531642 0.8687040244203039
Ni 8.490918715452397 7.106468528870107 4.6449431957163645 -0.22051451928242666 0.05152439313153707 -0.43065489441938093
Ni 7.2595901290698395 6.416501651376389 6.795061480975799 0.6938947204844759 -0.5599039932269066 0.8525258719985446
Ni 2.703148049482237 4.858569499582081 2.358394985169551 -0.3142070611415814 0.4068791321560218 1.1161418504561358
Ni 2.4298857265758396 5.4555033496471195 11.544702117171262 0.8193198175602213 0.8032799904885392 -1.2559818374056304
Ni 1.232512328534434 3.43895306538018 3.739098172555707 -0.691397407983919 -0.10834577299595534 -0.26038461600448704
Ni 1.454372924922784 0.8359259271037082 2.4212717259937184 -0.6753982043421851 1.2855459242159923 -0.411708178113549
Ni 0.9458464021852433 3.580583260997845 8.148977494035861 -0.02027880485369411 0.21964908595833785 -0.2013281761619629
Ni 3.671585715350612 2.799659457695663 6.771379353371169 0.34454427867254206 0.043269352211596446 0.5462347232699303
Ni 4.575500328232824 7.160210422565327 5.854245982936033 -0.9423756430728415 -0.6309062925773974 -0.6283899539134469
Ni 0.7720275257453825 9.155608145149108 13.152126528335552 -0.062464951303440805 -0.47097159176055664 0.7270336691302899
P 0.173129574279114 5.901491863930107 7.817384910739391 0.8345430622678789 -0.12504457380787498 -0.04723707861009284
P 8.672550290094646 1.6462119991977584 7.930385847128465 0.21957735218013794 1.6844104135976539 1.6008122798600237
P 1.8607698170799127 3.512691095733263 10.365971747451034 1.6570266222680625 -0.7056953126638298 -0.7454970180417999
P 4.1000821629124 6.087157267597599 3.7826380300435187 0.7555294625771375 0.9208321125741109 -0.3382844138057593
P 7.146233159464316 4.385455078603386 10.224077486276414 0.7538276493946824 0.3702136584141882 1.4330066609355385
P 6.648296576131646 8.323173346822552 10.381857567129227 -0.06426858017108288 -1.2031168710857991 -1.2857377285118243
P 2.339283923412938 8.787036367598883 5.493654448631231 0.4654995129023919 -0.09081393475977907 -0.40971403050165567
P 6.991381474581071 3.7780223462220843 1.5408288988414567 0.5401090699881665 1.6849449459448853 -1.153885901974129
Ni 5.318981456700247 2.7559611608736767 0.6455856525071872 0.15267467682031768 -0.28211763680620444 -0.8393700513428771
Ni 1.4919248682638695 1.4455403873280086 6.8267529900942066 0.05649999196925753 -0.4761636774844573 -0.19638368767249406
Ni 6.90968505468383 1.0724612838917897 9.19983457308501 -0.3172669310138278 0.11912358033774968 -0.1511808658836106
Ni 2.5957097906360995 1.9017455069525815 8.975245906322025 0.855721496117707 0.3551115126654271 0.6785781447320637
Ni 6.5194507957542545 1.4446389221508098 2.4181002075975737 -0.979426525178552 1.774966466710356 1.123574138364465
Ni 4.230393962416347 7.022741535896953 10.125230463740245 -1.09512796720863 1.3661402381302923 0.7980521664306965
Ni 8.066483414042432 7.458276696407981 0.18989045257880766 0.8188901862219703 -1.3347408978834046 -0.02294915259700564
Ni 7.6686276767965404 4.414493184159817 8.181642403431468 0.48538339631051247 -0.8487810602441317 -0.45248690269280784
Ni 3.1490910352209216 8.287469862380165 12.178140754058418 0.24464946465741735 -0.11238626161391613 -0.5391271656908715
Ni 0.5455466926811677 5.177424106753467 10.108291113546885 -1.5154501122434352 -0.5663083540913537 -0.8556122242333523
Ni 8.615275381361515 2.5780811382819913 5.903290241430073 0.3773844651310146 -0.25325546115887354 -0.2388701389714789
Ni 3.936825908750827 2.937355987085551 11.560015187762122 -1.2442408948196184 -0.1691261375081216 -1.02427839138592
Ni 1.334077405165489 3.686892411945269 12.496072042351342 -0.9624703569401875 -0.8919473112189608 1.608346897674172
Ni 3.1815437816000753 8.67522736849966 7.802325889425743 0.9596948510775795 -0.1943478881893879 -0.28943731039606924
Ni 5.960323848878398 7.9010600011720395 3.616528957295922 -1.3396211087938412 0.36724454848353527 -0.08310988124730202
Ni 3.2330183537890074 8.46593265033893 3.1940723264213653 0.28926556070489534 -0.21842061286787542 0.667207698111593
Ni 3.628688720908358 4.7872900106213585 9.317659714028425 -0.5848254390589348 -0.8545084496462123 0.24466360572480444
Ni 7.548168254279755 6.285443183745873 11.419773612745697 -0.84646603895771 0.13217784241854658 -0.6306448113858946
Ni 7.929460707108229 8.770837311535887 2.4494056346602924 1.4437420450751717 -0.37482544615458674 0.9042271570275782
Ni 4.802687764304621 0.35424212351630996 1.1874345168200682 0.24585325515753145 -1.5545385936044644 0.6496774025373134
Ni 5.957091322232888 5.32241430894069 0.15291854289214166 0.5596353129465523 1.3729325784617774 1.5222005435933914
Ni 8.556270387944874 0.14573778088467795 10.907012935387982 -0.6402818202550264 1.588506208799161 -0.07542793922201205
Ni 0.04762285734090169 4.964459787921917 5.7438447264266586 0.324791264415331 0.5532530635692924 0.3210418246752278
Ni 7.341960371422765 6.064392995446116 2.47008925233713 0.20086846291672503 0.19321943101189948 -0.43825661802603877
P 8.527286916641605 1.7619637702336173 3.501035788391704 1.35030764197341 -0.2739073330812702 -0.757835999223127
P 1.9593391154958326 3.0479357154885935 1.3336057294465102 0.22566109648037264 -0.3056121203837188 0.17995279580998041
P 4.697607884053378 1.218972139458732 8.191077738952814 -0.21036020445724415 0.5338654030712999 0.01968230892027578
P 8.633104359310558 1.7625283241829741 12.349167820161622 0.9061521419644329 0.697795855311095 0.42860701075141666
P 6.270118275733495 7.804166153186468 1.3446400274437769 0.2934523450927333 -0.7428863198918303 -0.004814133559191709
P 1.7020755230574969 3.5477571805554065 6.0621092836638795 1.351818936411614 -0.61682333212177 -1.1713259518274473
P 7.057015424048226 4.05049247245761 6.098465647431569 -0.8933912427543389 1.8737107120608054 -0.4031636309776476
P 2.2843036533126777 8.494315144857397 10.200821505846458 0.6603019721306951 0.8254776096315009 0.41892423624601394
