# total energy = -340895.3058782278 ev
CRYSTAL
PRIMVEC
9.07008713951993 0.00000000000000 0.00000000000000

0.00000000000000 9.07008713951993 0.00000000000000

0.00000000000000 0.00000000000000 13.27498934714882

PRIMCOORD
 96 1
Ni 6.400624554051298 2.0887594736703026 11.380555984366332 0.2084519316909378 -0.6069209854063935 0.25893348538025734
Ni 4.706259686308304 0.22362390931164774 6.128690638770636 -0.5099230333230895 0.09145285389535864 -0.737433267197059
Ni 2.659748679266555 1.3786260588536459 4.701536891852853 -0.4291572268279319 -0.404709892418845 1.8117633238237312
Ni 3.332177741190361 4.6265880394931 4.9782806744270145 0.5267102800837574 -0.45919388239933817 -1.0943628069078315
Ni 4.837422218707513 4.632329404751983 2.548253724161755 -0.2436552190649481 0.04833596810122643 0.0023422749799314503
Ni 7.338181337748237 6.0441791933738545 2.3619124086836556 -0.5008118150504407 -0.700633067649574 0.7126470613913146
Ni 4.927814708707548 4.647458310363066 11.52546514107259 0.5776847142490955 -0.10215635635579182 -0.2756235444414285
Ni 5.667317066191284 8.039181174657003 12.537192563639215 -0.3433787976095312 -0.41710080988403003 -0.2133365134767487
Ni 1.8648915790103704 6.718331571884054 0.33629706875630405 -0.06965067041860264 -0.6863091948277341 -0.5062905787768248
Ni 2.703167187156397 1.5392391647056058 0.3905742851578908 0.4541023268090438 0.507726539892403 0.5191664062982285
Ni 0.4019118942789067 0.04573863622036728 5.167927129716071 0.5118665302027056 0.003919389659064218 -1.4345107562848907
Ni 8.577463645460949 2.318704326819099 1.3526547708879524 0.5623704524895283 0.7747880536964333 -0.0382389888765406
Ni 6.869811099828124 0.708706690084868 4.893930676584116 0.022377082143619526 0.024871309320382975 -0.021167378106234515
Ni 0.8599458607155719 7.289611020273805 2.3716437053444057 -0.3496813427887913 0.4333710077989633 0.5119542048205054
Ni 7.652559633543063 3.7842490322381015 3.890979470485886 0.0034182816529295967 0.4019711533314432 -0.5095661642043031
Ni 7.7578089265352785 3.874750363285699 12.662322580977314 0.031198022869359174 -0.5349133847198401 0.29422161915859
Ni 7.959364406445051 8.68169708867592 6.891020591962991 -0.4765424009801148 0.18484894756001713 0.81755398390905
Ni 6.967505010102093 0.7615726009030708 0.38618254888877407 -0.5814832620595791 -0.03062363842312791 -0.34513717506153463
Ni 1.90316734740292 6.559242240697959 9.192957048396472 -0.06720272309874234 -0.3724929413666681 0.787056072430509
Ni 0.22603564552387026 4.882509622659969 1.2657107280781648 -1.2321443686664006 0.5720480847886084 -0.5176263155046182
Ni 6.548730009520953 2.037431849657639 6.994804158848041 -0.3551544500882206 0.0024489757611248146 0.12035128209726369
Ni 3.282791115859215 4.434247768276889 0.4230669658899927 0.3834846644914815 -0.5210687655272639 -0.016656120499442283
Ni 5.639734930721676 5.72728848339781 4.72417038769332 0.9554975251667802 0.10499948223154175 0.3543468665852607
Ni 5.361537213153836 3.0121215707477296 9.215245880919658 -0.07808028924319456 -1.0759081997470696 -0.22956145997604338
P 0.17061559812288507 5.735950416766267 12.35556406552054 -0.7601335370080521 -0.07305841054857096 1.12775115256029
P 3.933733140976872 6.229970861561766 12.634298732256351 -0.09006060153352231 0.5751280092655128 -0.10261915492482326
P 2.5104006218372366 8.64626932769457 1.3476371985953555 -0.043058007531738746 -0.3745953324216516 0.4346251919210386
P 6.216211539132501 7.691116574641814 5.796112305806026 0.8894052615233973 -0.4931242165981959 0.25609858703462346
P 4.692445943355257 1.1094258678842437 12.46646311588994 0.5362480443708636 -1.0048616774222048 1.1164262144657742
P 3.8883917745801053 6.1308438774948995 8.407529210894054 0.7312595342861794 1.5284287838912902 -1.9700980271433037
P 4.731574299953708 1.2441348044165066 3.9616817079732707 1.0974517302458002 -0.43390476881524626 -0.1845769248455531
P 0.08172602158793117 5.565206023403766 3.5654231991064678 0.47674474679890794 -0.36552628024084793 0.5026990047708245
Ni 1.3666172632726659 0.9361962706024173 2.600331444393864 0.0789377521474834 0.8696530185971345 0.12675564296171074
Ni 1.614003894293233 6.896976011282078 4.807962575167465 0.18932883770824166 -1.366961191369691 -1.1231990144132333
Ni 5.89470415472238 5.584153435766808 9.29429804077249 0.03449314868086318 0.29182020880594906 0.29952863319380024
Ni 9.161785879383515 2.097784210530631 10.161672302984151 -0.72541053170457 0.3583475031042216 -0.045324434968412264
Ni 2.245599423206788 5.216388606142942 6.9465095720274315 0.18152245428994546 -0.46511744697262475 1.4780657580577061
Ni 0.5682500392326149 -0.2119788242312699 9.097907975578254 -0.5886047035957089 0.1723305033780322 0.8934683758491773
Ni 1.5608531827339105 0.8852622883784357 11.578048065167131 -0.8143151652567783 1.8913523364019686 -0.6729931944451184
Ni 4.120150645188264 7.095456731598231 1.4198532336525784 0.5881506467774258 -0.28159930240888925 0.3079963043451792
Ni 5.74669847021299 7.736784464181266 8.09656217493156 -0.562587967816973 0.4163587895116829 -0.2111464478039654
Ni 5.363260529740231 3.2307197446882134 4.725484643342628 -0.09014339105531571 -0.5797140859742984 0.3477044215680786
Ni 0.8208837157543886 7.235680281206956 7.217121068580218 -0.4758926832112578 0.8537016374742007 -1.1146536959463833
Ni 4.951941140917071 4.554435495046955 7.181225291094352 0.872545252543265 0.7323828492573451 -0.5938692944287579
Ni 8.156548104277759 6.932603314183959 9.271358882990121 0.3046672399719462 -0.00842473372858549 0.03457388132012756
Ni 4.856532892641897 0.28903012282642376 10.31534407102786 -0.7126614595690178 0.10945340423783731 0.6965367860930133
Ni 8.094907791008621 7.291025953892107 4.442342821189294 -0.33867522148627477 -0.005291073195610242 0.5617945253814003
Ni 7.263643360343029 6.050845707537011 7.050878159543126 0.13874084034804493 0.03867761907585597 -0.8458767421131431
Ni 2.1451935568310714 5.141451544896675 2.6089870287012125 0.8402604243676302 0.1862219166481438 0.5615227597772523
Ni 2.1153348294499636 5.419821594123155 11.489198397016285 1.1713331509162987 -0.3131811909802284 -0.6300693984983988
Ni 1.0394138640401462 3.354852959432393 3.9849927393348095 0.23417710437118378 -0.3004004942757923 -1.8478798670406305
Ni 3.4563018858472434 2.6563473965302498 2.8996824195553312 -0.32024555402617744 0.8334143479800743 -1.2964008646526255
Ni 1.0839570627547936 3.3024550651187052 7.989366441205448 -0.004271630792160385 -0.6589868528636973 0.46071648969145174
Ni 3.768140557198962 2.6200035567319215 7.098548724357714 -0.8595092452949133 -0.5075563328631258 -0.5313063840948721
Ni 3.8635760157360255 6.716299872329568 6.19202615135555 1.0363180961592733 0.9031850889163091 -0.016614982848861707
Ni 0.9039539242797073 7.558856561679691 11.287179435645644 -1.2043905955918999 -0.29241696184968347 0.6629034143092842
P 0.2245037077794386 5.3659089952309005 8.070423997359605 -0.12238219648436342 0.1396713225821143 0.2854266465747794
P 8.640727504356217 1.565968711969313 8.074127314002892 -0.5071860940079007 -0.28625222779986825 -0.7503108944906755
P 1.8573815467286094 3.435966750127789 10.40683494859954 0.3868073011068112 -0.7325114044154094 -0.7718603385266771
P 3.8200577368859183 6.305379567347467 3.625731116551705 -0.11962443123356818 0.3509069876657763 -0.04863498739888398
P 6.901783157549389 3.941234103171336 10.465669883867776 -0.26291843816993427 0.8099607449428244 0.6219467693912644
P 6.4144745773535305 7.774724639343834 10.253588567650052 0.05191340103983963 -0.4892364515080154 0.6989345969012285
P 2.4572045598414296 8.402937025695678 5.958784321474361 0.15557102453150626 1.2316800274354724 -0.4375346522583497
P 6.720027678208559 3.9353566866030016 1.6549798276740442 1.6658185095280793 -0.5427920161369685 0.7129244834224173
Ni 5.3527392284759285 2.869693989925879 0.4133955318054013 -0.7412001904386589 -0.25328245774206704 -0.05073197913722875
Ni 1.527212228950032 0.7853897431357711 7.201655662730422 0.046030459896501376 1.7805560449829916 -0.42869957046522295
Ni 6.878028598919036 0.7172343861613313 9.09347360989884 0.8211797535870954 -0.017461390009557026 0.4469903983546108
Ni 2.96701602662068 1.6187294097748726 9.322866094731262 -0.7961924875141385 0.1566408605569173 0.17421280800240965
Ni 6.579423184933367 1.777972932445014 2.717682047857487 -0.42505965971979054 1.175951880635233 -0.2495808405207637
Ni 4.163514732554326 7.031186093013016 10.521305799346425 -0.154126835885812 -0.4680346206194197 -0.1459656402312583
Ni 8.027707514226535 7.3547795975014045 0.26303343861629913 0.6571780817897327 -0.7162126672553859 -0.37280687306266114
Ni 7.537442085571916 3.9738229268287846 8.344658086778738 0.856237516522177 -0.5513162515578957 -0.19266510117032626
Ni 3.1069221231740167 8.489964513308596 12.396795775363122 1.6432401100069312 -0.9538864719259184 0.42247390127048534
Ni -0.06838483018304932 4.611667745889844 10.399706766992976 0.3625494570007111 0.528807014711786 -0.6216580345062519
Ni 8.806773592498969 2.3052533873579257 5.879320379658256 0.015605053527108607 0.08210612257313603 0.2914024045422401
Ni 3.6260032191706095 2.7248356257084834 11.618615844619585 -0.6984843967376873 0.260748427101809 -0.5443490762114431
Ni 1.2288879876705643 3.370335598448052 12.530873433819526 -1.038712821643695 -0.5349799762917173 -0.141362337131292
Ni 3.306318922307148 8.436360297384432 8.049701568912576 0.06346253933001973 -0.5897596431357585 0.8837308368464393
Ni 5.767586881257549 7.954575400352334 3.566419094691658 -0.11640669562721889 0.18168006291373226 0.07240843566939786
Ni 3.425345677903221 8.559287190518136 3.418641976382147 -1.1132336756704055 -0.8839123567296261 0.455374508653248
Ni 3.5390573623433625 4.441059403836796 9.46379348311422 -0.8589330610764692 -1.3018125225864998 0.5298166869232231
Ni 7.123954945884816 5.9501405282804996 11.583636145950697 0.1524687314570987 1.003702367006781 -0.8601815887715895
Ni 0.6423027669674425 9.030795678642946 13.541817200843706 -0.53327764888863 0.3172270789148279 0.32732508658077825
Ni 4.864233396756892 0.5381826998436807 1.626411773715273 -0.8020643729138832 -0.4722563720102512 -0.2930219424235341
Ni 5.865661735197985 5.415876106149042 0.37195067491134526 -0.234227497993145 1.270155300692535 -0.06698700754351045
Ni 7.929641730373396 8.90688014599389 11.48861428339437 -0.09871930564978483 -0.2957221149635165 -0.6997668629945367
Ni 0.18795125597328327 4.750920796157809 5.808338783482129 -0.9327982837970515 0.5950059791363624 -0.11433670047206759
Ni 8.179005640424668 8.904984497748856 2.3660411124211644 -0.4953178818154049 -0.18004124175872865 0.6292546159065873
P 8.609716875888415 1.6599257462769963 3.6346388492859045 -0.41035089275470615 -0.7141889519571378 0.9428410127450342
P 1.5995733854040044 3.24831571404403 1.4017058029891156 1.616560543833216 -0.918111114098522 1.4019811590883018
P 4.841032113451644 1.0173644818215946 8.216342654781997 0.5001682679291709 0.45261571496118824 -0.3124682240736038
P 8.521564697450692 1.693829732592482 12.417730443852896 0.4875348954358765 0.3004336615065729 -0.20144490424548533
P 6.355791112543152 7.796374937721326 1.494962626557485 -0.43756267728280773 0.5658851505110061 -0.8303303097381118
P 1.9761089894438884 3.1756552447092634 5.85176182641562 -0.10172672501754092 -0.48048981566363697 1.7569129516427548
P 6.996302537269474 3.9935866470485393 6.092264261177906 -0.42329382606861937 0.582706592943719 -0.614390040089929
P 2.4350100562261288 8.582814996966068 10.212794943023907 1.1295537529866675 0.12133292928424266 -0.8382343950765371
