# total energy = -340870.9218827264 ev
CRYSTAL
PRIMVEC
9.24601871257014 0.00000000000000 0.00000000000000
0.00000000000000 9.24601871257014 0.00000000000000
0.00000000000000 0.00000000000000 13.53248298773699
PRIMCOORD
 96 1
Ni 6.583350170589934 6.358801362630962 4.45203840100775 0.966834033225522 -0.08163689624620134 -0.859472735630023
Ni 8.166888039844206 5.962119426212295 9.905073891765074 0.21216974686215717 0.462430644169081 -1.1221322637116158
Ni 9.119995376204031 1.6411035811192374 0.7170213463794738 1.2051261882063438 -1.342675836459765 1.5198592970547244
Ni 6.558043817654758 6.718425256461326 0.4018513854234386 0.9375805356770432 -1.254559246026491 1.5852655903746762
Ni 8.325864083822076 6.443439416985587 2.6951700438838055 -1.115244278342531 -0.2882260636967875 0.030330532662741317
Ni 2.2716450662370025 7.899123340902765 9.746108018407675 1.5319321690588585 3.767438747783802 -0.6544923074274535
Ni 7.21130277049694 3.6564859955654603 10.860493657379223 0.7019237614365395 1.42528743791441 4.593168068414792
Ni 1.812746670592611 3.3775890902177528 1.6127201531907 -0.8746934092345193 -0.013367679556157622 -0.2254636357575859
Ni 1.3861353719338378 6.960069952829922 12.521796090753552 -0.45019604977610206 1.3259937478183939 -0.19673978546033213
Ni 4.080203290399348 4.129253419124637 0.9928494981505701 0.6227216998840759 0.8374723200995319 -0.7002818549577423
Ni 0.4801254051688998 0.6636487039540779 10.211828126582416 0.84518228714928 -0.300825754738669 -0.28521813010839914
Ni 3.2361157594683405 0.9602822468010731 10.754345665330629 -0.7511498454522032 0.46319837557304105 0.43500545807859275
Ni 8.217602451919268 1.7791466389643928 3.77043392891333 0.5685025335291951 1.1443077713673906 -0.41363959080830703
Ni 8.579713524755682 3.8170893388186653 2.1610423424221787 -0.928662150141491 -0.34715394838124725 -0.6995778869121824
Ni 9.254894787721836 2.2767673605468626 11.829542054424302 0.4121771473301675 0.18903984571291313 -0.7323792497129193
Ni 5.000579720880281 8.307991529849224 0.7168345768035548 -1.8309908045947758 1.042437835903766 -0.669067377028151
Ni 7.798313999999501 8.332567447314222 10.455061288948189 -0.28617278071218455 -2.3784442307631553 -3.1304361125006794
Ni 5.352890013990248 4.919011344704129 8.914469326932977 -0.0969735266032717 0.12257374366987922 0.7085677491156184
Ni 0.46825074346826123 7.233705873588622 8.092329994978046 -0.5690897734912328 0.5508573096436062 0.597244381548578
Ni 1.6442287354093685 4.320026521101803 5.862542579589725 -0.4615664963965728 -0.06500237301331385 0.4842757650686305
Ni 3.4644554350573533 8.38036011750857 12.268075169478623 0.777106674527281 -0.5340888319360156 0.140330553432668
Ni 4.718733335596029 2.1464724662967667 13.18364274568057 2.7121945041439868 0.04571241443545031 -2.000075804452317
Ni 1.475220761239804 7.5194078486331835 2.544539456303191 -0.006414902387408307 -0.007265937533793938 -0.6452203952072243
Ni 8.846035844793986 5.160554334868016 12.065426481198958 -0.2905243728126609 1.0924211098004284 0.549237514651996
P 1.3028102522218121 6.3380625428890545 10.315987300028032 -3.4300189959711833 -2.1682385496059045 2.116121260085375
P 0.5552613261981756 2.272551176060768 5.190681561906373 0.8659478018314055 0.6584088688730403 0.42365249495961876
P 1.5441128459018438 0.035071997790907194 12.061217693527752 -1.0133347478902226 0.5315411258134974 -0.9763908236760216
P 6.639297829198176 2.4690105794829966 1.7798872450550425 -0.03183899888746775 0.1201101126207351 2.325327553443834
P 0.16104437834089536 3.7112039336985907 13.374288252600921 1.9650409243353708 -0.41518405247729145 2.8777460369269727
P 3.6941265373261856 5.482334274528238 6.998892135768988 1.1358123323018696 0.30691772656901983 -1.258654756252103
P 7.123678252131331 3.149665485466183 9.073827231479434 -1.7729059846369013 -0.6596337424190768 -3.404877206598233
P 4.693981743777444 4.891606145544515 4.097635733886372 0.2388508556977693 0.8980721931697759 -1.0000341741265744
Ni 6.491269071254376 3.5535870544563686 4.1085839445223025 -1.6891756961967812 -1.0762840950292496 0.014837322123148639
Ni 6.020951842626811 7.836315136486011 12.020214374798622 -0.8883233413131282 3.0816946814309185 0.00044968594290890294
Ni 0.37857638277684724 6.602572643279826 4.770362178911607 1.0843442463295647 -0.24413472980452794 -0.3369338133151359
Ni 1.6452180594006234 0.14738431044669356 7.725951884553182 -0.11510623164824046 -0.30543240027274493 0.6921121746627564
Ni 0.38015745195913264 4.190082975558881 10.276662133676592 1.5107442221273335 -1.2408372684547082 -2.484283435287173
Ni 4.337103917474208 8.008022948089653 7.5029499355076394 -0.5498625498305045 -0.06557701456986124 -0.17562305808637496
Ni 8.085338155705273 0.24189618807478439 12.202984123067095 0.24122372680532003 0.5199289954958659 3.1379193082516026
Ni 6.248958661545869 3.4764660132315566 7.272504941481162 -3.626821002128018 0.47950868269729036 -0.23728428254159778
Ni 8.414459434141719 5.686514103489696 6.7426137657465715 -0.4036107458173952 0.5790646253157575 -0.04498067847574834
Ni 4.229591213078798 1.3295497380415169 4.598418593833412 1.6771514180423954 -0.4916615160097403 1.4387777590913609
Ni 2.4096696320449382 4.871717959514713 12.786774964287844 -1.2546862585226586 -2.0284774955234615 -0.40067248912467773
Ni 7.291632180179372 1.3468675308977778 10.289477115469854 0.6769328958191568 0.10740680612145373 -0.7604605813301677
Ni 2.1186419502810994 1.601789509990128 3.6328356045633083 -1.73490945078847 0.9222071385447667 0.5125838679847043
Ni 2.5195400711858618 1.815067421263685 6.363109082701294 -0.660603562531514 0.22972575346804955 -0.3081125182080694
Ni 1.0725104206875098 9.021220159394934 4.89353486502653 -0.24006801593432206 0.01897962642629635 0.3647598343884686
Ni 6.287819677763095 5.813905747896298 11.372414271343699 0.6821609769873155 -1.5327261257150637 -0.2622064997045742
Ni 3.9673833713218807 2.8390085061936188 3.0008554389498503 1.042133931510102 1.4474794006304168 -0.5979601766686798
Ni 4.054712017091974 3.437771425349308 5.634059590712259 1.1133938553973537 1.6741846221045875 -0.9811771893210717
Ni 8.225942360705359 0.9646371215663154 6.160297664494096 1.37578084654385 -2.04977342878776 0.4951065371355473
Ni 4.278548881617987 6.731526864831492 2.368455504091503 -0.12726857804238728 -0.2584107801075679 0.440574467525938
Ni 8.477914859861164 4.534876255539036 4.464298621684419 1.445747762651291 0.19534753309849584 -0.07656205282645524
Ni 6.094013881681896 0.7172487984372763 3.369195554523725 -0.8099895412982309 0.7896150914069369 -0.5435306940752058
Ni 1.7262963965904539 2.648207666160623 8.740413951204292 1.7662244588516678 -0.13413033815922706 1.3163112304233073
Ni 2.6571208281005245 5.976136390424837 4.033370356936704 0.45196753985422805 -0.5489145840949385 0.6510989654751884
P 8.629873175714154 9.368898197181364 8.383021121664486 0.03028810946058009 -1.4914781748088701 0.16208285750809504
P 8.275685940826387 7.914721374297594 5.628781963289752 -1.0070178045332594 -0.23754190707835865 0.9918619227284274
P 6.135768901724007 6.890771043349049 9.428974203098907 0.9506980468956078 0.4865727886329233 -0.7159923237144638
P 3.5879914897036445 1.152895306481601 8.696298422611084 0.2390228624992593 0.02697858547137289 -1.9263422222135924
P 3.239564524409817 9.087569588939264 5.563623420942373 -0.6466123904587444 -2.0406426701310854 0.8808506870851669
P 6.206353007791651 7.932538452158786 2.460936031431009 0.5506752755397871 -0.6934465772034638 0.7649348150514375
P 2.3414894908158574 3.389738358671104 10.895678456597171 -0.16437062510100725 -1.0718836519687087 -0.22546852085359234
P 5.754130237583576 0.7123354641479986 11.736803563165582 -0.37726439461338257 0.2825850633609262 -0.21611510466315037
Ni 3.6433936332139036 3.4655742033091457 7.875106807563664 1.082507450231142 -0.3581955509073896 0.8095550248639736
Ni 5.0900257049120325 2.403715196060191 10.193735517366651 0.2815735913772764 -0.1364229908481457 -0.8358406980333799
Ni 7.448139537188411 2.8232163064079843 13.406806500051786 -1.818760066856539 0.2572977495490472 -1.0559278999704007
Ni 6.102825337417089 5.112456546059543 2.1892852308678457 0.38370552225303595 -1.0976101102005356 0.40151941050600526
Ni 2.468723952906091 5.713207359216351 8.731212313483763 0.3762297827012811 -1.0446083611925236 -0.8169091512361997
Ni 0.4486889418953881 5.690600843715253 1.0259585661906048 1.283307521803777 -0.5122133720191631 -0.9291653150301546
Ni 6.817736742349793 7.950503466317737 7.728022068119929 2.111350578169609 0.5077818186103707 0.49835435464888367
Ni 8.101999481240235 8.734944931196562 3.5357265203077093 -0.19076839836824566 -1.7280716019310305 0.048258063675439465
Ni 1.8124600440157055 0.14608894323945265 0.6480460475499453 0.06144293779682967 -0.6932228912284318 0.6917241951957184
Ni 4.496496032289522 7.094054008505352 5.018562302474591 -1.4624982426367523 0.5945498654355502 0.486118217594008
Ni 8.167091452253622 3.307134428410647 6.461409054153844 2.568812051258873 0.9147625093412634 -2.3803884989737196
Ni 8.857648844167965 2.2823334637499966 8.338986958035045 -0.5527534982250546 -1.594522075975938 0.8443027127578041
Ni 5.717608464074643 0.8405056233215497 7.407680808955401 -1.0605641131908317 0.9896967967563083 1.2610466535230476
Ni 6.190135491149962 8.736461278248578 5.5244600599166045 0.3105558375422393 -0.23975588401054196 -0.722804975760923
Ni 6.911149268365173 0.3480894856145678 1.1230389877885139 0.7483342303802789 0.834319119182531 -0.7333380140817628
Ni 2.2612710333567434 7.269506457645986 6.4130569998336 0.10667661282364856 -0.8841116172246258 -0.2800054755592081
Ni 5.256786896559401 9.109612097305162 9.567668180654195 -0.15204732764896395 -0.4474110308317972 1.0333276460723817
Ni 3.356110588987056 9.239990205722746 2.5733102924114815 1.0168396757196874 -0.1711897049053697 -0.27687284346749735
Ni 4.359664202882257 6.147021306372203 12.939055966190319 1.135498914826509 0.3785185787354578 -0.46224758162399743
Ni 2.356477286982434 2.150263333926808 12.731373745379445 -1.118269695432416 0.29960550917832274 -0.04367532940076349
Ni 4.211681675031506 4.314404941787011 11.160860742540878 0.19170736524274726 1.1099768592960044 0.31919294439194706
Ni 8.71836681982909 8.056000538656198 0.7385294348697217 1.011776402264167 0.47482001897236936 1.0704731447744273
Ni 4.32857908831592 6.857679542744373 10.385801212745475 -1.4071691310471441 -0.3194994198887723 0.601007705245752
Ni 5.902445622104281 6.033739086364242 6.725900662507395 -0.6957693117993695 -0.7319768720681781 0.43448532390906464
P 0.583436718707991 0.35313411336810546 2.666021045614372 0.8445089152313392 0.2144932527890112 -1.4011121262197872
P 5.97784690386766 4.145794546417669 12.602585027560895 -2.3544992899117836 0.1834636371767163 1.429246422562158
P 1.1175015472430707 4.830055399658701 3.210188998684442 -1.364365662728373 0.23227654491436125 -0.3663318068612788
P 3.3523012293197954 1.8806401852447863 1.1051488663803026 -1.1818695316712484 -1.0304361834571996 2.6323267839830664
P 0.42063097382191794 4.338148717577122 7.958114788837371 0.3165377661572871 0.7086875625229343 -0.5053724378379296
P 8.148987747815523 7.045040863854503 12.547128332540836 -0.26692113157142416 1.5935185744120879 -0.9869475161459456
P 2.8203038105458793 6.3144759494153115 0.8060688270091395 -1.1842665711485152 0.5741782437577337 0.8977400066413378
P 6.410394146473961 1.912779345932647 5.763808969864374 -1.3529700192969216 0.6634564585992768 -2.644273157711665
