# total energy = -340891.90839409246 ev
CRYSTAL
PRIMVEC
9.04153118208814 0.00000000000000 0.00000000000000

0.00000000000000 9.04153118208814 0.00000000000000

0.00000000000000 0.00000000000000 13.23319481696455

PRIMCOORD
 96 1
Ni 6.253340048754426 1.5456136108266545 11.119417153535677 0.8632897953832681 0.7431663130260944 0.1203937052994249
Ni 4.465042696113408 0.3702136367481375 6.28396823605729 0.4708921446728729 0.7839566075695789 -1.1547292238110305
Ni 2.758833406209717 1.727384556224962 4.738291334511485 0.22555593836107604 -0.1970100084025833 0.3789703215608958
Ni 3.635057246713864 4.465521897272685 4.809710390306413 -0.8436936184188952 -0.1761395927114773 0.22305296943356423
Ni 5.255326781543395 4.424039351635626 2.8563191967630672 0.20538254873699466 0.7326260756164028 -0.5114816360594611
Ni 7.202203551779962 6.195808785047232 2.4475452372963313 -0.02595322953065208 -0.33801007709845016 -0.2039350176571907
Ni 5.142940547395914 4.287430855116375 11.414040876096912 0.20198020792366503 0.12368523156650313 0.02439436968396444
Ni 5.6325485092076795 7.676947236122826 12.163516009972222 0.5747307738270941 0.036115000555002316 1.5088331211475496
Ni 1.71913867967287 6.436177894846973 0.38202820570714907 0.019765098442069185 1.1302461510680017 0.8482480705587973
Ni 2.8717078830477822 1.5752698335140027 0.44920497501277706 -0.37577289766952054 -0.8712252481802609 -0.07573698582199859
Ni 0.4673070248427587 9.089451423046084 4.636964701458871 0.11659052950325083 0.4129734179792178 0.9828067545046943
Ni 8.584481899543524 2.3985283836210503 1.3394106395302519 -0.6034800780456445 -0.5393729631530905 0.06263567255335019
Ni 6.6848742549805715 0.7693963398042822 4.953091897927826 1.190390681768382 -0.6900522068099341 0.37920274928667597
Ni 0.6611294273203242 7.593982144848708 2.645646092388425 0.5626311623500826 -0.8877723539056646 -1.091646950638565
Ni 7.5066861600784796 3.9162217457713235 3.897347549167714 0.5791931804738218 -0.02497852432220859 -0.46919804479990157
Ni 7.649813600670163 3.7515212114808554 12.540583127451153 0.22176484674976002 -0.319288846539863 0.1544281691763147
Ni 7.994603355535815 8.765918308283467 6.987801719894264 -0.3471400644241764 0.7032751332581114 -1.245911597653822
Ni 6.911427904943036 0.4896468403963868 0.21511068794017568 -0.28050529801376206 0.6042604078550948 -0.13565577366481799
Ni 1.7980079572648635 6.350283347429349 9.43739848064418 0.021668486112369132 0.9191225860821718 -0.9640736968715654
Ni 0.0746125246526021 4.710466021913828 1.3927014250544074 0.14337268269310147 0.6476156349122782 0.679748510891081
Ni 6.43104230506453 2.0199233016667764 7.000187713631886 0.0030909802204979026 -0.20322513607435969 0.9382063421865003
Ni 3.594958055366794 3.9084279457845876 0.07963057452805278 -0.5270617498859052 1.3289404891515437 0.664006674675792
Ni 5.9747704691821095 5.751028735456159 4.765061500405601 0.019071157698838125 -0.539381962014155 0.3771870044082278
Ni 5.343843373040084 2.8674041141455944 9.073472324767014 0.16573305266617264 -0.659934047268315 0.9449534311023469
P 0.118988360307939 5.431392520686911 12.497469489566292 0.8612642803128071 -0.23045543254522247 -1.1189888329866278
P 3.750951595008507 6.110176442037514 12.838594711793167 0.5027918215949468 -0.9812576648500198 -0.385687071459439
P 2.163656524856037 8.774019520334646 1.598318505122109 1.3481993373811556 -1.3383874934970563 -1.4150953278727565
P 6.381612253408514 7.674921933110031 5.864555106701468 -0.8289393429278564 0.796047477295842 0.5706350064911656
P 4.847834007062878 0.7085269427385001 12.63598122842569 -0.5352496850133363 0.5543948904832193 -0.09602710352960236
P 3.790092384037022 6.150203301134127 8.225647934098525 -0.05861960941542162 0.4105606947726671 0.06129535647537186
P 4.815845069298293 1.1625962615945067 3.839479036342764 -1.425095376508262 -1.6232176441384174 0.29204260922940023
P 0.07178162120034334 5.6689225896562165 3.5040445539205884 0.7725673918960307 -1.3798028232190493 -0.25804748323087817
Ni 1.2664834563132967 1.2903169328388606 2.686087053618904 0.508054355545467 0.7790275456990776 -0.19919853141346985
Ni 1.5864270831469869 6.761094363899578 4.736371817414985 0.7380158791734065 -0.8754670541757502 0.5384820759077048
Ni 5.703036287277975 5.29406070166309 9.185822392789268 1.511143257337965 1.0660343922767834 0.8232685177953242
Ni 8.83600825897625 2.1154832460517103 10.18750923417038 -0.5704707129991595 1.8475096281854053 -0.8175077040521469
Ni 2.3138634844611943 5.405994859245215 6.870250963064158 -0.08961014425966503 -0.6813973593484136 -0.3256253302808521
Ni 0.6702884985344351 0.28567983979223444 8.867537886950432 0.06353324466695509 -0.45144277769900965 0.11599891866583893
Ni 1.6191031772909126 1.102650909028312 11.404076204443339 -0.2230840797818158 -0.00486504140178517 0.8732363650730187
Ni 4.020660473899848 6.931093235536019 1.6372106520396785 0.40637725281893883 0.8871200650336465 0.18199193772719624
Ni 5.412983962945618 7.554289822410458 8.098199412946515 0.5239723123273041 1.041632052173019 0.07139876345796091
Ni 5.321555998368036 2.785903750943229 5.1137562926427975 -0.5457302728296859 1.3506375145090028 -0.5772016039650898
Ni 0.9249215281242865 7.428214709864 7.126313458753664 -0.526591495117706 -0.26804290388069324 -0.12867162903750098
Ni 4.994442437207802 4.708440718901034 7.050302209207851 0.0835744795885464 0.2408254629256369 -1.2387263927592924
Ni 8.234619845614578 7.496794724828492 8.959719915239027 -0.7581643290968233 -1.5513175155640058 1.1578258604584835
Ni 4.301897305207764 -0.048555735578617705 10.511299128422118 0.25607210467206226 0.3800859232225776 -1.8924224295376957
Ni 8.095154225202277 7.159672188511278 4.643104805369535 -0.20887462105065316 0.7481146581703051 0.48243819763925944
Ni 7.1220322936797436 5.954454148335015 7.064237017258383 1.2084485677113574 0.4982060019964774 0.4536171596425091
Ni 2.3872083864245384 5.364494230545541 2.372989674290964 -0.04379437147713103 -0.7409412803503175 1.1350759683564775
Ni 2.1652930420226255 5.266429781988536 11.51547329506582 -0.48789870653319845 -1.0602234420219612 0.16846664954725182
Ni 1.2618813168779734 3.585482530556934 3.7006101569967336 -0.8031871736644168 0.29468518905856994 0.7924129658670481
Ni 3.7970272385495822 2.6982189803267955 2.6752363118972315 -0.18952681265166071 -0.08921985079978181 -0.35479321009405995
Ni 1.2455613528686247 3.6977421832661155 8.367653320654995 0.25492076467643837 -1.2866252733231 -0.8976955265566475
Ni 3.8503089825424306 2.7766723474786614 7.263462638845081 -0.5592511901342562 -0.6176699963927814 -0.7056642023155782
Ni 4.138887537271727 7.084636520193502 5.772836004815797 -0.44176797361340686 -0.3595224972489292 1.062928242547634
Ni 0.8471951000895129 7.522581172116395 11.641718388400852 -0.11526435449265955 -0.6534378980210102 -0.29290495722969556
P 0.21708445422451958 5.538688372708484 8.053961008567047 -0.958980084398742 1.3364388544111179 -0.32695587616681754
P 8.656994980626614 1.8510636629750339 7.804104619966746 -0.058809613939040654 -1.3484934715828065 0.6543395838996731
P 1.8814612912295658 3.2526547216106003 10.43544610567418 -0.8400457372536629 0.8687901563762069 2.3651775955612364
P 3.9291330524778885 6.32960536532997 3.7870363464552166 0.15903250071754546 -0.6817879099186128 -1.0169659168849066
P 7.0041488084975345 3.6761781310986383 10.382473582052034 -1.02588224553793 0.1935909554187053 0.04749213204369241
P 6.294569431514886 7.543313403403617 10.180164798289608 1.0270428415049344 -0.1655726158289084 -1.0991057209094555
P 2.2883844492377348 8.619689622453443 5.838088736259271 0.05989281970089041 0.5748364461670229 0.04275101781428121
P 6.939411444338567 3.998400223821722 1.5160342411554169 -0.689326127277187 -0.23991246419306425 0.034140650437450876
Ni 5.5617894851981715 2.6700274857112003 0.032606474352860924 0.3477471018805559 0.14573321250547805 1.2774253519913872
Ni 1.9215333579827143 1.406988852825916 7.1188632369565985 -1.6773475932136013 -0.10356943465323452 -1.1529842160954658
Ni 6.988452710148376 0.707322610768392 8.917214772411134 -0.8605227741610922 -0.6477696439916393 1.019002230588645
Ni 2.7179295185763137 1.795150833371814 9.306204957224763 1.0108217516603817 -1.6119461849896561 -1.098662719834766
Ni 6.466512232382356 1.8325918145145912 2.70555347052313 -0.3458879371846301 1.5883493715063226 -1.453875791075064
Ni 4.0954791454662525 6.493808615398546 10.675959879974835 0.3272217282336945 0.6421517835842296 -0.6529830698717786
Ni 8.071221291832336 7.004908297127332 0.09327605357675581 -0.6527012769653017 1.4314130911961733 1.3372585220989357
Ni 7.751503703281324 3.7635012404627877 8.327768413599903 -0.2348697595628342 0.29999631685883815 -0.7663239820894803
Ni 3.247971208393513 8.220099146335347 12.433380403202044 -1.55544876412356 0.32944573246820685 1.4339661966353303
Ni 9.002309144308077 4.709218290593446 10.193370858916785 0.3271319967333656 0.28272930224827436 1.1304780645731496
Ni 8.510856710109659 2.54151115971182 5.785817835466558 1.4660437938961655 -0.578441647019778 -0.5619976425311418
Ni 3.8490341266281267 2.231404718940275 11.366467954971379 -0.1273588237633484 0.7642203054829161 0.33311238268651666
Ni 1.1940246244180504 3.268820979587728 12.775313034174646 -0.4112829176506724 0.2610335624423956 -0.6968075232558968
Ni 2.9594740274459803 8.471824419456828 7.9589327062229716 0.10963800944481762 -1.5054474925047685 1.2973519157119848
Ni 5.720649190264242 8.01585999563885 3.7023036358105568 -0.9576212563780023 -0.24467106192397223 -1.0015619236250106
Ni 2.9953869897978542 8.409329355062026 3.7962596125416077 1.1214774037364363 0.62840435209115 -1.3108072698859425
Ni 3.4275360201528833 4.4547353504232925 9.497689219706308 0.31785468519649773 -1.3019274508978096 -0.25116489717843193
Ni 7.169825828169172 5.856371616715395 11.46358575520053 -0.38189623695843905 0.17910433176675605 -1.4552649581131065
Ni 0.22109075674670375 0.06820750387463946 0.34350043250125634 1.8145534849743588 -0.11993090673039344 0.3287160533910339
Ni 4.59226608313587 0.31922392094164354 1.65622680068481 -0.19402752873549164 0.3415000925295796 0.22799462970955572
Ni 5.806209201023503 5.591906825982183 0.32030980885162846 -0.0786994108844322 -0.30403166327047637 0.580101294110388
Ni 8.274384500303285 9.088728100541514 11.103312377971436 -1.0461744201280627 -1.3424032995246689 -0.2660292158847741
Ni 0.12763839330945911 5.029351789584586 5.698067965824713 -0.035416688936397066 -0.683463754959139 0.36278214183680746
Ni 7.967768090616288 9.049759100607833 2.499141639853533 -0.7846975995006615 -0.7487726034692782 -0.335922341331486
P 8.400079868534844 1.7301693478675544 3.7014040034454987 0.3221509985790065 0.6975834821899728 0.31426259696986525
P 2.0073465316185746 3.263115773332936 1.6268228367209303 -0.812799242832884 0.14884039067589205 -0.23913599103835592
P 4.604300361305644 0.7556586371362466 8.38420836447833 1.8094755562308193 1.8828453273722219 0.36797577022260497
P 8.56974420351292 1.747637586352907 12.361947785110155 0.04697019810195137 -0.6781125179495547 0.7398362202115968
P 6.190284409418583 7.872108689386976 1.3399540355618096 0.683497693520868 -1.5971430585385527 0.7190010286338004
P 1.9208281185407592 3.2945350946251724 6.081473196749936 0.230600442763519 1.2823443865595592 -0.9457548439577195
P 6.998317020804444 3.9975051122223175 6.143087615995425 -1.3612679976396558 0.9979880902308231 -0.9183666817527538
P 2.140745284523799 8.436047080074562 10.172794141968044 0.7005988719775289 -0.3951219916200937 0.4259487471929633
