# total energy = -381179.0348893412 ev
CRYSTAL
PRIMVEC
9.19666481883104 0.00000000000000 0.00000000000000

0.00000000000000 9.19666481883104 0.00000000000000

0.00000000000000 0.00000000000000 13.46024857549313

PRIMCOORD
 96 1
Ni 7.786586252107137 5.2670127567933696 7.076268043749889 0.6571302592709328 -0.8594151429192102 0.8845438196660379
Ni 0.031712859566115734 8.182796969222062 1.855764660676254 0.21939814628979631 1.102637645322114 0.5687493594326786
Ni 3.5135214474429586 1.6162586757496284 11.253911932103366 0.4063551413317518 0.9327484043957226 -0.8879968112116448
Ni 8.329042334422414 8.622737827924693 10.734238747738713 -0.43700320523491193 -0.5776037244995149 -0.4436104261387844
Ni 9.252856520043125 0.6492946580962484 8.976168418935828 0.10242915040120423 -1.0066928170936726 -1.4775888184212875
Ni 1.0141622215739385 5.127039517053126 8.395547096962336 -0.7310505035991668 0.12585190020051873 -0.33527853709989996
Ni 4.054717586667276 1.6737930113485089 0.6277257199120966 0.06822833614977927 1.773460571588791 -1.2998921656353355
Ni 6.0681802193407615 0.2435322848187593 11.723782417048483 0.9642719289253007 0.3817329719076974 0.7118050251059934
Ni 2.56983326897871 3.7355841180584592 1.0229119285574386 0.5792489734124218 -0.18083416997366922 0.538596232888066
Ni 1.2847372995238533 0.5414757178372017 3.873764927810176 -0.00016892147769648327 0.2339004536710294 -0.13622578723567508
Ni 4.369537819439156 2.4279839095993725 7.255841202872361 0.5104861049154112 0.8697103541976311 0.4753972316320781
Ni 0.6083060423144948 1.1036089843672112 11.316152201130308 0.7737974076483899 0.52053706139351 1.2250879760402513
Ni 2.0786761834617953 7.178079722497876 11.671812063712602 0.24055266888022442 0.5616325458822392 -0.4107792385413765
Ni 1.9320169683410553 2.8819312889409243 5.10990061235011 1.6627110742473492 1.650391890560364 -1.600716634822424
Ni 3.3346371185213113 5.7564040826499605 8.855739931435792 0.05665040150419277 0.2115197719829841 0.05592792151587143
Ni 5.24921721021667 1.2766074477544462 9.480981632159068 -0.4397491434111653 0.12050709094883763 0.05831004859480281
Ni 5.364708927999716 4.7075336477527845 -0.11234829772107503 0.1186929205582343 0.5670393187201073 1.730628049804297
Ni 6.386982608013268 3.384832515531971 8.863008055704302 -0.2685874635302536 0.07367701796917633 -0.07895523564898015
Ni 4.041419209225463 3.6562168999928675 9.434840125035235 0.25754740366600803 -0.9746802687428183 0.1641849914527624
Ni 2.5100273571501424 0.2279365804855461 1.6734315824180366 -0.024916560736021606 -1.1743421129459517 1.0422025799645083
Ni 7.665484568736603 1.7689968863676286 10.459945458170733 -0.9159346752724936 0.025799220451291054 -0.39414291553627606
Ni 3.7528370614062054 5.014481535372388 2.747129333872556 -1.5657527171527292 0.08363670028504952 0.8821151556198872
Ni -0.2845512495946748 6.822922917485476 12.010485686229176 -0.7222303342043755 -0.9283299636130529 0.9268934882768424
Ni 5.639652421775954 2.6277722578330818 11.817196621078544 0.5897131061685392 0.25985059787788795 0.028365695626886636
P 0.5010444199482377 4.075170969399358 6.524021191984713 -0.35456978122934424 -0.05441174198166113 -0.24973973469613114
Ni 6.66627612428603 4.747980579972073 5.033096504791456 -1.4329202718693193 -0.09058227836494723 -1.0659891408611446
P 3.1161427538860482 0.9958700550927727 8.321892847131082 0.5129978155936713 -0.8952622345248066 0.9288688668356584
Ni 0.7181583651823832 9.088236218377528 6.391329871510325 0.8629393540223849 0.2185399120545591 -0.10227822664563675
P 9.183826353322344 7.972441653021104 4.440374211145808 -0.6470083403455825 0.5845482741381481 -0.28103134572056115
P 5.573206517891376 3.8704807987752714 3.1424838414855225 -1.0011634026350111 0.4853679696915447 2.3346002369950116
P 3.6734882366704085 6.399204975662071 6.662136705415657 0.23720406412296566 0.03791400143695406 0.8491302160534343
Ni 8.719891395902085 2.94767824629329 8.603817529231026 -0.03678143049440762 1.2202514738835566 -0.12333144777151019
Ni 7.5050487495993785 0.5382081427991131 3.913970907409151 1.3580386920690806 -0.15553168665313857 -0.15040079318447644
Ni 1.913853555168455 4.468815817007876 10.50554896039806 -0.3107448136245939 0.5482540676928042 0.37468274992913536
Ni 5.716196263718006 5.94670147270943 2.3040579304388102 1.8592297448358108 0.7507130150251007 -0.5523747747293971
Ni 1.052530707526389 5.698455897130692 0.5834879224220493 -0.1975278285792663 0.3327048628354528 0.07981835498022383
Ni 5.3706499735235145 9.67820227155339 7.110874174092764 1.1456537438723238 -1.69556334489068 -0.22501420692499313
Ni 8.431364428072213 6.12094148585783 2.5474062819596197 0.3892925294225102 -0.8554746702142233 -0.9003597036523721
Ni 8.858052892657518 3.5570124757433272 1.2078449039821846 0.7533756494589283 1.4270334740712391 0.5432558431472644
Ni 1.7564526354474121 2.2592435020596886 9.608315895330652 0.9576937614871507 0.287469388036421 1.2397021264090005
Ni 8.444966295455645 7.422517878809042 8.118912336511444 -0.45169371736755115 -0.4897889815773758 0.258760964358135
Ni 7.368698995828757 2.9362192018309807 6.301805856731913 -0.8080378168884987 -0.6112774626028763 1.070600671491227
Ni 1.6610464338005473 7.213992698922688 3.2533689498214025 0.18362690222745795 -1.1581181948879216 -0.757025844617006
Ni 5.806792609623469 8.569341991529695 4.739770717218058 -2.3473102283625122 0.20552575918307828 0.05968044657976818
Ni 7.513325748007146 2.8766891899493383 3.600576157696386 0.4918314659287013 0.2659204582210517 1.164187283900137
Ni 6.851929198572252 8.28171629685978 2.002508485114051 0.10962566814964346 0.06823682079021151 1.2555552913911732
Ni 2.21427181071082 -0.2875659163480816 10.022029705078534 -0.04053241289640761 0.38322961105788195 -0.6018710816873118
Ni 4.596327575811981 8.568652241662381 0.6505067785297415 0.9294944162347992 -0.2637067383991845 -1.5105971550265083
Ni 5.156468844725188 5.1757634476801835 11.098352184694807 -0.4021025367029849 -0.7956121895306362 -1.3087879254630685
Ni 8.157874007349786 2.1948576511121565 12.831789246569688 -1.0885408009094157 0.3991226281390546 -0.14523956069851116
Ni 6.281386501659951 6.933613976192019 6.483249617494541 -1.0650414322358948 0.362169447953473 0.9653160539190988
Ni 3.154033013263827 5.373657282945003 12.451645103030728 -0.6574233650313194 -0.10600169824381099 0.6211132177463755
Ni 0.4944513308832061 6.623732352470106 6.0052768707747095 -0.0373874395095227 -0.3313393499464939 0.12254571864542121
Ni 4.605827730651119 6.380526549255209 4.634457868143586 1.7006672417761486 0.27919326407055783 0.0729157143231196
Ni 6.486269802246886 3.085766169729542 1.5187464378412316 0.08289930789839271 -0.32168022959017506 -2.5202063744360275
Ni 2.7497108377092894 8.0139737916983 5.094852109578299 0.2626669842807605 -0.7461287380885279 1.207435810176127
P 7.427217374571673 1.2019765121110775 7.792554887625626 -0.5514818306014825 0.3293629429464134 0.9712020803862307
Ni 3.3302319160353995 6.631862204239513 1.1342090474807272 -0.5542097710556069 -0.1587684484228814 -0.7508019751944811
P 7.5181080137538565 5.2433405413471545 0.7799167289686944 -0.2010389270563183 -0.3651239025961066 0.40096585199538043
Ni 1.1893494912067835 3.524125202069798 12.701332715665398 -0.45005618176412815 -0.28421771386834277 -1.5367411604117274
P 1.1230507339605669 7.85245276610317 0.07110861298761907 0.8861481880386802 0.33356643950479975 -0.1503383153776572
P 0.6703816910397704 6.58516153988991 10.098578145353038 0.05285545323813477 0.4796439227235739 -1.4670817482423764
P 0.8546368722615691 2.4622230930128373 2.8339210195099147 0.008803714334559032 0.6979652910094237 -0.021565899096233826
Ni 5.217350766346765 1.6891054584028786 5.020794126158044 0.23029371015637756 0.3695060908242023 -0.8056448911762898
Ni 4.319121702470955 3.9676895467420508 5.01436013939574 0.08983640133785818 -0.9684378873775321 -0.17053690181271922
Ni 1.4996541615139813 7.481615647440499 7.9220292147188625 1.86828182773575 0.36264895869305286 1.3069521578059105
Ni 2.5593950543200257 5.465467588616939 4.992056387686276 -2.0509178268048487 -0.1923509123640171 0.188457747957198
Ni 8.045132092371096 5.2504587599778345 9.665615715974646 0.36494623936766185 0.011436523971715788 0.7496532063020186
Ni 1.3461526277094873 4.7338361093596895 2.909352064999368 0.1785338039752667 -0.9671726475118634 -0.6213073360350526
Ni 8.531019488901732 9.047283469588875 13.201677269414935 -1.0645274687139539 -0.18928075807912564 -0.5965758947266435
Ni 2.767957020865968 4.047580974706801 7.185578683055313 0.33013915899080565 1.8214427558950244 -0.45849017146409426
Ni 6.55980633476745 8.45376750376257 9.04574486755152 -0.6132579833680147 0.42131459085506145 -0.22954191959201758
Ni 4.604163134304668 8.094508986205877 10.680841991677227 -2.0707957966756982 0.00033578607286393784 0.10963980921703054
Ni 5.933844535182698 5.8888544505040334 8.937955356620146 -0.24321118954899404 0.8481102594293523 -0.3903022016339472
Ni 5.392326512686968 0.832123436592442 2.374199054279211 0.6043156865730624 0.9547184809089105 1.1647722098693294
Ni 3.6263737224004173 2.6111814743579567 2.9653468788944037 -0.14482098510385383 -0.6347745172835519 0.3229225866377084
Ni 4.098217811632542 8.01642010456104 2.9143320590413744 0.3785023807855417 -0.6085004140783714 0.6524197411691409
Ni 0.9658429442023724 1.4611845122476583 0.5858496259677323 1.2691551415627949 1.0320971160993901 -0.7774866835745191
Ni 7.45766753204736 4.653116981554162 12.155950254579729 0.42991518803987894 0.07482938640606468 -0.5726744055186975
Ni 9.172771962115526 1.9868842711196555 5.300564949338988 -1.636820836744149 -0.6495403627388168 -0.07783886265634982
Ni 3.9490754969894715 7.929327687981533 8.472580201476937 0.3466600394639643 1.1575204134029227 -1.4102128029694745
Ni 7.243100143323337 6.855800994494108 4.322004856916327 0.7004296933895163 0.5614985914075362 0.07864027551172263
Ni 5.205735378581199 4.591057886825703 7.087453947264741 0.32711965543819144 1.224583011379375 0.12827285093718555
Ni 1.4460468018263415 2.2443724949204005 7.413702875504769 -0.9870526742652419 -1.198550077650723 -1.1513654495451204
Ni 7.673448880537855 9.004886844411311 6.177769517592581 -0.7566412075840775 -0.35120677829438224 0.37135857065190886
Ni 2.56990684229789 9.502454005361797 12.697940985651194 -0.7396194762151004 -1.9831636020780106 0.47007710497074523
Ni 9.01470888252186 4.842540688448367 4.584183379814807 -0.3037701820789736 -0.7077984750497617 0.7185927374517882
Ni 6.518651259351052 7.017156480121083 11.09155492966905 1.8208496023957157 -0.32399190844248715 0.2098570395685805
P 4.750325729520941 6.921787065133809 12.572504914114457 -0.5622066732181543 -0.04413478553568528 -0.12635840752329205
Ni 8.374942888925933 1.345600827815636 1.8407694985608487 -1.8042780711902795 -0.7833500843338315 0.5551513090332697
P 3.516059726954674 0.6194606771686959 3.9945309329119505 1.0106497448588916 -0.04199588481581155 -0.46363314911761444
Ni 2.9329911724519513 0.9448745482360283 6.0902375004309715 0.24192949462309304 -0.2538910378603434 0.05185426566713005
P 3.740863003709635 3.3983148262717346 12.580204361966661 -0.5054997074444133 -1.4138144042778038 -0.11139021624923397
P 6.249317731162302 1.2335026793797734 0.2763965668300445 0.35360870286765556 -0.7348521367334442 -0.198243109478736
P 8.952585411139118 3.51399967401763 10.935496723023045 0.33406549062840535 -0.2276202770892725 -0.15610504265810538
Ni 6.676944255567153 7.137071793719838 13.578025949350685 0.35289522174039867 -0.6764927229579446 -1.0880975427244097
