# total energy = -340857.9151039646 ev
CRYSTAL
PRIMVEC
9.38209623049740 0.00000000000000 0.00000000000000

0.00000000000000 9.38209623049740 0.00000000000000

0.00000000000000 0.00000000000000 13.73164619015597

PRIMCOORD
 96 1
Ni 4.270476782520279 8.817031121930889 4.527831428633393 1.1746992391750541 1.296741792931812 0.2815159986664636
Ni 1.2768845013817711 6.515330892394167 10.413819765246888 -0.25007166411425324 -0.17537828906542052 -0.8936067011992544
Ni 8.986650035511403 1.3388250991724988 4.880789632984543 -0.4561586951174402 -0.31013031996904655 0.4690471210443341
Ni 6.6792642557988 3.9915001579660094 13.097450111582162 0.10412890670113034 0.9196797441372225 -0.27556980838535766
Ni 9.052887633270043 0.1684517808381398 12.504435031512743 0.25070569815382626 -0.8582884855139348 1.487300903502729
Ni 8.142373980680746 6.894658415762375 5.449074446208069 -1.4009095232906776 1.434833429731632 0.25106513837577404
Ni 4.73435575503875 0.7022358124415752 10.180655915459678 -0.04597286718568856 -0.15866020497979128 0.9124320614358737
Ni 4.668484059024103 6.271846737007168 13.88338078780922 1.3467579769489386 1.0623309752832673 -0.05899653313886614
Ni 6.494042916570604 3.738662052867203 10.192135848125043 -0.8840481109765419 0.05811284498233217 0.20141353678691765
Ni 3.030942405313741 9.238409199570231 6.914556903168367 1.0024754365782154 1.4532348150569552 -1.058567394475777
Ni 4.319460705735273 4.163624091178474 13.160794270934462 0.016730682491119572 1.0850189037990863 -0.5908791014521824
Ni 2.9352074977317075 2.968410735475025 0.7087272846638418 -0.704105856689523 -1.4427879086920183 -2.452309453483738
Ni 6.002974629844691 8.956364629624025 8.495742182627087 -0.41117724531074346 -0.15376919543607712 2.5962845456475288
Ni 0.8503387652657329 6.130374111426074 5.751938825387448 1.1527859840417307 0.5575912859333301 -0.571313520615429
Ni -0.03974537328398358 1.5367967068644324 7.913973421032637 -1.3797922816960881 -0.6915246775904027 1.2626844462367868
Ni 4.662423225008228 2.1898656452190175 12.258679470684191 0.3160621120724492 -0.7292275914578151 -1.2007961933724225
Ni 5.3663431236817685 8.580583538543744 0.3576473759318535 1.539851423905935 -1.8181288610304431 -1.9876553193007769
Ni 6.4563175085553794 8.943529922296289 11.95692686988079 -0.20190153216692971 -0.10234224711435277 -1.4182364446048994
Ni 0.8500460438705391 8.500141447441397 6.357545616498208 -1.1095091756309665 -0.5306656651870796 -0.07333557546935757
Ni 8.309394053669315 5.152628358902159 1.4673363591298592 -1.6163857088182485 0.9965259038629999 -1.3806929391334866
Ni 5.7963902580249345 2.0981556568209014 0.8783199283755582 0.22045127014465907 -1.297328004452585 -1.2597783283335853
Ni 8.152591083224536 8.751562856044233 7.490173824415743 0.1761280227472515 0.1154168209101238 -0.29753782801601664
Ni 8.663849640542033 0.766995730080245 10.336537564077274 1.7883323464943008 -1.7233896230743289 -0.6079507122224884
Ni 0.6824555394451816 6.415580447724215 13.594919802408743 -1.1282558601108503 -0.35607747612312224 -0.5667058466400886
P 7.135862721821421 9.113974460324787 5.011693327421854 1.6187038154284636 -0.2868296975698931 -1.1633694159845318
P 8.137213827880851 2.944364423427519 6.502002686816841 -0.8386084905865041 -3.152077602029855 1.2520346798324242
P 1.862402348537744 1.1601712271441686 13.238048325816074 0.4359878765965201 -1.0479595370529435 2.0182920703500273
P 2.8501775616854537 2.861314109637225 2.6767786016266153 0.0405799783048914 -0.5307325138692731 2.841004201421249
P 1.6608561622698839 5.180802793189581 4.047196970868866 1.9283705654975307 1.4033150474083766 -0.7206215949563589
P 8.999747441527134 7.689453296290049 2.0021974553540725 -0.6171159236615242 -1.0181355117129756 0.05979948865613572
P 1.4540372380501323 5.9587005188216 7.815819809101853 0.37988820538947476 1.0966567451483307 0.959441854526509
P 8.120964037609186 5.197709330181233 9.56757909951387 -0.39280465634082673 -0.12173016472266131 -0.2744092124183532
Ni 2.592442002474748 4.3335150855429845 6.7137453350172915 0.9784425639987279 0.3854209622822459 0.729103664285441
Ni 5.5175731291026615 6.4521706221234645 8.331703739747256 0.46772480268848476 -0.019976700232243016 -1.1355431378008831
Ni 6.275524518639093 4.991040519497478 3.9738280419407728 -0.918159193727638 1.4075272857175114 0.5461804729932271
Ni 3.363631529466907 1.7131238190848104 8.539834280987781 -1.404271240674059 -0.06098708120633367 1.1509371037584502
Ni 3.633732691205359 1.78811491241127 4.811156654683574 0.34047550791980713 0.3353021912489838 -1.9258871369540445
Ni 0.06512488117306225 4.973167626617846 11.731054785104629 0.10565254243450836 1.3340312734108895 -1.5262875691785713
Ni 8.223163209335086 2.7885747193507195 1.0968120564382702 -0.9794134125524294 -1.7704364400504866 0.756266340743162
Ni 7.651286929762834 7.444186542663087 10.086456856992811 -1.3025221470590147 -1.1085434692835876 -0.8649736108435941
Ni 5.761479478809652 0.8870490304937789 6.15537458263676 -1.2051909800060083 1.1874467686487098 -2.6012593731543006
Ni 7.422870420551526 2.005788921702799 11.968337375035757 -0.3133007472772282 -0.014555272106355576 0.5497198536050532
Ni 4.92523449815483 7.2322168477394415 10.370963288929367 -0.35734914374669424 0.5447568531728231 1.1598776007811895
Ni 6.97425611822474 7.459760822022767 3.475108655927017 -0.4461995270221993 -0.02560921592767202 -0.39405292692563104
Ni 3.8099190719857394 0.7781538568528157 0.3494211541592225 -1.2443421962841732 0.23776096506770017 0.17247088561063847
Ni 1.592648324351285 6.7172335983100195 1.970380891399526 1.3687406518676168 0.13163328276898623 1.6090565221466868
Ni 5.805622240488745 1.9551725137838383 7.989607187935084 1.2231102834885905 1.2298460595505272 2.1705561419954877
Ni 8.3149764007892 4.323307365095194 4.981758811924869 0.23565137492386515 0.8379194349392796 0.37140407917786356
Ni 1.8074045017868738 8.279089883589936 12.95340491527792 1.496146783929133 -0.024343718951687108 -1.895724240217419
Ni 2.377273012815168 3.796221211826021 11.51288633935391 0.47116519582860145 0.9556605331072058 0.031626368656029406
Ni 5.966937999109431 8.211013395015335 6.567488778685895 -0.44948308286947747 -4.964162827969379 -2.3939338417583222
Ni 0.9058882792613919 9.177960355043473 0.9934035325379943 -0.231604201437685 0.24285200643736238 2.0373812257709942
Ni 0.8318072492469136 2.1818814815231815 11.90966268486256 -1.516563657022588 0.8768389948226125 -1.9361226986391238
Ni 7.337155591497286 6.7643411023250515 13.514809837504789 -0.10267057698804899 0.4092682012134888 -0.9926486802957807
Ni 4.990627707273487 4.127972126379206 8.068069656781471 -2.525888255312153 0.03295125811504002 0.33398552932008935
Ni 1.2045110128392578 3.1415385529594686 4.0886939814760135 0.4047217194933868 0.054971471139873065 0.8135240368140505
P 3.6595334552048286 8.672246616461862 8.686213742776774 1.4661019008276106 -1.4729040113511085 3.662464462363241
P 8.45325911373036 3.242471141725396 3.2146466596187673 -0.258037198818233 -0.8594012589621393 -1.2019704161861815
P -0.035437114800872076 7.982071488428039 11.074490077780517 1.443895025713268 0.4550649478326292 1.251676010941425
P 3.00616428977825 8.695270280045388 2.5159122454043197 0.2878105734259237 -0.499478698061314 0.031432507477668445
P 3.834181172241241 3.2832926414205574 10.047074570824021 1.2061751982961486 -0.29511919127219494 0.18521970063587456
P 6.336958483245831 6.420947006636106 1.6387753993343377 -0.30176189339969317 -0.6968692297317676 0.4594152543815249
P 4.1030908077877175 9.17033271099563 12.133268993454767 1.651737091734349 -0.21269090947294983 0.9383063580994744
P 7.342615971369173 0.36418763505331914 0.03563413881686803 -1.0688340665091076 0.8554967817014106 1.0524803077414326
Ni 8.913038110296915 3.2059841703821452 10.049669658577567 -1.4794978625185422 0.160369217251098 0.6908070826980877
Ni 8.614180824319055 6.272813092895149 7.6692480143448645 0.33180317695678985 2.089228806569905 1.4501263513349605
Ni 5.1725653129017495 0.10915881053855775 2.235250596408485 -0.3822945008381223 0.5043589089717506 3.0287227572195774
Ni 7.081465329214538 4.5789038064179435 7.528608518888554 0.43714127347467296 -0.4338206937418722 -0.3638185535211218
Ni 6.174188499745174 4.096054235787863 1.852659980051544 0.13064469360347178 1.0747195787556072 -0.6042642645098367
Ni 3.9069111804317473 4.685887847103746 1.992530143635871 -0.3625126902255047 0.3178629127266139 0.6590974102996326
Ni 0.23061473430406287 4.293772526887801 7.0248762789821 0.024991379838015026 -0.6130404680405701 1.163115648102513
Ni 8.069522005242243 0.1306353664917166 2.776099346299776 -0.48270764925056225 0.5686524288434981 -0.17505304451551787
Ni 0.8825934731034705 4.180464953498128 0.9591682642346975 1.0375838502455743 -0.17094339322251847 -0.16528208117168305
Ni 6.289269289278812 3.0077780102902167 5.306320226313401 -0.35918722539669756 0.7257599446241888 2.031064282414031
Ni 2.471215940061238 9.02378437147864 10.82351713336647 0.030857865921121046 -0.9377247745643914 -1.5436869956019414
Ni 0.5609930482124765 1.5702626432957447 2.475417242649952 0.33857417713203625 0.7147615366311562 -0.06637997008713084
Ni 1.4062073126431147 3.365723736874864 8.990492942032924 1.4005562537163172 -1.3962324295299826 -0.7162905716811728
Ni 1.3439101952043946 2.323870122384265 6.449507045069119 1.838713370050014 -0.5340163268268674 -0.8760689494258074
Ni 2.8077892519583245 5.079194693511668 9.228284041567239 1.4832236481095618 1.163415695841435 0.5463370531757494
Ni 5.945162154293879 2.2559249831536605 3.269463431916841 0.22360267128944716 -0.7577138718229661 -0.718726177705859
Ni 2.893888746948556 6.230987708928008 11.927019562462204 0.8593151270062362 -0.04663878290446161 0.6794602902267008
Ni 9.078247438757522 5.7508026535618715 3.416474308766621 0.6461570480888807 1.5839903232066785 0.39479700418050717
Ni 2.9925696326745292 7.10955532463796 4.226023473463592 -3.6584406859158283 -2.0855349026580856 1.390180824019264
Ni 3.7004675400519877 7.095482180638251 6.592054858851791 -0.5375294821864484 -1.0460936874887983 0.1843144152127858
Ni 0.6493170381642622 8.213649763991281 4.057440343281455 0.11803780347273865 0.4194734238812647 -0.8643933128600919
Ni 1.2849155755576063 8.153594967496515 8.603672876799271 0.1849952433298943 0.20175189396294288 0.41686426839319174
Ni 3.795048449826045 4.274623668952194 4.731787875363604 0.37570424921511425 0.5494120925566474 -1.1436433983105143
Ni 4.5360745381788234 6.853508542707221 2.8172942534157293 1.5709815696518366 0.48675739383990363 -1.7208084926107137
P 1.9958063715590038 0.5515405864926707 5.340333138941503 -2.687867754473164 0.32897367792779475 -3.146002342370053
P 6.109883613762496 5.834819323240145 11.828220462326634 -0.9214612615176775 0.2164444629781111 -0.07926736757276026
P 6.842784806979441 1.1323814587927394 9.741558811315096 -2.264765732700377 1.3726752110353329 0.07300904536787427
P 1.2759462917817905 1.056508448442298 9.72440833982745 0.36893479170176463 1.5778356164591922 -1.19284608528741
P 8.815267287882923 3.6056426957819356 13.007123044134417 0.32307788126865006 -1.1117311229829498 0.47251708187080554
P 2.6645715565212664 5.522892777534554 0.3039555169441564 -0.8180260384494622 -0.3724417764137586 -0.3164863440940614
P 5.178841935125621 5.739741162378098 5.952956799650519 0.9259555498436054 -0.9232042123507133 0.13337546227107352
P 4.0211851097094 2.4285743137421143 6.724606987556268 0.7256581289390018 1.9087265660143578 -0.5054354298653811
