# total energy = -340871.4262651825 ev
CRYSTAL
PRIMVEC
9.17936726624245 0.00000000000000 0.00000000000000

0.00000000000000 9.17936726624245 0.00000000000000

0.00000000000000 0.00000000000000 13.43493185880958

PRIMCOORD
 96 1
Ni 3.6016715723275605 7.726117283381786 5.865435695127747 -0.9441517611366579 -0.08906918415453047 0.0029863363218335668
Ni 3.808647942891885 6.425088859328035 0.3127823460526026 0.1968382587114094 0.7117798282950129 0.4230426292897618
Ni 8.79126350970663 3.1710949972849503 9.795489030047603 0.1721368993099874 0.403424340838202 0.5590182481878436
Ni 6.4068494567951575 4.843355387737603 4.182536418144845 -1.1436979056975336 -0.5936556357560551 -1.185725415082229
Ni 6.38961060528195 2.251102103749431 0.15451261553845363 1.4008033367301167 -0.8016254856042517 0.9042256143656814
Ni 3.4067201727335776 3.750257988432081 2.6191800395945846 -0.7765289476469401 0.5314166844204913 -0.838534442815459
Ni 1.348421496664343 5.121315804495556 11.410018544602034 -0.8362405045749597 0.7620659781440747 -0.7932678576681756
Ni 6.5680850408364195 3.829393312657513 10.653134743943689 0.896387092157869 -2.2494514709408095 -0.24041614330236014
Ni -0.09963744076150713 7.056051019319164 11.214352072306836 0.3728768070686481 0.4565050227132654 -0.6003595301387918
Ni 6.680982077450337 1.5708559215142064 5.474251456285232 0.7889568889976477 0.3880360313075898 -0.3159289289286946
Ni 4.701130273070064 8.044549529917019 2.06416979930025 1.0950472345693658 0.07526313150937361 0.5045838804983633
Ni 5.647991174262217 3.4984128712242213 2.089723321580584 -0.30822153298210786 0.6908268801924295 -0.27591125088517643
Ni 2.195557753107036 3.5997989814283624 8.784779204749798 -0.9456764253113004 1.2862123541553976 0.08011686005724912
Ni 2.6423359111745723 2.845144849051466 4.6539005931947965 -1.8637173482935194 -0.39785070340516643 -0.3385986026120685
Ni 1.1899213640346555 2.9921707727399873 12.019494559898295 0.8618525487161093 -0.9264913677424174 0.15696559088618772
Ni 0.793649919915985 7.675309486190304 2.462569020724971 -1.259732048476682 0.7321115978738295 0.7773002785953258
Ni 4.867754145630098 8.757648667192589 13.382830692312721 -0.3893215828882327 0.5037058487687841 -2.7502380891802702
Ni 4.816854554767087 3.6787507183107357 5.959883121700987 -0.7484489015812722 1.0393124029009067 0.6664407380385813
Ni 7.963596690995307 -0.08412063852618983 7.192054358930445 -0.4591326901440996 1.0023175708441125 1.4727055221870573
Ni 6.885608530023511 5.90153447439337 9.53864023980468 0.8713221787694413 1.053368366773341 -0.9798921519610607
Ni 6.220517482957779 6.6504423229325305 13.151159070296861 1.7697805516340424 3.2502618611117766 2.0554406543758663
Ni 1.4400499395849164 4.215284728399647 0.7591639554591323 -0.5768341933233421 -0.27136528338570687 -0.21555923215968037
Ni 8.558786857191457 6.131652029550238 13.32496671559078 0.25457443708061317 -1.5695515220735292 -0.11024710378372626
Ni -0.08238757400771615 1.9204429401664924 5.79467378961922 0.2183511930825207 -1.6193602180655402 0.19611500739213966
P 6.368782621211945 0.06988252213527604 1.307639404277294 -1.0448163634382717 -0.08459623598484141 -1.5019538775292132
P 2.97515222603845 2.618295148601042 0.48837629619448125 0.3260732164515481 0.19312378597429966 0.11009849402100394
P 4.005416857182149 0.22201400983425895 3.8087094446518095 0.34420129351082657 1.8694789333676447 0.32853144818405355
P 8.332285972692846 5.049560691461082 11.032698821907307 -0.18641063562018217 -0.4378429275273879 0.20427080373005463
P 8.9542523528741 1.9034794696678727 8.141312910822943 -0.356988675083482 -0.5387867516323173 -0.6204352178427445
P 5.19244672056363 7.490978614392264 11.244984538432888 1.0523445534945166 0.3486552155171221 1.5298197507015459
P 4.3978898791729355 5.997486399242974 3.1808407313912186 -0.9061544559572781 -0.6863904416876307 1.21477219593654
P 2.6904449744230923 3.5577391211336247 6.612257073513046 0.6441976103696647 0.07866033011638066 1.2153684347596423
Ni 6.092951817633473 6.032267021385437 1.966041446498685 0.9168281336210404 -0.5390438619484459 -0.4027391418457193
Ni 4.839077802644336 2.934781369299853 12.17974611578076 -0.1881096205891599 -0.47449451731215053 -0.9474898243709552
Ni 1.1457686080290497 1.3215167715390976 0.6328191459661677 2.134397946907376 0.19669967625101606 -1.2222528205843015
Ni 5.864642597805733 7.6552617483283 7.368522184825282 -0.32368980382103607 -0.4448628104886468 -0.30609214534393087
Ni 8.547009729134246 8.407409913472446 5.1389016360871445 0.3450574708635348 0.8500956652904974 -0.37530932776954073
Ni 3.0754551709185454 5.371536173717346 5.051977618832448 0.9975646295401595 -0.6714312492746372 -0.61693954598466
Ni 2.043932966474895 0.8642667914234956 2.6506046851059337 0.7490240573584519 -0.023291623538088918 1.3107311652323685
Ni 6.650084327613566 3.104920939479459 7.218777332586062 -1.2891390408838894 -2.2781377831319087 1.1254150482279457
Ni 1.8075826210211858 9.110889073971743 5.200447456974127 -1.0079421161197417 0.8289216023160433 -0.10080601297548446
Ni 6.471224358638675 8.577310820106076 9.343766864831498 0.049010368460431726 -1.8373411722928357 0.6631001037011225
Ni 7.755371926498183 4.165000155135883 1.3825623169162455 0.21159613374687433 0.48017382708511497 -0.05929015311988499
Ni 8.556473656668919 1.5005695072242013 12.076364411157572 -0.6237002617472613 -0.5462275241810787 0.3161832110313458
Ni 2.351001156474797 8.353123136130003 0.8482396163744752 1.2004578361963971 -0.282490703874907 -0.3491450106693471
Ni 1.35238698327441 6.843328364917103 4.684612919815078 -1.9989195793606864 -0.8834385024170011 0.4463067420240249
Ni 3.165807681804861 6.097018277282223 7.5971444210729375 -0.7435820604072743 -0.6421638677690876 -0.642526650425145
Ni 7.371141976210729 8.456051380015836 11.55811202869044 -2.2636786702837854 0.3090728252388097 1.8375836273209447
Ni 8.666699497441334 0.32870028663250306 9.98973178249738 0.10248828577391382 0.8366174282984042 -1.8408687258301202
Ni 4.573858347494654 6.9324691993392324 9.346225099355053 -0.6293870277193935 -0.22737036586199552 0.013914296088247007
Ni 2.2690844840020263 5.8743727269878425 2.151818986560027 0.04800301024183991 -0.4077677054085623 0.4545895508581074
Ni 4.391895752422071 1.4386730345119767 1.7857439886276436 -0.32633726874621216 -0.4816061886562673 -0.283390332871041
Ni 8.184085090008749 4.48401070180175 7.3931623600739 1.7866269337674197 2.059017315983531 0.5155627481073701
Ni 8.2664148340034 3.8134762900143278 4.998774924750767 -0.08002918543944926 2.0635252311562136 1.7974816170937367
Ni 4.818745504400591 2.449036797668117 4.036108989194695 0.39129284768199063 -1.6323232059841113 -0.6096898064007823
Ni 6.885938987241016 0.41236103886433095 3.2533494704689487 0.7054346028032753 0.2433317742872583 1.7334696330181498
P 1.0719389580180128 4.252268398658813 3.928468058212545 1.402883616297913 1.429670911694086 -0.14786542835713243
P 5.6043432834500235 0.9393062820252892 7.232897035140702 0.2171412319348196 -0.6675748516430244 0.6074691446003796
P 8.480771415758683 5.841914484735073 2.516537274027207 -0.1524191091660859 1.4382349992140133 -0.17223382989916788
P 3.5801459563539337 2.5402246309653496 10.455547948040099 -0.1230159734136204 -0.015933126290488688 -1.0438707116955508
P 2.337764509040268 8.43740808532823 7.432418841640131 -2.094518851324251 -0.15810150426284383 -1.1455758394465367
P 0.18201675333878564 0.6003306118017934 3.682863992731965 -0.3251010823462659 -0.8898978848890997 0.019329553566547353
P 5.178778642872914 4.70665625209613 0.3133808407909738 0.7675246872658007 -0.9031141264690575 -0.003166570653439708
P 8.49712904802521 6.2314501092369206 5.441134135470881 -0.23621650339871578 -0.5376305265406869 0.5572696409278531
Ni 2.972884922351676 7.663972967756433 3.4071259007617374 -0.3047770260769332 0.17698728542375328 0.744185498319228
Ni 0.45831754051548806 5.63112867680228 9.117145730623182 -0.21615032877646 -0.6118127662810561 0.3381764274729853
Ni 7.968828930272478 7.772720930417226 1.3605823222685482 -2.0995872669860933 -0.17946222932680705 1.0467752869368552
Ni 4.48507550839149 0.2002111769726134 10.655338709997109 0.6018217165066151 0.7810785146908354 0.16152261412925084
Ni 5.387838729780954 6.377163383422574 5.508120567269407 -0.522674419451487 -1.1589316919281525 0.011993424916450312
Ni 8.186930693826158 1.057160176901791 1.2905409970815265 0.7303277665005293 0.31133513891042514 1.0324989795234991
Ni 1.7038649515602 1.4948415821207712 7.20144576946461 0.7464277573861854 0.01994173322924953 0.8563820125198411
Ni 0.2125390670590019 8.528862120272898 13.242449712506208 0.40489064097108335 -0.5028342447971083 -1.4927007343620617
Ni 7.064688803810073 7.107547269047116 3.9799239187250244 0.3268329774357081 -0.2120352781668219 -0.8396757555087538
Ni 3.2828905098405166 4.521471699152868 12.485458513252173 -0.7221645139634466 -0.5609581455230338 0.4278593339521147
Ni 5.490106059231777 5.4095754711990995 11.708341551515337 -2.531738029224711 -1.7576410880580309 -2.6635500036634063
Ni 3.729255596386171 1.11957069417458 5.913331797058319 1.2398054847560842 -0.010474931389394863 0.37881374137837337
Ni 4.877796373295407 4.5205629418047275 9.00527311138353 -0.5774278610432829 -0.42594231943506 0.025639812055291325
Ni 3.1087946324179963 1.0842209512686365 12.25718509295633 -1.4436116901448945 0.0028112441965499973 0.8842944226593932
Ni 8.97390537794853 2.6545720075894312 3.2285348872444257 1.605791221131854 -1.2016528849457626 -2.200469127504836
Ni 5.5706458266316075 8.781937272679249 5.231911573764234 0.7581072506066429 -0.5682793617747954 -0.367887838494489
Ni 3.8747118482915415 9.120876225434133 8.432529251686447 1.9615054003782864 0.30538560619520955 0.41567539029141315
Ni 2.7133199573682 7.076897362123474 11.44586305539752 0.914086052099529 0.6246407712836597 0.2699632608318576
Ni 1.3476228917220379 7.943952845288031 9.567860919262612 1.3619758223399576 0.14572704185789095 -1.5271943972635569
Ni 6.341400568994748 1.584413846799088 9.238530928043417 0.15605130660203445 1.9596727180449218 0.5001466706626161
Ni 0.9940061308896146 4.970856797491837 6.2356753719374165 0.8013568053238973 -1.1284304380155017 -0.2718360523745383
Ni 1.6251885956924146 1.6161652777810818 10.004254459270035 0.2891686301157149 -0.32128479392396925 -0.47177814682225205
Ni 0.693111983236775 7.112375616169559 7.194123388286715 -0.7765055506081724 0.48743976461890887 -0.7601067975351748
Ni 3.9583450624219103 2.282725023591284 8.13599346755782 1.2502498200178596 0.3101642585307755 0.19909234485290875
P 8.404922304974 7.568048581008287 8.756941855921815 -0.3768679305059123 -0.07030501617314988 0.562787742532605
P 2.7569127719774773 5.531449928888586 9.647919687823627 -0.1847083082170948 0.8513071691000952 0.9156184295836554
P 8.965065647380255 2.8675792223732333 0.3176262980992051 -0.9947104479208159 0.412071989210871 -1.0226436839959743
P 1.2527724909307851 0.010876632139509863 11.373556262397155 -0.16543480469946348 -0.2913748937384143 1.0217224577332855
P 6.934011333020925 2.721544670337228 3.633355993929338 -0.6474904221883236 0.054194483764532474 -0.08400951024343596
P 6.410374333781884 1.359877346871203 11.583987746757842 -0.34938309482208213 0.23050094107117725 -1.1630272021537646
P 6.096357362847211 5.247449488544003 7.288208229857414 -0.3966903645484781 0.6431079768499118 0.33336357946537426
P 1.536167093043274 6.360108119252424 13.393511803931874 1.0223086692540588 0.3834466121646945 -0.02551948442734315
