# total energy = -381168.1655653262 ev
CRYSTAL
PRIMVEC
9.30052753955515 0.00000000000000 0.00000000000000
0.00000000000000 9.30052753955515 0.00000000000000
0.00000000000000 0.00000000000000 13.61226216586790
PRIMCOORD
 96 1
Ni 5.350630711150651 8.404421735519456 10.980113560012848 -0.10171078417794097 0.029460728463278293 0.4083883697116967
Ni 7.190033250098945 0.7279318314737894 4.956986811948872 0.7377438564589424 0.8995693465405927 0.17524973390735626
Ni 5.980648448509238 7.102450182004675 13.014166840401616 -0.5033901173005783 -0.7464673523748693 0.27192372699233813
Ni 4.869598124880744 2.8127771530090415 1.1762284208149285 -0.3871502862685268 1.1710611282018348 0.563125842598314
Ni 8.921112544479545 3.3009432439224984 3.5142229420787894 0.12021244252655426 -0.04305209399446779 0.5567927012914347
Ni 0.900592405535898 9.392509784190498 9.018028691986855 -0.5273813380088531 -0.7240059380475595 0.7111144267968721
Ni 7.111564699019901 3.2050920068215594 -0.02935060489454136 -0.17147072648089823 -0.3746421264991871 1.0016434275952233
Ni 8.441484337872188 1.7402589150887928 12.334955822585238 0.005206483901603936 -2.041749530042019 0.608871424264545
Ni 2.041335593473384 3.0026009206424753 9.428846945393039 1.9288246223158136 -0.17143910191201442 1.4297858400053955
Ni 9.116237612825916 2.6448933299051167 9.290191890272533 -0.9063796845942068 -0.17251973657070288 -0.3274690683578102
Ni 7.7525477583794595 5.686519264216867 3.563036761011865 0.82921470807643 0.9885495705257427 -1.5428529297364204
Ni 7.715057331758667 4.079332297550374 5.486327268452235 -0.931011624210274 -0.5197888703735757 -0.15513676520756509
Ni 6.146793072958218 6.558583231495106 8.538304689945562 1.1267664200495175 0.07812631198978158 -1.0053810402607848
Ni 5.026060900132936 1.6389203667235852 9.774856332557182 -0.09080519300903071 0.1281512377576567 -0.3685624959640104
Ni 7.140954366130221 1.5460173968612447 8.536698488834817 -0.5038899397551322 0.58984654642261 1.3263686146593092
Ni 6.454798644379894 1.0578234043650883 1.2661040689543546 -0.06019646698423826 -0.1712069312965503 0.7734634213477389
Ni 3.0322044998868267 2.246672641087835 13.482687426936236 0.38173014369422 -0.5485579720864682 -0.4542594212121983
Ni 1.806934397213442 2.747859470594472 1.9700070574071866 -0.33577090335528625 -1.0925013282190603 0.5006773463551055
Ni 3.516966597710924 6.252400563476476 12.302762976466358 -0.9347620923916418 1.0330548520269691 1.0568462980196123
Ni 1.0399663914372983 1.4864754193801453 11.018745161366057 0.7282472298224167 -0.49002140930315613 0.7670454336365371
Ni 3.754557874926195 3.8261347350784196 3.326986581214372 1.2112513272674754 0.12868628432552032 -2.7389470896474832
Ni 5.305365043484216 1.482569197802191 12.85521617402537 1.4825358780139177 -0.2066447032788699 0.04530489458438649
Ni 2.2989416060118866 8.091059060219443 4.831481772754723 -1.112677288946303 0.5605606529742991 0.6118958129131655
Ni 5.827924485338802 5.214508189686519 4.441817569298673 -2.576078503013299 -0.11602617235934855 0.6621667932535757
P 4.342388419242879 8.864035206803583 13.142353221693208 -0.29183203588049095 -1.2747562897996563 0.14560208624425247
Ni 3.540673642478078 0.941287793956126 11.359350942014029 -1.1594579967452676 -0.2544816202564908 -0.016321105757526728
P 4.389383985036693 7.004338916705062 9.521940576070493 0.48367489825983795 -0.15727900836154848 -0.9337403359953467
Ni 7.376722739942449 8.852409547345387 12.90886254708203 0.06879475017621055 1.4178271249816226 -0.13628235150522336
P 7.231346193549592 6.344894310125888 1.4606776160160289 -1.3418769947075535 1.2690859788877562 -0.5213338462631925
P 8.852604858424284 0.998551142183419 7.585977169767933 1.284435464760633 1.0316602856722876 -1.4727407463003668
P 6.0742303568839375 2.579054895261458 4.343958348296114 0.2761961291154469 -0.3272695507524945 0.9318922270430144
Ni 9.295226265844311 7.534152770061562 13.552082383321347 0.35223444822794825 -0.2879895222059492 0.48562302312514427
Ni 3.0583389823488525 4.450265238487376 0.6421828274156448 -0.17471854399423456 1.082611065688542 0.69023578357565
Ni 5.052102377319296 8.983379576537645 5.922055124839928 1.090641392192186 -1.3082760188236566 -0.0363307161102342
Ni 0.3611850579944941 7.464324409091851 3.1747741470600963 -0.09466878972949502 -0.961211287722106 -0.07987106259503018
Ni 3.994195268206109 5.065588142290805 10.482054497926844 0.6028154478784521 -1.3001413055316642 0.7642758413111999
Ni 1.7020709489005088 5.414571838170732 10.429061951958115 -0.588576935681567 -0.27201474404424764 0.7056827142583394
Ni 5.233295255370964 5.710561127976416 2.092204828998669 -0.3515690467298074 -0.5756872242030925 -0.40358040680009205
Ni 7.964209164739169 6.15905116829094 7.101326678274634 0.30385554270392834 0.1921935608505464 -1.0392558386313586
Ni 1.692575110255054 8.778126233671294 1.9190429565007228 -0.7366128281782927 -0.15172285443000968 0.1609932239883421
Ni 2.8647950036887964 4.9939740800283134 6.017586423792578 -0.6915640154687702 0.28063282473056184 -0.5848529498627605
Ni 7.609263830689079 3.7932666706582068 7.80233069228497 1.0153947157430447 0.40581880921230756 0.27754158739974777
Ni 7.247091986719774 3.0971035812462633 11.10470621745272 -2.0212416398966546 0.3408855988740323 -1.2031382112420375
Ni 1.2061668190516763 4.905209844933092 2.9669017756310017 1.6395315508070927 0.3696048211855957 0.8036862247880224
Ni 5.133733107770969 4.905479560232522 13.178207685515043 1.0567439681137931 -1.7539883217967922 -0.05938888348127837
Ni 1.1525771792131734 0.7579864863051191 -0.10185565769790836 -0.8433120667097606 0.614713999088251 1.1259413530450608
Ni 5.406508280770527 0.53096525866924 3.599272546463929 1.7609940636906638 3.338778515196947 -0.8475353607624888
Ni -0.11269449252397416 2.204076224833003 5.629949735346038 0.23496900414485988 -0.6103883751297037 1.1457108223625043
Ni 8.498543074493016 8.05627508712052 5.029907598334463 0.3304379211781471 -1.0269765070433732 0.9885745102264071
Ni 8.033721307771618 7.0577239449371 11.336319115548207 0.05875767765518267 0.9316777970393632 0.3427308796128871
Ni 4.291291320792214 6.80751185181401 6.933827897011965 2.161551881614348 -0.860968089228627 -0.48464806080638473
Ni 0.037654115905963674 3.8943448042515505 11.373698865890958 1.0192248881224124 0.3949476708257585 -0.27703559429760677
Ni 7.812461756963222 5.228710095280652 12.677222677456598 -0.12565315392615134 0.3524933583162897 0.47425437627688644
Ni 7.322472762646719 0.3090267693484844 10.447451885115468 0.6547123938580595 -0.14303535395834074 0.8532966887262982
Ni 8.383114226864475 7.6693266377139055 9.062594959980284 -0.8365258970258624 0.8338861454101703 -0.12123368470221701
Ni 0.2639638531830012 0.7985070248070958 3.6565526356408413 0.2522455318371204 -0.3894208274702583 -0.30373290108313494
P 0.08731893311137938 8.706084347140742 11.096035335602418 0.026116494581393732 0.574414785248572 0.35251392714158
Ni 1.9001070823752124 3.381085889963522 4.458138135072468 -0.6340093569827533 -1.9481549472133093 1.935650901209028
P 8.638943838637765 2.5937404282890517 1.560945673658326 -0.11496070720931169 -0.5305283682782669 -1.1923562901351852
Ni 3.1999395145496865 8.551500278456993 7.748535510787247 -0.728431577919081 1.559531933053998 0.725026408892274
P 2.502344143892494 1.0733087827634062 3.8777935853941052 -0.550157455363104 -0.19688710967147383 -1.3549757368730406
P 6.5260592865948555 7.09862766517482 5.30622348217861 0.10467192368879394 0.24928696342942874 0.7111769046036912
P 4.988756484063475 3.1584684621304078 11.58674419075257 -0.5154033397113704 1.1037547896456927 -0.8848644362302504
Ni 5.450769491459773 8.111306308731839 1.5853251465685423 0.9301194514133079 0.5287172832114572 -0.6890574469968326
Ni 2.1112197576084952 8.551109656299198 12.40772687047701 -0.01615681226552056 -1.2120591678807513 1.800195416480474
Ni 3.3306212273873825 1.1405608975971817 5.807017829421938 -0.5815431687632371 0.5561175296012809 0.5356114392281291
Ni 7.269301646548712 8.266597217510645 3.1683353918257686 -0.2887171444005931 -0.14275124705901865 -1.2430661577852269
Ni 1.131306872668457 6.7025739992805455 8.711712096371265 0.4595651496958279 1.2843493328047302 -1.8750314877547578
Ni 1.8307344472562617 2.9240114627050664 7.14016196118155 0.13395396048236285 0.5022318353264189 -1.1549292556369788
Ni 5.664821133404088 4.834972260750451 6.817865199101103 -0.07830757476265222 -0.01640672349279755 0.6247230465848209
Ni 0.6145407294350801 8.576351288114834 6.759250484218389 0.6816776095929938 -0.6328528747808069 0.20926568584148472
Ni 4.3494568201934625 3.342414296341777 5.4024895228090175 -0.1631454944446545 -0.9032773915197992 0.7884853486778678
Ni 3.360689833010062 7.1498084683735845 1.0897381647097295 0.06206077388648667 -0.04868101014547099 -0.5273800524572724
Ni 6.04972346674606 2.2483653371049486 6.76366079439045 -0.4512424887627454 -0.3744338671431229 -1.5459801625114922
Ni 5.762002345947044 3.79322946854794 9.314788995527808 -0.10755798698733733 0.8305539957131438 -0.6844171200113438
Ni 6.680727060026703 3.5600652424543497 2.60893935043832 -0.026886539978198856 0.39538861501791905 -0.9462392397933058
Ni 0.1859928803287685 5.480447474924657 4.952195180146582 1.548550751452146 0.4547319899732426 1.42144081047481
Ni 5.591839893589313 9.080272472726039 8.47507598333708 -1.0208171723101966 -1.144698579047906 0.10776007569581442
Ni 8.640664436237577 9.694869935379275 1.2261108703654016 0.39265990323284633 -0.2370022325248047 0.9259362665698957
Ni 3.3586437169454197 6.026881371042595 3.8732874797881083 0.015940582489656418 0.43926037670020485 -0.12151316361584881
Ni 2.8549271439406794 7.767633214092415 10.625173806279298 -0.6883681342392919 0.14331843241639833 -2.9170800586399053
Ni 8.914276656718126 5.053832275446676 1.386300367013514 -0.7641724829641162 -0.7848415812776934 -1.4912717152250188
Ni 2.4935179432318306 3.668955819203602 11.789703093468255 1.1004771473356854 0.03265275303801473 -0.3015623757943774
Ni 7.357768264761804 8.834710643386227 7.018114858136647 -0.1152476423221112 -0.8485139226256742 -0.01420303097325941
Ni 1.2382071365184661 5.446472647724024 12.946608738210903 -0.3264316282322314 0.44057009665056385 0.21666249252618813
Ni 0.8458783319145985 2.973694880965615 -0.3438079522891385 -0.649012772370121 1.3802049437534747 1.9495852519019328
Ni 3.2982832930384633 4.863794595679211 8.384635793174363 -0.5309811395449694 0.4965869783358158 -1.2192302317078936
Ni 4.072356901875456 8.370112089326428 3.461570795418995 -2.8193843091586284 -2.809965844058206 -0.8981655242145306
P 0.8487335938775316 4.62199017947629 8.421321724160649 -0.6627964564177746 -1.190908244834749 0.11050704231333228
Ni 8.279924873513522 5.2494595722816415 9.75028619883185 0.23360297703526867 -0.2903387391644161 -0.9175547273744198
P 4.271006870169552 3.046983038190086 7.698183384594663 -0.4393580786203336 0.08819115242495133 -0.011141361328800168
Ni 6.149880848110315 5.808523584834964 10.650288020867272 0.22766321451206598 0.0646763571324628 2.0139250516305833
P 1.4342250555112268 6.342606380344513 1.559869602618875 0.33614859840967914 1.5605560034431383 -1.9733484157598018
P 2.234237835731348 6.918960073644067 6.684505864376995 -1.9040816110431789 0.06674095297097539 -0.42642208728495595
P 2.8553084655709076 0.8073388057842985 9.17017230223714 1.29026004186221 1.3472709120296154 1.2180637222036184
Ni 3.4948499431576505 0.6491349717716464 1.4148446161680346 1.835044920059491 -0.17646020927568964 0.4901854456848461
