# total energy = -381162.7069058034 ev
CRYSTAL
PRIMVEC
9.27970830138277 0.00000000000000 0.00000000000000

0.00000000000000 9.27970830138277 0.00000000000000

0.00000000000000 0.00000000000000 13.58179110637231

PRIMCOORD
 96 1
Ni 8.718786908956204 4.9938749396573066 10.309978465033577 -2.4485173334311576 -0.7582167796013135 -0.6967098213357678
Ni 2.8618805521512454 0.6750226741346536 11.777585651913006 0.533503648856507 -1.374279322297659 -1.0192056048487028
Ni 0.2314284974358478 5.58249610717083 0.17129877255152662 0.5557732588879848 0.7083823725776897 1.2296164600382242
Ni 7.2664012273513645 4.018382739468296 5.837100675705432 1.7934501273368402 0.8747641145714549 0.9665805224538193
Ni 6.266178604948869 5.927756928512259 1.819919658442255 -0.27836074086693346 -0.41412064420978356 -0.6805720352336408
Ni 6.631529994429958 6.50600338231671 9.202288470543973 0.888601020454547 0.4897501579196403 0.6203817388969897
Ni 0.3420648898553782 7.801951743968483 4.377954726715029 0.2386099433315568 1.2184316470659984 -0.6584960292702078
Ni 4.6585990842827485 1.1918671550677415 10.013541900140188 0.4398812981136554 0.49383306973976243 -0.784938511866874
Ni 1.866037951994441 2.471269797092256 12.46554423920548 -3.2482021503692704 2.9368970933658325 -0.27729219039310304
Ni 6.279346510810384 8.53040883355893 0.4700329931822726 0.5241589744168135 -0.22402973152453676 -0.05095669355352515
Ni 4.3077147598038446 2.6073474373693806 6.910645984065759 -0.5098417864631929 2.800810659921499 -0.12335767302375529
Ni 8.761185895482813 1.4644493021967833 6.166445869602827 0.9459497335773449 2.6181021557432524 2.701667379360418
Ni 4.2004134944925795 8.435737251036613 10.734327455004973 1.1584982039351597 -2.1253474066693334 0.44170858113038125
Ni 8.77642317626125 6.695829092185018 2.332156764280035 0.699367313563273 -0.32823834242366695 0.02871125189176346
Ni 1.9222544239528987 7.252657979584695 0.14652473570974808 -1.536363722467651 1.2633840434069725 0.19344234565598298
Ni 3.448933448987816 4.427181722496678 11.506194091339308 0.6735912330404336 -0.8760974886708975 -2.204702448859893
Ni 6.045302991618528 8.77512401712058 8.86516131339396 1.4116425934374655 -0.7065070099318477 2.5346246067438862
Ni 8.555269171686481 3.79827734191421 7.917246549878133 1.4994997595617658 0.1605941887777105 0.9774277495809681
Ni 8.705405569807294 7.963826972896072 0.3821532290532218 0.0925597138062922 0.5103624348533533 0.11806274317340312
Ni 8.856766889403596 4.011126007696835 12.316470367667574 0.3178068626776978 -1.6662676812503563 -0.5309070917739244
Ni 8.366269355843313 1.5100497880343304 12.989991585023938 -1.6687562520001646 0.5776052671614117 -0.3303587312007794
Ni 6.614538848811613 3.4379462745409994 12.70197635527454 1.5061311488353544 -0.997218044834018 1.6615080550781836
Ni 1.9417325313548137 7.9268102170951 10.26540245897553 -0.4627474040785514 0.33992477762265977 0.14027141805995844
Ni 0.945036198048426 0.29887063234051636 13.084276203716495 1.5822165191357072 -1.9683684460467068 0.4733454913093719
P 4.194697194273628 4.857351873389094 1.553512229114659 -0.8643557747539373 -0.4194384568782712 2.198472923010414
Ni 4.391111496926766 6.050907935339708 9.469020689656737 -1.0769813782065902 -0.9524373981842177 0.7633445877461822
P 5.749707168283318 6.445230573657757 4.210096869944651 2.2022498735543423 -0.801600288793271 0.7515748488047638
Ni 8.426169871936388 8.58317325408646 9.402632729597642 0.06141594121363616 0.2006617462225576 -0.4735694343947198
P 6.53761934797575 2.1208865768533256 5.2789707732234525 -2.049638445871793 -1.1577317580827804 0.4550510638755582
P 2.4744341775706045 1.469209792476527 0.5547984872569723 0.8598532588978933 -0.91349624103433 1.969644998766285
P 0.44753712469074186 5.190372759683774 4.390884144077148 0.6190704762847338 0.0758035773938759 -0.39417376877421145
Ni 4.205415257184161 1.8735359561777414 4.66975886130111 0.19841923004528408 -0.9625541749032455 1.4399686940756684
Ni 5.157838102918116 5.071824488097558 13.380413962007529 0.6741527619708583 1.4284036149458883 -0.46976600148822967
Ni 4.366418193545872 3.4181897758946547 9.246456169443524 -0.3105740923746845 0.9487681768627465 -0.07707035992144146
Ni 1.738479083796858 4.539382673709902 9.558877959592051 1.2758302395901253 -1.2344395924584806 -2.726052493073002
Ni 8.425455334409019 3.67339102966315 0.9372635145039552 -0.036232757079789214 -0.4616598274413275 1.2342830122759583
Ni 6.406098044399121 8.253493062724935 6.340238099733626 0.879381558738808 -1.0102229417341182 2.4874914007015096
Ni 7.56142170878142 5.0682054019199745 3.519503773509057 0.17882536707375654 -1.2508175195958717 -0.018064570811194693
Ni 2.2773610156389825 6.577874721920251 4.878837181663346 -0.3519593401896906 -0.27631619963307896 0.18728043981964523
Ni 5.809004503346794 0.9526919572702365 3.1782480742041535 1.3681259011017535 1.6068358603462842 1.1346062278089104
Ni 1.0693286089780367 3.1703566103953933 5.341554980912827 0.4579880350166951 1.9404393237366062 1.750922281276959
Ni 6.667609499708018 7.998802192904561 2.7491311701864953 0.30549616363114485 0.36307679025909084 1.038780698767153
Ni 2.992910031196049 0.5896994696002802 8.38402607738384 -0.7129491660127657 1.0668936549532853 3.5438252778610773
Ni 7.3905730020750555 8.727686149069799 11.670914478784963 -0.02070637930941595 -0.9294836176015219 0.5287746188119539
Ni 5.034557180176599 0.6692460558127421 7.3907353969676395 1.8151728637259126 -0.24623840641109204 -1.447621582635236
Ni 4.434466293392582 6.768693360560357 6.051706918211221 -0.2688705419883112 -0.967911839670733 0.8312345667199361
Ni 6.737244429647975 2.464634805766687 7.738157462336655 -1.088947549429531 -0.9846355801833171 -0.8570584697615755
Ni 1.4455836555326127 7.954380230001766 7.317977845235997 1.725397654643293 0.9733209265014464 0.08169654583954317
Ni 7.820659635594144 0.07013417823830156 4.974425599350648 -1.3128178725580681 -1.3381512091165342 -2.3326824511470083
Ni 6.424722418651452 3.4233400139166 2.20596850897586 1.9553332101293035 0.6945012437202233 -0.7948771111368246
Ni 4.0070614955281645 9.132003033062865 2.5696476950487424 -1.2038995148880944 -0.708092866361729 0.007860633694999366
Ni 4.25341918743195 7.271208116171847 1.0299909981693378 0.2548973676376707 -2.435181021333567 0.2140363677572507
Ni 6.606678936010555 4.059631042184596 9.392623636389587 0.7066466208335056 -0.1402235955411585 -0.21156656606051955
Ni 1.3478126504889831 5.455670335916912 11.40984566555471 -0.057746977002481194 2.312286918209792 3.146378237652233
Ni 4.468513542586306 3.0019855857644497 2.832645759602892 -0.7781261169307307 1.1314041759318452 -1.7918023073207723
Ni 0.9021296114861413 1.2267495779947541 8.740982114903751 -1.6848850392412271 0.8762468697645682 -0.9066388517928643
P 5.247535761873292 2.8740369698246653 11.310277181042883 -1.1675834540658794 0.5858500236687072 -1.7577161642703405
Ni 0.9389023109628301 1.2507933018053126 4.351293197236019 -0.8704104655884494 -1.9553092988699037 -1.1187643756806473
P 2.2879120438028595 1.999786385526506 7.141971476741168 -1.9653584555757893 2.075487802834729 -1.9430901310958923
Ni 2.5737270547504485 2.3630405609662257 10.31693175034861 -1.2596955388117919 0.1910640752317935 -1.5175136796406834
P 5.426624849414769 7.55372883072702 12.354377047479906 0.24987600316367936 -0.7100502471984158 -0.5618346345907163
P 0.06653643538945805 2.7001074000132803 10.419338897582806 0.2192492794167579 0.7729810823946817 -0.4057090231073206
P 7.539530877261116 0.46894541138736817 7.654317155164276 0.6277510347778673 -1.113674619862566 0.1613485504452318
Ni 2.521101829845131 4.955605423256402 0.05933259795443814 -0.7978901869315356 -0.9461893603919769 0.490457211288994
Ni 3.89466567044384 3.097993446260026 13.280709993756746 1.1595369296123192 -1.8049151905536462 1.2416273684561712
Ni 5.501874002784056 1.0065421036510434 12.366329311574077 0.02731977086087553 -0.8328661887860882 -2.1959614694424694
Ni 3.1361052076224207 4.281787255239313 4.174118513485401 -1.2146297568214048 -0.9065797164201549 0.3292783536524071
Ni 8.098419859869573 6.427784722340177 5.258230625513457 -1.3127546234203002 -0.2514970837068701 0.4920196706801075
Ni 0.5818163575288523 5.658970182015605 7.059977831490171 1.124114584248967 -1.7763934289648697 -2.5459279475718475
Ni 3.4337425667501145 6.5121465491104535 12.358587251066494 1.7998092367856486 2.0678883932209158 -2.280784476726137
Ni 3.9563200513768204 8.03997625795568 8.30701749134976 0.6111795035724312 -2.183273589562156 -0.7954155001387978
Ni 0.6330895289570574 3.378203513486435 2.952518245541777 0.7846711171381002 0.8211005636097279 -0.5637182247666743
Ni 8.574942152959496 7.5069312625384255 7.164585197526174 -2.151544633889991 1.9683288510580232 0.8314199432578648
Ni 1.8289469585282878 7.865851814273193 2.3354844676217823 -0.13248997434232668 0.3291857939386008 0.9266044962815138
Ni 3.977125157043849 6.57203778549538 3.1807879303241657 -0.20638579319052844 0.27533403822546776 0.29103473679017616
Ni 5.600962726384651 1.733161811028255 0.7698251005418505 0.49771697817520094 -0.2112022407425653 2.4944043257712587
Ni 0.1574701514699001 1.1174531754317443 1.456701673864311 -0.14751730098909435 0.8064113370286693 1.7725298322444056
Ni 0.4488687628099295 0.6252574552804415 10.901532948292573 -0.3950168335007971 0.24306309400690398 0.7685330739256571
Ni 0.4518122862343638 6.5117382419519565 9.071413962625236 0.3763632229553518 1.38624215108649 0.602027404759518
Ni 3.915554293484198 9.058080877958695 13.553880474382348 -1.0243876632702744 1.7048457986338703 0.09335264202123278
Ni 5.289229490580679 4.2844412517695405 4.849201505723014 -0.5497782176468144 0.4306242982917616 -0.24745093866195447
Ni 2.6312519655577247 1.7917724476888062 2.8747895541554396 -1.4742972921542095 -0.40341894152156327 -1.2807968395667815
Ni 7.039846432634661 1.5395592599438541 10.570395842751866 1.1888423634446557 0.7673742777308655 -0.671618682695095
Ni 8.02730017662599 2.5861061854194123 3.9225029389451573 0.006836049085226937 -0.7421409570853735 -0.7472240280352357
Ni 2.19452106100492 5.2998825955341795 2.442780165108159 -1.7563563078083364 0.6956505268333181 -1.0500629565491915
Ni 7.473821263867615 6.200858739297567 12.843294246742644 -0.7509873517324099 0.40939804192313367 -0.5803108390180328
Ni 3.1482430658795453 0.17182585997431307 6.189385308143815 -0.14044882417808713 -0.7481370267678082 -1.2408084720993018
Ni 5.072130718466431 8.474841941170807 4.731692561449335 -1.4442634647962804 1.63120091945421 -2.4742869861960934
P 7.436386921199998 5.624867254572995 7.499973337369319 0.4631294700083185 -0.7047823139312571 -0.906911902948593
Ni 5.313783598339358 4.9056805934220495 7.434223821230781 0.11206744482191668 -0.18757791645540597 -0.07048062251906571
P 9.008749949445791 7.253493153317984 11.106835355409528 0.337545992977838 -0.35151145401899464 0.41773227282044184
Ni 2.9394496325574435 4.812039058504125 6.3952036670337815 0.08777926169851334 -0.47208179410559986 1.3879470495927386
P 2.6920247742166783 6.342550603004021 8.026430667972557 -0.6500391567521062 -1.6276322282663451 -0.05503934826333102
P 2.3188134719345306 8.880235271309001 4.367401842609523 0.4916463465010888 -0.8140943074952237 -1.7965130825328803
P 7.330728164230867 0.6661373535832796 1.8038110130687512 1.393930006649051 0.35924378966624576 -0.8639749943757506
Ni 5.994635785132364 5.132235388138753 11.241159130846748 -0.5755478704117507 1.239891359601671 -0.6225370946770955
