# total energy = -381175.2347431204 ev
CRYSTAL
PRIMVEC
9.09248320636754 0.00000000000000 0.00000000000000

0.00000000000000 9.09248320636754 0.00000000000000

0.00000000000000 0.00000000000000 13.30776825480987

PRIMCOORD
 96 1
Ni 1.125222065359208 4.539513129792717 6.811460983124521 0.6155874028321399 -0.5364604174919857 1.6011064140616749
Ni 0.9648215703812939 6.933272979679087 6.401489101819115 -1.0401580387306537 -0.2678014772938484 -0.16298351494549349
Ni 1.9037022863795037 2.3555441432715423 10.708641097361559 -1.0936097307918906 0.3766406449864546 2.1913771925058967
Ni 0.5686320750113525 0.7224659786694404 12.14027802586099 0.22381041642487906 -0.6363238640485428 -0.5088732519023365
Ni 4.090553590054355 3.111056751893776 0.27841728907208846 -0.26285133237742475 -1.576949357199497 -0.6313528931965127
Ni 1.952919897587227 8.964679191684395 7.885411445335893 -2.4895883924398543 0.5993359739702839 -0.0779537909676593
Ni 4.260664857020048 7.211612073396218 9.970752448799168 1.0764332190126042 0.5847935573797348 -0.9114642982059658
Ni 2.4076440716329417 5.2730492066785635 0.841812093797897 -0.4854854691060156 -0.31088391030561946 -0.19194570650579845
Ni 6.043591689922332 1.2400964972820563 2.4424810115149427 1.547445177092793 -2.6598342453747157 0.2675538800594166
Ni 8.506863573372907 8.999712529202103 1.2036465508919727 1.627465620781494 1.069128972041707 -1.834330667601286
Ni 2.472109777057431 1.1299592490723473 4.236367923587704 -0.0432032748603514 0.49861892116417994 1.3400018891720278
Ni 5.311564965236833 3.022150451803416 8.34587388548787 -0.40837191465146444 0.25079311566131 -0.37684710457030585
Ni 1.431338695052617 3.7683250802463903 2.6444932555584666 0.8097350020852636 1.6945089354842366 -1.7467748347674885
Ni 5.890956175541388 1.7390465092945853 11.888933605322245 0.9273598863902996 0.5640930916075899 0.827787231601284
Ni 3.673426833770313 5.820625818495065 5.449345180672428 -0.8569306859344596 1.4591005298091129 -1.4949838739692833
Ni 5.997238210902015 7.503062527793477 8.169638831131007 -0.2683313816553895 2.2098125163929487 -0.5668410866663722
Ni 7.869335025905563 0.8804015014695576 10.738064372785205 -0.34428511147388446 0.5809374168584381 -1.9772282104301817
Ni 5.1588658034739465 6.628001950917199 2.9836683354327445 -0.872351391364904 -0.6012344765445774 -0.41231727245245764
Ni 7.282633459160771 8.726856202815151 12.517473323962703 0.4088416551990314 -0.18676621918738803 0.7462804331750438
Ni 8.345026466059723 8.909942443213954 7.958258601713879 1.1776128132774235 -2.3259785567642712 -0.9115751127522171
Ni 8.854596498373493 2.5435857869787153 6.908595071203403 -0.9323141450717815 -0.605980475869995 -1.204856993705357
Ni 8.529003769805719 2.720107254554319 12.175916013507152 -0.15721498789283245 0.9394322441738013 0.026204940530141965
Ni 2.658496588834102 8.806870054399848 10.83002120096723 -1.351029607741099 0.9884878640498717 0.05203938509474264
Ni 4.057902483117918 5.022342169207557 9.03440398935395 -0.018686006445277497 -0.9056590043780982 0.7793892999138706
P 4.077151269913918 2.120148847399244 6.82401042834693 0.732120596734894 -0.9589685144345161 0.24934918412593185
Ni 0.8958632690399869 0.09984364805300014 5.773654959869908 -1.3150922704145416 0.44277173228757294 -0.5646538492070663
P 7.85332316310549 6.3418160442548865 7.780906081179771 0.8335534446611 1.4957917145825592 -1.3273003824449592
Ni 3.9552392560448704 2.1474990366681954 2.360917800804106 -0.6780533825768451 0.5175913485016247 1.5558537128714625
P 3.515281274609786 7.492178825481331 1.5145703764186578 -0.37318816766147983 0.18604605319191184 -0.3484320437627225
P 3.308481838195882 1.4823929878535347 12.403132620799857 -0.9556937003379864 -0.27428014303965664 -0.8112792066439317
P 0.6291880126879528 8.830601435381219 9.79204242053306 -0.2884016700427033 -0.7822280549142464 0.8520736149524745
Ni 1.7261624606928223 4.456816995683306 9.22591623387361 0.012048703634417958 0.15382241727151574 -0.13769825801614352
Ni 5.656315555769262 7.795331305672853 0.4964732196066575 0.5479550483951466 -3.147636792649682 1.533676662553791
Ni 4.8806903744532395 8.777101264617087 11.675530298407667 0.43462853435514825 -0.2736386528009158 -0.4358022429482753
Ni 2.3263118099937246 6.788557018108401 8.25385068217896 -1.994721996339571 -0.8470229399024445 1.718695302922453
Ni 5.357463820100419 4.47682045857948 4.367476074899111 0.08264168336163187 -0.7219783660945696 -0.06874075700982354
Ni 7.017051119281519 6.090054278740264 4.441201565147901 -0.44315636932050134 0.27623958075887267 -0.9979754918253328
Ni 5.491923460695248 6.32888653323745 11.907058561202808 1.7971214055408404 1.6056647228563186 -1.5444547270059015
Ni 7.501816857604034 7.592696226534608 10.507241686681308 -0.3528911079753406 0.044730767248471345 -0.7742576351142602
Ni 6.7029240119465054 3.9913000441567914 12.993385711457032 -1.2499070919664603 -1.1261609252550349 0.906764064516819
Ni 3.11072942250093 3.681209999333551 4.475429308659883 -0.1672266064925636 -1.3486035147981097 -0.6367581233724839
Ni 8.103320986891994 4.314292322548064 8.289555044952005 0.3226510781438766 -1.0464145611633269 -0.18688963213912976
Ni 6.4951607723203315 5.683783947318964 9.312775816010365 -0.877386125575334 -1.599950960300993 2.1059306927056185
Ni 0.7038845801355214 4.914759908758677 11.821263708841116 1.1777087154253394 -1.0460294099097664 0.36865119902307475
Ni 3.893019393954633 0.37544499509829526 8.61905572277104 2.5725753749560467 0.25997683904310714 1.4452965340464852
Ni 0.06929290472066121 7.041109829655736 3.9576505825721724 0.5050834458426011 -0.012594805945875082 0.3229423841320503
Ni 4.103037569398194 8.87710039413169 3.131703962595882 -0.6638004722022568 0.27244720359597596 -0.7342325008715741
Ni 9.05080319193556 4.650850585776197 0.8748569052540636 0.32901944356406565 -0.789987387144691 -0.4060311823334298
Ni 2.575336738084825 7.877663740456879 4.719107856667824 -0.19980454042858495 -0.905926399106872 0.8090174071929485
Ni 4.656242428275029 1.6947297464964246 4.846981811728245 1.3975277513026385 0.29123913949149843 -1.0346227107347215
Ni 7.027471104953799 5.480585134226371 1.5880558251126946 -0.6107812396927481 1.0108837152465686 0.9442756883090319
Ni 8.616818971919924 0.4699313520883746 3.4138018888408665 -0.13556552794385687 0.019521614972695413 2.8910550953310534
Ni 0.4933544978914812 2.882398986024235 4.407905801157219 -0.6580368302456022 -1.5153372408146548 1.365869758077725
Ni 3.4099721349445624 7.193663511688469 12.663885033637994 -0.5276047668735688 -0.2560574493840429 0.6307952209208297
Ni 3.8719066481160347 9.02524422184413 6.379198879414582 -2.0545073439283197 0.02020527130328133 -0.8768397661535607
Ni 0.3040862782094474 6.235652211175009 9.80920902869123 -2.104824604125633 0.782439399594104 -1.3422400344739271
P 5.982508388223923 8.481641025157458 3.9850244122972738 -0.01712508971606083 0.3948098596963136 1.2182161886210825
Ni 5.339715293021631 7.402626959088413 5.746054727314754 0.5915699568716198 0.051102732213086186 -0.5433298909183093
P 4.0724686410995865 6.535649599718815 7.458684845358315 2.899400381971955 0.2349682328139115 -1.2186103387357077
Ni 2.847065596563083 2.4924132918970474 8.663037882189847 -0.2062963188005157 0.3929918326509684 -1.7241347287704694
P 3.9914273389206762 4.400516340113709 2.4275229675101717 -0.19081750643862622 0.06399218658124464 0.018515542305684238
P 5.721890544136176 0.4028488300177407 9.780624080212599 1.2029690326540248 0.1115856200894917 -0.05667868363896691
P 8.51357382592626 4.86724259189713 3.448242396458198 0.44011424006006783 -0.6156982173783911 -0.7754431707819289
Ni 8.121287733566012 4.57180053740377 5.725853957534559 0.4375125407711626 0.628784361138388 -0.07715469210513164
Ni 2.661142501426278 6.117704519952657 3.053520427866185 0.24568947588615753 0.17348878535219153 0.13054519191113
Ni 3.5233553996333327 4.16914901427005 6.816411840191324 -0.3473534659865631 -0.9896947398737793 1.3264830287499865
Ni 6.707506623446356 3.259900700807582 10.127690526199416 0.4768473338150433 0.7216595493025701 1.7554091134037186
Ni 0.8542933453967964 7.393316256358557 12.23687838517987 -1.2783735748372693 -0.00416133046654122 0.40765766219325916
Ni 1.908730429552951 2.158119056969437 6.447107908202154 1.0674706105026777 0.07566113827874067 -0.4818836106873701
Ni 7.33463337020769 1.6380744840845785 8.504369505249079 -2.3198323346572174 1.540414752608573 0.5710193864137779
Ni 4.619190559501433 0.5394115619616091 0.5916860659991933 -1.2219777125460438 2.169130722402871 0.3902574644389408
Ni 1.3349583738255955 5.091872387738031 4.702565902101001 -0.6880295199529506 1.4123825569272836 -0.46142637127428277
Ni 7.687303513550377 7.923871739747042 5.668656783127888 0.18307565770967824 0.6872862140290228 0.8881387361061478
Ni 7.197900608829204 7.842012114086017 2.5027923613952217 0.26231731425082566 -1.518250814917024 -0.15407309982974107
Ni 1.8094859761385227 1.5618340130007504 2.190551944310643 -1.12963859939099 0.4168203025291338 -1.3356227862677257
Ni 6.544269273730439 3.0366620548862775 6.251456765359613 -0.734568029834122 -1.7099828627501195 -0.2042378936095902
Ni 2.288232490625916 6.434677574508808 10.707164478100495 0.6477323629958006 -0.36069209207699815 -0.351804045558749
Ni 6.018260031909267 0.5969178807948563 6.894142569260917 0.5596288851886491 0.05479149391858305 -0.5555786263786754
Ni 4.17835060720229 2.2778306899199054 10.462567589295956 1.0511739302251832 0.3103090116387559 0.14332023218861123
Ni 4.690648384456448 5.163193825446029 0.25233368270379064 0.6679080666127271 1.6729034413993191 2.3577077695467525
Ni 2.110128930984888 0.038462112907775854 0.30076206637542857 0.6584574627227886 -0.5957698538855803 0.999765236735904
Ni 8.64148687866416 2.2196024279257687 2.05522488082477 -0.6155454938506109 1.2539984884270146 -2.1288392218726755
Ni 7.655688949691287 5.305945810659635 11.481822219210994 -0.5531011113724603 1.1074934307525184 -0.5137740316380636
Ni 1.5035693810740756 2.7293815873516363 0.08677593129191756 0.5455760066400088 0.39451006906770764 0.0010896335197529622
Ni 0.6329359342360451 6.85813269905455 1.6627923994860554 -0.4888947518978806 -0.8399763174683081 -1.3752224029372189
Ni 1.5494682359376608 8.551316723418088 2.7383531404605703 0.787997610408172 -0.5979020697372348 -0.08804974175108062
Ni 0.4405135321546099 1.7630506647699944 8.953000806346282 1.3921780569549507 0.08135253223656312 0.17008053100159096
Ni 5.874116896776062 5.192717118184155 6.894235312588889 0.25271141572994543 0.5879308174571358 0.1646912416652196
P 9.081481230031782 3.595376958542695 10.105745818153999 -0.7671035405679821 -0.08290290744281852 1.4374369287927502
Ni 7.1714960378062536 2.766151589148058 3.841753246296679 1.2834270781007768 -0.0838120495206492 2.6190773751723277
P 4.9236068948486675 4.546414324491898 11.07342060974294 1.161490453794264 -1.646664305197132 -1.1447458873460736
Ni 2.9810797054843166 4.65583326653397 11.906793060695279 0.7629890041789763 -1.2146009604659986 0.08032769051647455
P 6.954276615720071 1.7647327741499002 0.4242461705784529 0.7507994040913198 -0.015735151347069678 1.1006090449278594
P 8.10042048477205 6.682847809185255 13.41915396371222 -0.1041060238829949 0.5060100714219284 -0.6719282435157137
P 7.883737519190809 1.0152939442615956 5.586002474440897 0.18518447652256495 1.149113163175834 0.06891533491447487
Ni 5.965359965032021 3.4081809157670415 2.191975827169525 -0.7353288192595464 2.1539853821209998 -2.2801764108284925
