# total energy = -381170.7302213845 ev
CRYSTAL
PRIMVEC
9.19739218578821 0.00000000000000 0.00000000000000
0.00000000000000 9.19739218578821 0.00000000000000
0.00000000000000 0.00000000000000 13.46131315054743
PRIMCOORD
 96 1
Ni 1.5894564936260072 4.45446249236159 0.35772888237770867 -1.0255346323905241 2.3444820148850978 -0.6920607525995308
Ni 3.3580413935908955 3.4348396166823756 1.1086214392414546 0.45104219982648125 -1.2760647241984346 1.362566147625789
Ni 4.8956062016262285 1.6772731923179172 6.674885828993604 -0.184776699561185 -0.841373712036467 -0.6180145242163937
Ni 4.099250016431525 7.6234422962676405 12.850802105821883 -0.9852747564292129 0.1439442389258553 -0.3958113043776344
Ni 4.299716372180255 4.84114844367118 8.095135143017112 -3.7913633769202 -0.9095205442160336 1.4895498474379059
Ni 8.699868264858589 1.703099469017423 4.678196410359041 2.6138989162951822 1.2950155542693245 0.9281954949177175
Ni 2.909962850768056 4.758187967948409 3.4193346532706848 0.6498033865922164 0.2240806393671302 0.07230122066757225
Ni 5.795948100625994 0.07347520536657533 12.862849769585658 -1.4748459655688277 0.39344948901367727 0.37710267222453764
Ni 0.7879194175250248 8.253739569136995 8.784865962906483 1.7867683444412907 1.0286160995293254 0.19373339453384053
Ni 6.466842661725981 2.44176961166964 4.786519614225175 -0.24262394958695635 1.1794259552267623 -0.00562685926847418
Ni 5.36912473068512 0.5635545584372652 4.038192209986604 -0.9614208326297508 -0.02441416717830634 -0.8018234605476707
Ni 7.96433443287394 3.5184623046282115 8.30977651929621 -0.21086542622843685 0.005451252922558354 -1.0292236512063373
Ni 1.4845694354062184 2.276096989807745 12.835657680176082 0.767599249257478 -0.6204642713084668 0.40799164849391023
Ni 9.2267316674421 5.8260235724234954 5.82343082762236 0.1289660203494682 2.8748607449593777 -1.7956959859482233
Ni 2.007248024635644 7.498679673963936 6.5325193984267775 -1.6927595568932978 1.3172442837605378 0.25789064593803973
Ni 0.6982016179094012 5.731952647180423 2.4932906423632377 1.1541628097845993 0.23485124762007295 0.3850864617609626
Ni 1.8167884313687739 4.191214738909574 11.397909408158101 -0.7760877463444634 -0.6835126059192035 -1.7086970540591604
Ni 2.1325165034986324 9.19987528284005 11.713307293915626 -0.4986281771355606 -0.4206628162036755 -0.1865846993042012
Ni 8.147730429094791 4.2705790343654275 3.5453058128814803 -0.23707165231015945 -0.5736519389406185 -0.8015146710580003
Ni 0.8230828865697368 3.226399122080914 2.2192589468064603 -0.7033769489432984 -0.030760421111308313 0.22739684822455672
Ni 6.194728622398494 6.646522911584083 11.153600004546526 -0.36202906572086685 -0.4250953980537324 1.4097507757313912
Ni 6.307700188174859 5.600089638262753 9.000879590070042 1.1855942888210034 -0.660289887945837 0.39923729934004787
Ni 2.2172796680508573 6.224049908053061 12.010465831623724 2.1322719017033083 0.8127668469330518 3.0738682434079645
Ni 7.532231759932526 2.400712453839656 10.309117546040627 -1.7380863058545553 -0.20117545263418257 0.18791961606554086
P 4.51198298184831 8.897327073427569 11.068308909694247 -0.05328148503195985 -0.09303022568480752 0.2431487117421748
Ni 8.074969861085606 4.064640230384431 5.7983394225426155 -1.654158813801964 -3.2616870722295825 0.2326043605674252
P 0.6667226240946827 0.3811288870710431 7.061104552790256 0.2578150555050979 0.3758430887858237 -1.1624217073592822
Ni 8.856729785196935 8.498960434294483 1.7120365748111943 -1.7006728982031032 -1.8938126250170029 -0.569937723313825
P 1.1334865884783187 6.726540221871015 0.420267468932538 -0.2919099403062779 0.44764165878536455 1.2665285025732251
P 2.3382621622479016 6.193864067551716 8.494869434338664 0.949872722780835 1.6891967792427038 0.15015499572225752
P 0.1876240373172765 2.921735512511421 10.857074247407132 2.2739954788287613 0.5831920172205698 0.14173591842062686
Ni 7.449225297249819 7.830411208151181 12.733782767832038 0.06474063471149497 0.86802422474446 1.7422831175447222
Ni 3.0243232227344583 8.765905539325274 4.565578944174176 0.39132961445719705 0.9199512526310544 1.2305880799228741
Ni 2.1118591610958224 5.239745017603941 6.5069966356628415 1.3777935060985045 -1.3973544589495674 0.7363078953433642
Ni 0.11326312310235273 5.90121225191725 8.092160706448514 0.1474782202210428 -0.3675587372898444 1.271249305087662
Ni 0.9186520669674921 6.651866596328532 10.394623859865401 0.41068539327598946 0.21436161230715342 -2.448964448270905
Ni 3.9616294401299914 6.619887264389721 5.526232741128718 -1.6347027619598813 -1.1492471176505368 -1.8940815624076734
Ni -0.28479908235596263 6.400501873323725 12.186190283188216 0.8290558139010624 -1.5060876971919288 0.8941672016884149
Ni 8.584873272845083 4.957035582707426 10.128924081709652 -0.926550760225443 -1.159806638333938 1.466430487811623
Ni 4.537662100276024 7.290009244562801 3.342834425679584 1.3602832651288832 0.4305772471039101 -0.6710643528535217
Ni 3.803563061441348 1.157795295499969 0.027819351543089666 -1.3549790793071503 0.005750786440848161 -1.5080432782564028
Ni 6.899800692122188 0.008285930441091507 10.903784122352329 0.24102755163411388 0.918698868281192 -1.4975128110387241
Ni 3.2411977257880022 7.3780282858784245 10.195934440248562 -0.4078895756984072 0.25671539468301596 -0.6491233298060562
Ni 0.9879930446359094 1.7784904911348913 8.948273267121978 0.9679825450076683 0.7652451472030046 0.3509717794654407
Ni 7.564137512735441 1.1479172965059272 2.946977754819752 -0.9247828696917428 -1.2470349126249878 -1.358041520282558
Ni 7.319118990201666 8.939819024407525 5.032619750056621 0.015380339110812222 -0.6595743499360511 -0.04362724977164745
Ni 3.687648330229142 3.190087818516224 12.180401444671595 -1.1750707635818602 -0.3267370752877921 0.4520719266425763
Ni 5.762487988577274 1.8096604525788462 8.873656665409817 0.21099500982776567 -0.30537737866509346 -1.0709788807662524
Ni 3.5262249034652426 3.457226068778742 5.739889996465208 0.8130576387005932 1.4514941782167647 -0.0064902357100339834
Ni 1.059567149078771 4.0502831014927185 4.700179096947179 0.11906084542061429 -1.2491982388248937 -0.6195181053451136
Ni 5.165678419932601 1.7782145693752813 11.08430041514205 0.456540246826575 -0.6473682947881625 1.3601973902832962
Ni 8.240228600308086 0.7133018960736636 8.517174949385545 -1.676416853869216 -1.0841616980051134 2.3142694958574594
Ni 4.273853305912801 2.65015492191918 3.5677051413266287 0.918325029881541 0.543013131008839 -0.15141149383717797
Ni 5.48005447544037 2.8858472889781326 13.53898500463984 1.2005776496037128 0.3861938358925285 0.0743223648626591
Ni 5.442648682229226 7.961087753502528 9.290392335819346 0.18985539963567302 0.194186165800543 1.4341420600915624
Ni 3.221524504327802 6.337012276437439 1.6686377609813194 0.11100892165041526 -0.957210908313461 -2.2704931221024576
P 5.91475081292212 3.8296652599004637 11.101396527367491 0.06176021192693234 0.7244494533428814 0.4625609990993582
Ni 5.7094282342042515 6.671530620396746 0.8268372619788317 0.739116825547069 0.5602536632568417 0.5938710942009707
P 5.0106103910317215 8.552158149547312 5.704836896124339 -1.0225125577347485 -0.2515485057700958 -0.31749704474676294
Ni 7.145389452959156 1.3932945173271953 0.5931674014178205 -0.7956972930452749 -0.4675790211392399 0.2546525986167163
P 9.150853183549321 1.426846603295784 1.0558854330663734 2.1176780630495333 -1.4317144244866762 0.7172542211460229
P 9.107938152537963 8.649328595890005 11.255434448365827 0.6106804524488256 -2.244890333932689 -1.410255740392268
P 5.013893859971081 4.712136626269481 1.6945100246407603 0.17629617289399963 0.06996820165902144 1.0081730011836252
Ni 3.222950100085787 0.9620012148806373 2.277747921669412 -2.5911904189540733 -0.39357187352415446 0.9737204759327102
Ni 8.60753564670106 3.2685875591252986 0.3130681863672168 -0.4101084377265969 1.5254144225449988 -0.296294956747851
Ni 6.3715944703085725 6.563038184518052 5.430670918644552 0.12398167976099937 0.5722005512060726 -0.2900718586562746
Ni 2.046787612787772 7.924334975122462 2.760390263579411 -0.664670533512036 -1.0419004753430574 -0.5877055888202073
Ni 0.8632138670266295 0.6693714729869398 3.009209148482215 0.6908366503844425 1.9748717943828633 0.3900692596875347
Ni 2.2656211603345477 1.6181891461934064 5.778161264262328 -1.0189688062475482 -1.6108192704740645 -0.04774178616065326
Ni 0.4288348395684318 8.156403569738535 4.771698936777317 -0.3358673197238345 0.687614543902719 -0.057694526497990964
Ni 8.099122212443477 5.803122066375857 1.0677233962928458 -0.23230945503482572 0.6007765630715524 0.0894803035500201
Ni 1.712913086267556 -0.1111173715517848 0.5440689637735995 -0.06582461180429308 -0.19211565642475947 0.40130780871583144
Ni 3.5194924125307563 8.47560825603948 7.875514298716248 0.5543498961778969 0.8185078631818871 0.11164552679314967
Ni 4.511835823576518 5.10739454691096 13.056841161375537 -0.0808236563162866 1.0179997574660598 -0.3274292162588103
Ni 5.073768881806474 6.728609635068089 7.357563168968142 0.8406342627672811 0.05860906789246035 0.8739925265127528
Ni 5.887857638752121 4.200366143936643 6.777421114082316 0.43375487350094327 -1.0259069281282784 -1.1974905260379571
Ni 5.158807968118309 9.668758326337493 1.6659723567834859 3.5635124718773596 -1.4191005923774076 0.13083752634056822
Ni 3.7431269986947475 3.1795200151231566 9.939281216851226 -0.5880873976396581 0.14654105311875407 -1.5970641256715012
Ni 3.1011490380018993 0.887215381155914 9.740834608382844 0.7754287726042258 -0.08309496884896657 -0.568216369747344
Ni 7.347115851410106 4.741421122356101 12.624368753276245 -1.803065024718785 -0.08314330558839875 -1.4336576642559762
Ni 8.341960953076333 7.735429741101395 7.1777063291838905 -0.2822821874085268 1.3073547925609676 -1.2359850825687293
Ni 1.5727540297776088 4.256920907264727 8.816958422766733 0.6355926423094731 -1.6086634004733265 0.9288889214403164
Ni 7.761633110872368 6.4978746622901316 3.6435597120002416 0.6232932561168297 0.9492597717871846 -0.5603063708716479
Ni 6.5154324835933215 3.2107451609190334 2.292097692647535 -0.5822016282828425 0.05717156411498541 -0.3126181193879068
Ni 7.854453190805209 7.44550955088707 9.744966996602605 0.7561904931999042 -0.20126672679640822 -1.0468233665659714
Ni 4.332100389366494 5.280185950170796 10.644937320966095 -0.2634938510574301 0.1364067928982296 -0.27333654817946473
Ni 5.419167740486406 4.909365500038786 3.935401237400653 0.18653173457907876 -0.579887121217053 -0.20395610070311324
Ni 0.7301524379330528 3.0991807961166806 6.899568917844115 0.03270571776313722 -0.5479334511285918 -0.11438940808687395
P 3.2883251623294085 2.7526874477902954 7.883577652271254 -0.44175897475234244 -0.45192511665206686 -0.502297655567348
Ni 7.677918449006662 1.5291675891511987 6.629050626026373 -0.971924560374552 1.2415664333112488 -0.11830699797372529
P 2.154305125115844 2.4223539171850756 3.55906327181564 0.8091971273039226 -0.20622972722863836 1.7150286527041432
Ni 6.2266803621613445 -0.4865227215893156 7.345205553094405 0.7764312457268112 2.035860161140777 0.2863977522387971
P 6.585130320070834 7.818187874200454 2.4709989234043372 0.10519385763053497 1.141313207515441 -0.08688863156344391
P 7.404949052224383 5.6949699340006825 7.0433085190346025 -0.6746065616788253 -0.07522507918258657 1.4794904063193746
P 1.6697313308885744 6.362001590466129 4.510293420940298 1.2000600865373463 -0.0019900338468352824 -0.7007166285023158
Ni 8.713682747623068 1.2237038064788366 12.175757681457359 -0.4796403231791482 0.36032545276619876 0.6923726274129948
