# total energy = -340863.88889158296 ev
CRYSTAL
PRIMVEC
9.32366989599588 0.00000000000000 0.00000000000000

0.00000000000000 9.32366989599588 0.00000000000000

0.00000000000000 0.00000000000000 13.64613334378570

PRIMCOORD
 96 1
Ni 8.730218473237617 3.107653824828198 0.40049358616829733 0.9284793447067236 -0.1270430922951425 -0.741794115268916
Ni 7.150387844988776 0.5118210039458368 1.3703585298105558 0.4316437406952115 1.0078706394518577 -0.1306467504860008
Ni 8.50250647903472 0.9910222157728408 5.793193404954868 0.34406553926391065 0.02701946601163734 -0.4969698155965312
Ni 3.3492301164302556 1.7941538322263197 6.731528493509876 0.3847429623786148 -0.43698366485088613 0.5101657454615148
Ni 5.322361119385757 0.7970013033802118 6.973788210128315 1.9706834673331284 -1.825251331007837 -1.1978353109718853
Ni 5.679522948887881 -0.19908552997650542 3.120871059524265 1.2045050096825773 1.1609466654756524 0.35516319183896894
Ni 0.7534513728343202 6.2571709282860075 3.5001104073932163 -0.485368483912177 1.8135114168630897 1.6989690281381191
Ni 1.0831400760981333 6.500546688212234 8.965905934821308 -1.5013589242576917 3.302975132345092 -0.43125036191153476
Ni 3.9424765958611983 1.2073500088161035 10.785753937035931 -0.14094170465410563 -0.38379036865735844 0.8043989345843308
Ni 5.1188906673737264 2.18048010171807 8.83640388696967 2.0608736524659794 1.5857785254553527 -0.4880498873990821
Ni 4.643057165177239 6.210431370208004 6.558536186600816 1.2444113589592118 -0.044827440727335695 0.7561760950222008
Ni 6.997647481846171 4.570565630356475 12.006005108132614 -0.1931348417178932 -0.6244901046384084 -0.1786559313754278
Ni 0.5951708849340944 4.547405633894124 2.003552273671024 0.3470397914008862 -0.1338410890535824 -0.7939893092152326
Ni 8.793983052869669 8.73498286864513 3.0086178013084353 -1.002684467265228 -1.081867245543982 0.4504706435937274
Ni 2.2825369943416183 6.320432029734096 1.7074586184157226 0.2523396342128235 -0.4490359680297299 0.19328319437029937
Ni 2.0574822461096436 3.6091740380769313 6.676861951135457 -1.2266018415816164 0.34110002887768354 0.6694643553562535
Ni 6.45788157395631 7.274728309087775 4.262820184610432 0.015736694008966445 -1.059453396625156 1.6739259691265622
Ni 8.521778505076458 2.885396177618247 2.8280108530504218 -0.481903408181712 -0.21813110665191468 -0.891542105360742
Ni 5.989106090005392 9.048351419812445 11.749088582158773 -0.17492526068840195 -1.035527739047494 1.1361020956281465
Ni 3.3855644587063356 6.754551432022147 4.4098022491157 -0.34326155530537655 0.012879169955513302 -0.4610440482341996
Ni 0.522074243925566 3.944742247689037 4.801241619275709 0.9140194605276516 0.586983365942202 -0.155166590004236
Ni 5.846370024851556 6.3014024191142655 12.84155792253236 -2.0430402238289846 1.1621054616704438 0.14557688943327185
Ni 5.152026990814627 5.079414248282909 2.4048169273543922 0.8805920341071415 0.7366529373876088 0.6826687698616695
Ni 5.4208097516908955 8.47251223240856 0.5117762503294845 0.3125535846985585 -0.4372423178289115 -1.1773083946631273
P 1.7058493529610521 7.077113121881845 11.337235036373032 -1.3440806872270914 0.4112847174228852 -1.8516876708224947
P 7.427011812396782 1.2596651215980081 3.727277899263825 0.047173058141376824 -0.42540290199182224 0.06708548079458769
P 1.4353883314715696 0.9183740432948434 6.226498850845511 -0.3755571821142887 -0.1686142308687096 -0.09644722178615649
P 2.270854435739635 1.6509236125585927 1.1972664596317106 -1.0682483692089668 0.1932708530751252 1.1488547673081246
P 1.5379487022790814 1.5312263361561527 10.725833506575146 1.1532374697568526 -0.7018484281139138 -0.28578737234830776
P 8.623565011267878 7.4026490624949615 5.220942898162239 0.0213560970782729 0.48863507047859067 -0.6745643955869802
P 4.055442182470636 4.060122664847488 7.576073987695428 0.7365945733458475 -0.3894028297481294 -0.18141755328096498
P 8.058569252159367 0.6247064069926431 12.900863923135308 0.08392132140500386 -1.2618848331536268 -0.15803876934570849
Ni 3.114152422869365 3.636613599102978 11.222497952449649 -0.12979442978803452 -1.035584046206726 0.12641677156505324
Ni 4.185843032117351 0.8000771821374297 1.537837750605208 0.5385432681629434 0.8174485686794373 -0.19785667267359475
Ni 2.151101217316755 9.030123644818929 9.208233714231282 -1.660711527318817 0.09362800716980649 0.5443449624463852
Ni 6.5742036817921745 0.7882650245214264 9.829010194287983 0.8445431109033843 -0.2597228140507721 -0.9802875876272666
Ni 6.8215140304893795 7.145175913417741 1.954262691827941 0.3842536814470221 0.2965178713919345 -0.5106920502786302
Ni 4.4569753578521185 7.4335663524583895 2.327443518883191 -1.537523547103707 -0.6451908275208695 -0.10350849950831206
Ni 3.051954219809646 2.588474580460426 9.060131876950198 -2.3220242001022138 0.6046270471658941 -0.3777701306052075
Ni 9.386884556507894 0.9488232850205863 8.749996774564341 -1.809287094369097 -3.886023424898946 -1.6697538400267435
Ni 0.2670466935085995 0.5701405602550175 0.7717528048214171 0.6276314784808674 0.41569390223417435 0.35914865884927827
Ni 4.622489148995296 1.911016712926443 13.16293737102675 -0.2964006290877798 0.2028870360086506 -0.053076310999689236
Ni 0.7340870424588546 2.820167781784669 9.22698361474891 1.267275665151895 4.305401460852927 1.3745516021224389
Ni 7.44895973174959 8.318550468486338 6.8875312088111675 2.1730007468812382 1.4672897504881246 -1.4075134017604405
Ni 5.035788796009422 1.8599043535840083 4.305668975166803 1.493832019753027 1.1128726927865606 0.6329973707784712
Ni 8.398631470746857 8.786244406708738 10.97902429398765 -1.5030612516607793 -0.9310910712979578 0.04038097492020788
Ni 2.5772209106818202 2.2965038521115866 4.600002321512245 -1.4640149363915946 1.8877463642182652 0.8501779405916583
Ni 6.9166061415680895 2.3554667416558326 12.734476504106253 -1.0230275496979544 -0.15093738241423682 -0.10392013312443392
Ni 4.355748271865104 -0.2414308423489124 8.817544899512184 1.5836072288356469 0.5657895054734063 -0.7809653861517388
Ni 1.0134269949592454 7.955943615661342 7.1038636636894665 -1.6160535222898105 0.8251083992175402 0.12074646065315332
Ni 2.871895503351949 3.7366565789906687 0.6302344109791681 -0.6889952263003295 1.0148861515377425 -0.43586626341699125
Ni 3.320056352770555 6.706264144711956 12.613162503313083 0.8280931928774771 -0.11310797027128908 0.40590494116821063
Ni 2.35149485820456 5.865884466315204 6.460898713592065 -1.435646412551231 1.3197572799903787 0.03197115358995784
Ni 6.1806235969833105 7.555100391865292 8.332847384176905 -1.5699158473914834 -1.1273526315702906 1.306859598092104
Ni 2.500524400657948 8.509984062433595 0.6356262893826211 -0.4605606808398778 0.5759571900350274 0.041198328615180656
Ni 4.5323012883752 5.714402798632508 10.52545385119245 -0.8562187474690997 -1.262445333642787 0.38321444154923034
P 6.094025349341477 7.019828492950814 10.396320088308713 1.066809322769595 1.046848820487268 1.5803072179281366
P 4.672958175102665 9.222042069610003 5.070644404211858 0.7424847135780375 -1.1852358770403202 0.4585693614414619
P 8.16388942930861 3.7953584057728595 10.377571120158093 -0.2766237035711687 0.842279511680188 0.2962738737019285
P 6.065653421308089 4.881920268787934 4.761913446539057 -0.48084488501021055 0.7921334869534165 0.41476804798579536
P 5.456789794504185 2.9794720086589552 11.01466775231129 -0.5792425456545185 -0.24242057532689862 -0.039057628123094025
P 8.901969799659906 6.641884202855059 1.593103804965347 -0.2224978682610426 -0.4373919560328983 -0.36269780965311726
P 3.7959830916677775 9.220438398357377 12.776847922754865 1.3151346936167028 -0.006744774923001288 -1.2012985869301376
P 7.203681943128388 1.6235493172230604 7.757103298207768 0.3718537651207725 -0.3467176321747771 -0.301409652266597
Ni 8.592377334872321 1.8799875389221339 10.899767504161622 0.19345674383368616 -1.1789875821377631 1.5327952883901022
Ni 2.788402037844561 5.1777603202172395 8.846161107701494 2.2230920071106746 -2.3037002049820456 -0.6604392690395078
Ni 1.380639740800505 4.931466251558036 10.46751283588825 -1.407868471107014 -0.8116551019261118 2.637842314484657
Ni 3.9512874640805706 4.2874150938970805 5.014995147011702 0.38459820927063443 0.2468809250910974 0.3598711388375996
Ni 4.7243129498670084 4.240162733965039 12.730232369488837 0.6660273046502466 0.28607816411584924 0.8965143617643528
Ni 3.18713811220402 8.588144388658993 6.481913333570523 0.6205182644748539 -0.6270972032439524 0.45339861587379987
Ni 6.203242820581403 5.0952644874077055 8.460780258355188 -0.8793825871800726 -0.4758047514831419 0.2647112684042989
Ni 1.383930996336419 8.401167509006825 4.749099926757169 -0.937033919144954 0.47987017980176716 0.6479221104091034
Ni 0.9389029000624779 6.743624090696111 13.335315248077974 -0.5789191008768287 -0.8034586821582486 0.42577031263357
Ni 0.9286216890725285 1.2355820817983896 3.121593643954954 0.37552941420014685 0.2725222798082855 -0.378912985960399
Ni 8.985696356919128 2.9177586364430534 7.217453936193823 -0.8063840833351595 0.4606645534075937 -1.2948201504290668
Ni 8.645475635940391 5.909444652898176 11.173017235370061 0.4615430993578051 1.1397463772489533 -0.3702838495304913
Ni 0.9114101941170133 9.054533013071117 12.181671443618725 1.3427252016404618 0.23130698191224033 0.3631405536174907
Ni 7.3663613385692495 5.887002579031477 6.455739926940447 0.1295432330091769 -0.3523151808672126 -0.7359703094982873
Ni 7.882519713833237 5.228154756964021 3.6007370490275026 -0.1364245335100425 0.9780895515346832 -0.6850406125279557
Ni 3.2163584942140875 0.5461554189911698 3.569105565936451 0.5223185787739649 -1.2346442522701186 -0.007408633759245306
Ni 7.806914073207953 7.144327459441059 13.18560414534222 1.254861093537626 1.235942659366568 0.5409387649783135
Ni 7.59938782471399 3.3461346579658833 4.900258063088318 -0.9110138409321085 -1.7896405237827633 1.2570825266689771
Ni 5.581503205406119 3.19525902883796 6.37614189078973 1.1398852168196627 0.048939148902864105 0.646847389287686
Ni 7.352422451809502 4.912958766462316 1.2073360233109935 -0.12527828708523586 -0.5184899490564941 -0.5625175195903538
Ni 8.689091764543804 4.937200308653183 8.798371704373222 -0.474873240807808 0.736393770188951 -1.0426316970821268
Ni 1.600398644430783 2.298816122289792 12.857373664077887 -0.06048468764861841 -2.131598015564735 -0.7761391684076892
Ni 3.878506895487531 3.2154634218870397 2.71395626177641 -0.8308414450465754 -1.206066440632426 0.04836167913283929
Ni 3.805828887265299 8.026906068590067 10.752307135381587 0.11692323025232121 0.09184828956156439 0.5660263040745607
P 5.7376653554656665 3.039395236220763 1.437033026872519 0.07429408272788494 -0.2868566941530866 -1.0081604027781346
P 2.4125462498452497 4.744629226956969 3.6075190866389013 -0.6983509564836167 -0.28091616029893557 -0.6175620100600074
P 2.1739535326666832 8.271400668925102 2.807282469743216 -0.6773136761973433 -1.7450437110089947 -0.9036306610941598
P 8.646286795236778 8.096945478181524 9.010323899051034 0.3254669503261169 -0.5755776952084216 -1.8372362712838552
P 3.3893498687561396 7.141278619327054 8.53728003894051 0.12277608948867244 1.448413739519228 -0.9350734529844735
P 0.13869611891102773 5.157052448984195 6.797016087371494 0.8949027943028587 -0.6997815182825561 -0.5076424648190289
P 4.043088319623368 5.776032257817749 0.6612290874042054 1.5882804659416 -0.647677341388149 0.722553007651117
P 1.1298796341761386 4.28123350063841 12.647891309602521 -0.17005224886681683 1.4293322974077447 0.6174257415924593
