# total energy = -340884.5180191096 ev
CRYSTAL
PRIMVEC
9.13049528652752 0.00000000000000 0.00000000000000

0.00000000000000 9.13049528652752 0.00000000000000

0.00000000000000 0.00000000000000 13.36340277644476

PRIMCOORD
 96 1
Ni 7.198637469993447 2.119087452164665 11.34014325859651 -0.6245448691357437 1.1324824965976883 0.09736973360042586
Ni 4.55469264371698 0.548155658182517 6.012836346114242 -1.0071939250998072 1.8410993537836875 -0.05925364345499473
Ni 2.8567127510716657 1.7885544029645177 4.311635214835801 -0.335648518844809 -0.05148325548095649 0.3153470882832956
Ni 3.352827326949106 4.667627736271237 4.602743699710617 0.6923564294630785 -3.8525759438737777 0.7415591164399744
Ni 4.041220996860023 2.8167850964722834 2.1737179428494318 0.13551307743936664 0.6475382447071235 0.18752649439218028
Ni 5.497051031826349 4.742324315799603 2.5819834611627384 -1.7381932637460646 0.39548451716583505 -0.8153700888838538
Ni 5.619490969667126 2.8108502747275774 0.13147912788271388 -0.7694481295407587 1.6456536045444305 0.8447351723095322
Ni 5.983441630537463 8.267279734335162 12.371089361314855 0.43118094212618 0.4336476584991176 0.250759177099581
Ni 2.5814557185522093 6.911812100319309 0.2942603317460047 -0.6186495866972312 -0.9130177587360147 -0.9365348680213483
Ni 1.1505793263986241 8.95405730663252 0.10829040975189941 -0.25972538515393334 0.49526003199427604 -0.7137204969611515
Ni 8.418343773975407 9.120634057263928 6.911604838082995 -1.288996087548122 -0.4043903042958971 -1.1303513091872985
Ni 9.108919632189377 2.90294957771042 1.2006162650529888 -1.2997600109328453 -0.7183651948220143 -0.30913813125910633
Ni 7.019935422012858 0.9503475712272412 4.973591536497802 -1.2568205312568421 0.6882709465397953 0.5170521881687031
Ni 1.1237721931025375 7.78454133362079 2.2532299454365035 -1.353721038530333 -1.0067588944449177 0.6187804558481408
Ni 7.500619461354063 4.512162798044919 3.6302747652171083 1.9617645675769437 0.050836365925576964 0.2964775050723023
Ni 8.064774485910808 4.181912794189519 12.560957091620981 0.7616959963991656 0.3538131055689777 0.48820286803717855
Ni 8.847276167702775 7.409542773810308 9.1831030778992 -1.1725631666686578 -0.01738734223851199 0.9698802762510136
Ni 7.216168020377808 1.285655869308129 0.14693888200292296 2.109706871918599 -1.5518710740746307 0.21038283016506348
Ni 2.442480454281182 6.761432847803455 9.19492980806215 -1.246637677186569 -0.27347975862554835 -1.0824729974487808
Ni 0.24146141835660404 5.349693973152799 1.2508102482212131 0.35246739017436074 -1.1268546088879496 1.6539420698054677
Ni 6.595139142516797 2.102040818014872 7.0632660120957045 0.1125235585227288 0.3535678223273911 0.043581484135376554
Ni 3.714486233576488 4.422455684749942 0.027852574972654073 -0.27456604971119164 0.4863532164229495 0.67891907301125
Ni 6.055718628892988 6.106255918672907 5.0633662154557175 -0.7287815050593319 -2.5754169581699 1.0134267933833965
Ni 5.962824972845854 2.9003382561427493 9.329820088873822 0.1925458019836426 -0.27411199289290855 0.11752615394364276
P 1.0270985121287755 5.5747150222270685 12.415536610935204 -0.4170445027247979 0.6911374694543129 -0.024938929333524793
P 4.651539804095588 6.5785672941065805 12.622014537730514 -1.2615158798499821 -0.8848775488563728 0.023151755526114964
P 2.912563988936844 8.838346543600741 1.5821997378515968 0.6114474125218373 -0.02448332985334493 -2.0348607733419857
P 6.270878743376055 8.495606022596483 6.283779219750047 2.5316058745222207 -1.103587153719577 -1.1193320752586593
P 5.169576698448473 1.1941317875097732 12.12803558463167 0.1657525930501984 -0.5380840691383378 1.453748007247948
P 4.202593365346071 6.067597402877392 8.138939670630648 -0.17685873026568896 1.0251895903462795 -0.6711448283824699
P 4.834405357792463 1.3915604807186566 3.5432392347567485 0.2714442162527583 -1.0529644464667027 1.8169615801952193
P 0.032697215615332405 6.064812601904876 3.6467790479643862 1.4283858743340756 -0.7120773049307736 -2.1773356268111663
Ni 0.5026136622126428 0.15917557139100724 4.521747991687369 0.07649186171015214 -0.8421193319532401 0.6354422327745379
Ni 2.046874367274083 6.504071585468035 4.436208949356174 -2.3986009082166886 1.1723888458743228 1.277251545417684
Ni 6.186010792426761 5.811203973011109 9.013721439206298 -0.3814336954997237 0.5863349337249257 0.9835490319873577
Ni 0.23896148882783408 2.5272114478055974 10.165754340407625 0.17587219798270357 0.9563735000138305 0.16287681416430014
Ni 2.3937966549846106 5.512225914502812 6.76023766600902 0.1503537419966249 -0.2892578473954115 0.5062800372538636
Ni 0.6421824086581404 0.3653512788020879 9.147796366815196 1.0760537241859984 -0.960085915868411 0.04763842781356957
Ni 1.8505778554441896 0.9638059208452356 11.292155203018318 0.03519300296136519 2.421818226873416 1.1692112194772897
Ni 4.575181474478703 7.2581135143703905 1.584498796490546 -0.42881424166621634 0.39258534124116906 0.5981432392137634
Ni 5.358632727749825 8.099899500144474 8.053948457998965 -0.4281020460905401 -0.5612913604927366 1.620331580839874
Ni 5.537727387015063 3.370357877333468 4.583112222428628 -0.6068063142054001 -0.7308417300224704 0.8118103965570536
Ni 1.0867297749205813 7.7006594761306175 7.011443148620932 -0.039235805572171135 -0.730263231811181 -0.27904465430783554
Ni 5.209787398392602 4.5200058932429235 6.940817856809434 1.138748017891426 0.08499424275420846 -0.6750912146247278
Ni 1.0392238094779591 7.713140862784483 11.245276502581635 0.5002335739494674 -1.2710567294608819 0.31263688844098414
Ni 5.079166537039122 0.6912606453383601 10.013852121327131 -0.5467119200166649 -0.9208809635341754 0.5563648697253966
Ni 7.9429371607394925 7.223088935581634 4.76266340644346 0.9100324508554457 1.544874073931507 1.7018962290872433
Ni 7.6298433569737885 6.744879260383222 7.200014348638218 -0.24034980884079896 -0.2587064569711157 -0.6419491806551202
Ni 2.60813502491841 5.617884002548559 2.321129784492933 0.3334265714928258 -1.3083598367867144 -0.5746379570029716
Ni 2.8540375160390523 5.465550824104448 11.09651517377834 0.053119505532798844 -0.4146608329839698 1.2878812572173886
Ni 1.0975220200009541 3.4811655645546216 3.2971121334593065 -0.28492888100275443 0.5413467990500097 0.42142411984973227
Ni 1.393605711596832 1.208384490192059 2.068480770622809 1.3756800592999274 0.363037195270407 0.773963500912609
Ni 1.1717803357697119 3.7743092367631226 7.986664014304986 -0.7760628066437989 -0.37035404064679445 -0.09236868084140866
Ni 3.4398044222415183 2.935052398101783 6.589493757463334 1.2753008494492166 0.10674011907173228 0.5532589771065634
Ni 3.9815258206032746 7.19004567420611 5.953730086784468 -0.43633214730981623 -0.019667139411624193 0.8561830091351577
Ni 8.725548408471363 7.049792140636224 0.03412613808155773 0.07092696602786494 1.5285239147082579 -1.2536609025819379
P 0.45175132681101465 5.823091877490503 8.013243798275775 0.20848921268677642 -0.5940551851873188 -0.4687316466864443
P 8.848298783141864 1.7288135742328097 7.905053823968786 -0.3623095730757631 3.7394178370908433 -0.25098363440556126
P 2.335608010401518 3.5106661938733055 10.37499789413597 -1.5403525319120699 0.894645426876414 0.3754610228560566
P 4.194083744013662 6.268577858638107 3.8238704766284113 1.731533849448018 2.7439903084983452 -1.968424753205939
P 7.261637885437247 4.250638029993213 10.470627046482663 0.18945662153535758 0.34919463296035985 0.23842225280078294
P 6.641649884005307 8.17223128146995 9.943748180779666 0.3726500357698227 -1.8094084504383097 0.6982529974531716
P 2.275976747609712 8.867363256684857 5.57538520055947 1.0029210087560663 0.13081721462559404 1.6049512417290617
P 7.183279977417145 4.0892474005171815 1.3620781123899566 0.13138928507898018 0.25104251266795474 -0.6652778280787317
Ni 3.348873822617633 1.6307155360403183 0.18718519087752122 -0.3724672303350553 -0.40941372565241746 0.32865151870168563
Ni 1.4943242018519862 1.618818501065931 6.7101514226817 -0.015576257171702206 -1.2705479081452635 -0.7122904493828441
Ni 7.511293009999541 0.9162908249076216 9.347285812743742 -0.9807529572994594 -0.2996764716255742 -0.5559532361092747
Ni 2.5570681664289636 2.07087843860767 8.954949355993225 0.8621803643691731 -2.0715275326354003 -0.46267232786624185
Ni 6.654816057783562 2.1118104476561568 2.6733486723482356 2.761100742926387 2.73391852608464 0.4717807179254133
Ni 4.490286132044434 7.2711062087438005 10.397823218566108 0.4079466541885878 0.29146333968716254 0.11023321982665532
Ni 7.544217574940171 6.441929436553468 11.211453496933808 -0.8137605783048888 0.5450041932969388 0.16279942395914543
Ni 7.684955024744625 4.1912258990812115 8.293274253576975 1.4942390253834588 -0.24013717860936062 -1.1944540532044783
Ni 3.463680666645219 8.727374507469733 12.315925649722562 1.0381620913465475 -0.7724825454917084 -0.6130589799833313
Ni 0.1841273881047489 5.116355043140949 10.264709732079853 1.0374285556146325 -0.32696924590325627 -0.1342951458718655
Ni 8.591202305161207 2.573658275829165 5.551865958509951 1.344625246876652 -0.2340549769710227 -0.4802951831543276
Ni 4.195900712517042 2.840560905431074 11.195898785665683 -0.21017765613279288 0.36651461229604615 0.21401965558670238
Ni 1.5476006401294609 3.2609928083210273 12.62345715593923 0.059627738964961825 0.9279918635473438 -1.7927890967140736
Ni 3.0305847672015633 8.860451471976022 7.7895274969358415 -0.02165768747909173 0.80079013418715 0.32863583497240173
Ni 5.4342149652924014 8.192400544906958 4.30384416345925 0.17604291923261295 1.6103909246873942 -1.391477174233184
Ni 3.1199266606968656 8.445570910041116 3.6984421277768 0.9598730285266565 0.4401890591620613 -0.7960762736512483
Ni 4.02988092208014 4.075688615454276 8.930187453575314 -1.3745824553603747 0.37896646490615377 0.5894981619442556
Ni 5.665718665810889 4.657447234355319 11.987973791456612 0.2594945000900499 0.8438082896198887 -0.8591536617277075
Ni 7.650085664370731 8.905601769710747 3.227568805304343 0.24902908178235178 -0.20845784522820876 -2.3162402464305853
Ni 5.543926993114533 0.6409214872997652 1.604236187514439 -2.3529730830752444 -2.889281291260082 -1.0646573094235987
Ni 6.498785028867751 6.1802037976119415 0.49663592714147525 0.1512086337977525 -0.42471307501364913 -0.41698331046955933
Ni 8.137809315350657 9.03204999485295 11.55108417134384 0.896480937423256 -0.6222720139411669 -0.09700746516500067
Ni 0.10553847856135427 5.042279337272029 5.670679263739963 -0.08007212286224275 0.2730485846254007 0.2533580481750088
Ni 6.599823086447619 6.869519647517036 2.812689156418937 0.7817336317763312 -0.5064651566814762 -1.1864725776608984
P 8.802874570557385 1.6150202151493191 3.291753445948587 -0.8709969342195387 1.9309954047148874 -0.4430108448815725
P 2.156842048955986 3.405610718497021 1.3004417928979393 0.15584613256976387 0.656174837336199 1.0144426362424206
P 4.648307608868471 1.5671946823819818 8.139007236293589 -0.7769639783018297 0.6277698038309447 -1.9111994530348828
P 0.17926357342258772 1.616042830588407 12.48513289596112 -2.0428461055403075 -0.014495108292381487 0.4217282813537124
P 7.4520543584923855 8.405908039796499 1.1131406447340215 -0.7518180751638214 -0.8542546817641933 -0.006424929689737322
P 1.7105617147440912 3.4660911173230686 5.434602098280056 -0.7020803416190617 0.14402368601353907 0.842235288705814
P 7.202170971555294 4.148148223709639 5.896788667817262 -1.6561704449153543 0.5795356514149052 0.43717058405071163
P 2.495884719488543 8.803760228571594 9.91416081175856 2.1223227609103965 -1.89149966061311 -0.32797840389406097
