# total energy = -340867.85557269753 ev
CRYSTAL
PRIMVEC
9.33720813638546 0.00000000000000 0.00000000000000
0.00000000000000 9.33720813638546 0.00000000000000
0.00000000000000 0.00000000000000 13.66594792706005
PRIMCOORD
 96 1
Ni 4.477387324048438 0.5114016840854315 3.2398823273636324 2.321211731503247 -1.6946012380877267 -1.3166999812212934
Ni 6.588268614173956 3.173726341143325 0.08721325773332562 -0.2780876897112049 -0.9784998995992246 0.36116568927930703
Ni 5.27165692375352 3.484758077295396 11.437331906704149 -0.006160877395073261 -0.682636116851521 0.164907985661716
Ni 4.3944168936366435 7.029461030040232 10.744714623205137 0.32693890688595306 -0.5178710845255726 1.1774246085260174
Ni 1.6376622507714564 5.852020425067445 2.797801943015231 0.2281442679135426 0.5663240378206376 -0.6243870034016409
Ni 4.007651063283573 6.680118729407001 2.9860783391289463 -0.19364006348908586 0.2508180553619745 0.5560987605482036
Ni 6.1506336745609875 9.01805290680729 6.888225487900704 0.15197276565728665 -0.39175513203038986 -0.11330620232502421
Ni 3.380806940476297 0.6329179766203386 5.596834530046697 0.06539163803193254 -1.5045686894442412 -0.44850092146186626
Ni 6.962597283452469 5.877193537873005 5.286289262432152 1.2281028516071752 1.0207061006536293 0.3908426475184495
Ni 7.931500684642111 5.097153843181154 0.5029748538528583 0.7102343381847639 0.2587817902937414 1.2663976334223157
Ni 2.1784173156902846 7.606323078348934 5.8660803928948235 -0.06788920764280566 0.09958319631197689 0.6725571353489643
Ni 0.5083792298513218 8.087348023602642 9.980009425234567 -0.6487662035769537 -0.1535305970627098 -0.7010472723688571
Ni 4.806262464715132 4.264545667370871 2.1465372863683183 -0.48287888472110385 -0.3056200908035188 1.1677955700766856
Ni 0.3938994572757135 7.833049163343217 12.42233265450981 -1.1994203960708183 -0.03377246846475474 -0.15259780083579527
Ni 3.950684757190577 2.479644983427728 4.15477651623829 1.5094419583761425 1.2050387706988601 -0.19637751702490694
Ni 1.9857627027388363 6.30886200156507 10.807510148261231 -0.48316916226801304 -0.053857669250404014 -0.6597584409223992
Ni 6.227357512811462 5.607731051798956 9.683239340602974 -0.47690466941553994 -0.5236897480898787 0.5116364164697704
Ni 7.542559284821795 2.5317746157695074 6.859116741917273 -0.5075715023717775 0.7743381106432085 0.05804213964539681
Ni 7.658620780434964 1.364773009356295 1.5996402060179262 -1.175040938785189 1.0694043371902806 0.4237193436418122
Ni 9.020312511146662 0.5168396740327451 8.476591015241807 -0.05782668120048105 -0.15193856998524155 -2.271335158387778
Ni 9.179483896160152 5.475936360682312 6.59418840405479 -0.6144206362175484 0.9302544343292753 1.004148196294948
Ni 8.826360026281277 0.2564361471738128 0.08901253771761021 1.4589375218686873 -0.5323772485615477 -0.13137231579811567
Ni 6.012741786611248 6.670473393528608 7.69763163551717 -1.2884474141335034 0.28961574495546255 -0.7712299040315298
Ni 1.110343428184676 3.301730125806311 7.33788955259802 -0.5116420728967254 -0.8028704137549463 -1.0493096233229346
P 1.5258211731805853 4.857561085543672 5.189274737446603 -0.7234703772590637 1.308163147394876 0.22011085608610476
P 7.7776795198206035 8.443179683805557 5.371386708829521 -0.9424777158683447 -1.573354183649071 -0.36681568847623275
P 0.12310735278048102 7.523119217736791 1.067229803901149 0.2105872328663857 0.2970922558381658 -0.3498224963523459
P 0.9347292198586529 7.716222016672907 7.757420579592777 -0.2844339436442069 -0.23668264440185688 0.31833316749481305
P 7.994265396911758 2.13078821761122 12.448161239317947 0.3546248028369957 -0.2776572870420057 0.33350010504323857
P 0.28205371108083527 5.074184311466882 11.241117016336988 1.032680499406686 -1.658651816576311 2.260543981309546
P 7.579394570436755 4.931091598653383 7.997667875512035 -1.1311797186258647 -0.8505258108493804 -0.7551756787821445
P 3.118991627765658 2.5783766209670396 13.176228166762652 -0.053449378068391826 -0.5628504774497403 -0.45622065870362716
Ni 2.2875506029571153 0.9234648121106459 3.492442599490862 -1.209029122805176 2.270390277976006 -0.8459214793081495
Ni 4.095486179070627 5.159899881034774 12.492056387912239 0.14208893088467142 1.1369940113147967 0.16985375970276553
Ni 5.385907001011985 7.9429481016671915 4.71591377253073 0.29942938861177465 0.012545954985810652 0.5794898857786343
Ni 8.73868364303046 4.114263304386643 4.811629491881541 0.16377258650569212 -1.1902459286604017 -1.2359724841632391
Ni 7.5698332694304895 4.120808687204409 11.149554487110775 0.3246290278058538 -2.2880020775204986 0.25290322002577736
Ni 6.38685570010544 3.4426566063605795 4.408743905613219 -0.5131831921316 -0.028453627355002606 -0.6805301262521118
Ni 1.6659820026777108 3.6902046652259304 9.540321233579334 -2.004758554639967 -0.8635219659987323 0.10901297426630904
Ni 8.436176777795108 1.3413833032813969 10.502909880989154 -0.9595943209439731 -0.4887134891250099 1.4210358617269074
Ni 8.601968243290475 3.151064937293513 9.154531141463721 -0.2985654979495826 1.1149789404962862 -1.1774816870161977
Ni 2.051562007613011 5.635275815440053 7.3142337360947245 0.7533499384273155 -0.08345620884312724 1.095155735122772
Ni 9.203956718364665 6.571200197924489 4.216177062417103 -0.8013071830328845 0.3438241126770659 0.16680545979474498
Ni 2.002186851635342 0.4722601080910307 7.472895309550654 -0.8047797149625172 -1.229486105107947 0.6830752612714689
Ni 2.3402778166117866 3.7585997139279788 1.3568905383509342 0.3107478989483874 0.2674080985101717 -1.753750751864689
Ni 3.219758776652007 3.750392308083733 6.034212696439282 0.06748605866711603 -0.08380742153495889 0.36212368231720216
Ni 0.7465938155859474 5.672335194047347 13.435389844955731 0.5059388518643609 0.029939982092541985 0.5881203077601226
Ni 9.31321138933568 3.406148123026107 1.9423138726876088 -1.8125814488496523 2.0110410452145686 2.119000638515699
Ni 3.3954850314741973 1.9027175746629295 10.555537186518077 -0.4594551064805249 -0.3718640495334177 -0.10029487766702082
Ni 7.035941052401902 7.244879756129646 13.560720386964329 0.44495151354771106 1.596263998367709 0.577185920235806
Ni 0.4253172948009902 9.186047953393945 5.5242545447128055 0.27249425478382744 0.6852357592578973 0.21901093815370667
Ni 5.916064334835001 3.0930248522789148 9.07178387032346 0.022508208404845107 0.3848290943345179 -0.3888770391516464
Ni 2.7375760176045714 7.892340434231683 1.5021065322668021 -1.0630958784737496 1.3490053782222187 0.12079479739258552
Ni 6.051052351092409 1.206003124287404 10.672804115685844 0.2873801707567244 0.9034190593039861 0.5824816214171066
Ni 8.877873402894137 5.799946815973748 9.546662131541595 0.029039838875775794 0.6176913365490201 -3.3687652913670236
Ni 8.641156505324945 1.8012874840075919 3.6364540935729326 0.6789316714167404 -0.36101116597931376 1.2312064302331636
P 3.1555094483081443 2.177110106568334 7.687396188092298 0.49967230212935876 0.6660334752978336 0.4884255255709459
P 5.197949003691544 5.408596416485839 4.230922381312703 -0.5055822398558906 -1.0455424429710187 0.43909196944314055
P 5.591297565694436 8.18889949796216 1.5633436773053704 -0.08669399905413457 0.5447231717214103 0.24540999697252575
P 5.8204513247723435 2.4119315509106967 2.3274064753645822 0.1610014515184582 -0.9975288912062175 1.0415374355766835
P 7.772142555468343 8.390004284166217 11.487650120691226 0.17002036718761687 2.1337052917157253 1.0841455000551972
P 7.963788749954287 5.119002909933754 2.7111461166003368 2.106273677867334 -1.000209266251858 1.3774813741747245
P 1.151100341165487 0.9087334990270662 10.03821291138941 1.5603150910769257 0.42872271039367454 -0.1349829159675095
P 6.34355906654484 5.099021284783941 12.76322945049444 -1.615392491667044 0.8298991357379643 -0.9071165627602313
Ni 8.090606709199504 7.6007394279566025 7.530347150460375 1.057833601633546 0.20245946155292874 -0.3682691330933077
Ni 7.118575343325195 8.869516601721667 3.068865760263668 0.334380707875979 0.1532619167823554 -0.2240006780588142
Ni 0.41469902184754726 8.955213496873531 3.052125080015491 -0.6636652321759732 -1.1610065721793101 -1.4888559066946745
Ni 2.1235985674404927 4.02222644499332 12.044468918277222 -1.0779810231156983 -0.1779563342052419 -0.38649902583777307
Ni 6.5248036113032635 0.5114530387295081 13.110577323495898 1.0263692124766777 0.6046471017705523 -0.5823232414623712
Ni 5.5582625237411465 4.517378585972107 6.692378483529293 0.7922599852289517 -1.2502927574406533 0.3885394533065696
Ni 7.749873314355117 6.350253844690829 11.479587441571196 -0.11063071237539013 -0.10895615288644463 0.5935767028890035
Ni 2.0173784890740083 3.6497372056935515 3.5569869836079646 -0.3579027022573191 -1.3021953598472154 0.9645364954405968
Ni 2.514575478607846 7.150994129549565 12.836602164788717 1.9110156191588508 -0.46778059562708474 1.3778847802607301
Ni 2.319577226444901 8.817480341460028 11.370915412380253 1.3997237305126926 1.4080448487838781 -0.8073032527153193
Ni 6.730810431714635 0.9207252752793583 4.89668678828445 -0.47289734802835975 1.0843257343868034 0.1758904528151487
Ni 6.529752331550648 8.24086106055969 9.747155330620739 0.09765666871322536 -0.3082732121556497 -0.39578147958096355
Ni 0.9959906416380573 1.5996878257787972 12.132246143374589 0.6404620545866325 -0.6909389802902617 -0.6456381994709333
Ni 0.2978550682028115 3.3198349721453244 13.476797561335113 -0.8907700030814079 0.04311662868381607 -1.3703853865598914
Ni 4.662656205460867 1.6456455636233682 0.6025860563870821 -0.035966133681963865 -0.5093828445489035 0.43432051619642614
Ni 6.511647485211634 6.57079869797989 2.835547606411549 -0.2652483718546915 0.13034284609233682 -0.16485193561279995
Ni 3.2270417989028735 7.261191858529984 8.826493548355876 -1.6053525909325383 -0.6455235282699399 0.6154169386925465
Ni 4.98943981153244 1.8853783793810588 6.488865631378443 1.1419809230064268 1.3225746948345158 0.31288011480004185
Ni 4.75084613515245 8.49268556069542 13.244476621298881 -1.825466789452753 -0.4748817254482402 -0.18631473347226624
Ni 3.4709576838508056 4.599956853647317 10.198336691620321 3.296000500799472 0.7265495304050197 0.2188024216873264
Ni 2.3263933882950707 0.5441827539807421 0.12450700026176936 -0.09775154241987681 -0.049494764296017985 0.28464117455900656
Ni 4.881772465923797 0.5078852915473849 8.674952529731371 -2.502490445213503 -0.11891069299599523 0.29859043765024706
Ni 3.982618008598223 6.159812150038682 5.908418095192393 0.7737084474790095 -0.12852636170888831 -0.14790502334581626
Ni 5.110384666936895 6.07231317374013 0.7720302376574996 0.9665113597787808 0.8932464896463583 -0.3368145141284522
P 3.0173374441179863 5.848341565109956 0.8467913947834462 -0.7271136304386058 -0.9315713533684858 0.5680960421193959
P 2.477889588321109 8.250347663901843 3.9002339548497025 0.30823721671139176 -1.1946016345259363 -1.0284320085429772
P 3.989275437912156 4.610731991695394 8.18834860268934 0.10786651936669164 0.6305723062767462 -1.066503104383086
P 4.56904135791319 9.087643118135121 10.989553958025649 -0.7400964158515189 0.7770102581587327 0.273800889410393
P 4.140099358961192 8.074331955631221 7.232347355533347 1.0285345955591125 1.179075770976195 -2.3452433185311543
P 1.1230700427076648 1.733125865505892 1.6870887613932029 0.4984924228886447 -1.9129935688208277 0.3920428384741377
P 6.875490469890502 1.1439480398268156 8.461052967385823 1.0118435080566768 0.4984029484986319 0.25227047153778487
P 9.341316385457612 2.018863105148223 5.825028424140772 -0.15694707894342647 -0.09796211576878613 -0.48909169840003514
