# total energy = -340890.07003490406 ev
CRYSTAL
PRIMVEC
9.05943221338024 0.00000000000000 0.00000000000000

0.00000000000000 9.05943221338024 0.00000000000000

0.00000000000000 0.00000000000000 13.25939478572504

PRIMCOORD
 96 1
Ni 6.5048717087636865 2.0719827644714823 11.621966125060702 -0.2659194297797872 0.128707624481759 -0.1473031280957592
Ni 4.454323561146471 0.18909209502494234 6.024950093830697 0.0664892419714855 -0.02955765905245877 -0.1241760551599926
Ni 2.387522791958438 1.4230465684072229 4.783738109221893 0.6622097306763691 -0.23993071902550936 0.7466887243570559
Ni 3.6123218030444706 4.427081848179108 4.900725276518687 -0.18156821992621636 -0.8131805374317028 0.13577944372687584
Ni 5.106729519786886 4.530576802931074 2.5876773597816674 -0.5807443270110256 0.15607521786143444 0.6204701848457379
Ni 6.967699986807143 6.088962230672998 2.6869234407784974 1.0539658911480236 -0.8495423638901886 -0.8634024097017324
Ni 5.267163006630598 4.347766518272467 11.76653292215016 -0.15792204126218606 0.6115800814449597 0.10478890888263244
Ni 5.42873798194584 8.043453217467812 12.2098743612868 1.543218283495639 -0.39906272143539656 1.4792803471910976
Ni 2.1424379695753024 6.034261378362741 0.4554403109916164 -1.2961064733406582 0.8896353752563324 0.11363736041219782
Ni 2.8359828103523315 1.704505011529955 0.28124101674720253 -0.5127584458893557 -0.15949941305163495 0.9231268221455585
Ni 0.38704340890947403 8.653297963098359 4.753029351508069 1.1567344271665174 0.909849388310362 0.09967112804009286
Ni 8.512396612323032 2.1730950885249394 1.7059273424032093 0.14300578627198596 1.2475007965178126 -0.8526575124804026
Ni 6.697901033072172 0.46755730171122034 4.7405916568845585 0.7487754316827556 0.47343342303748787 0.7542030304562302
Ni 1.0830370142409023 7.225404598403295 2.3587137972008003 0.45985337036020807 -0.7754215735153742 0.7582604883550554
Ni 7.802082762333303 4.008590431879009 4.006870045682633 -1.2696138263667684 -0.8259218962577711 -1.243650312423471
Ni 7.778084326134253 4.113861035364464 12.500731965435019 -0.17309129280345673 0.04462458068791024 0.8859586977356935
Ni 7.508856116635045 -0.34373026301756654 6.904803066082661 0.9770384845623495 0.512023367495544 0.8282240620283865
Ni 6.7770261149002256 0.65570359200261 0.5901422922346627 0.1625158312804556 -0.2560620773697332 -0.6080828669249786
Ni 1.6369216464695846 6.74287205507749 9.208623045064922 0.9124896541466866 -0.5765238611717748 -0.7556107094370342
Ni 9.142597902362514 4.909813699015813 1.5426111441972703 -0.7955491975031848 -0.5854530453406046 -0.07091925271838108
Ni 6.398151596108034 1.8654458265832359 6.968713737283049 0.20568799579255545 0.2526574225635584 0.6458261471120232
Ni 3.4598606166368344 4.1424979009081415 0.36033892027831405 -0.14809759897259656 0.2819983376195208 -0.07032609921907243
Ni 5.906804225140979 5.459005545305987 4.895713598562735 0.2812118371624834 -0.15613846699920206 -0.35597874576172883
Ni 5.431211206967486 2.9225547455422642 9.318782118226865 -0.3995111218267249 0.1301520702377694 -0.12496358405829446
P 0.22233115218399038 5.831565639775513 12.551183943990141 -0.795925607005997 -0.713671388890771 0.05730706125158517
P 4.155434770252137 6.132755526477532 12.484807295313958 -1.2115860848990745 -0.07375157996085363 -0.3799036320084425
P 2.3253479079893604 8.68754261724423 1.331428529418547 1.4975210385688402 -0.8606652132762275 -0.7133032069180748
P 6.157469657829368 7.571003822307182 5.78808398844257 -0.7801706581645853 -0.03510687100546212 0.28342350010182155
P 4.758104445490215 1.0716402483902394 12.694147221560069 0.2103272943367797 0.435553874382895 -0.6182677778777803
P 3.9690278909649823 6.128289226346867 8.25199772555678 -0.12041761655882487 0.3971464782492902 0.45695959375218076
P 4.46809389826333 0.9382491670029887 3.8086016516671206 0.05462771464720914 -0.7465460281316045 0.1347887976788324
P 9.288907734229133 5.5183720052578105 3.6821872391046675 0.941492726247256 0.9516946064809223 -0.23970317639573557
Ni 1.4796408420710476 0.9939465568677549 2.6966423997646594 -1.1782324491392933 0.9164558378832862 -0.9633195923143603
Ni 2.01831468744499 6.546961831293241 4.691916233006159 -1.7233590269467096 -0.8543356715137739 0.041304772286057896
Ni 6.081388545258726 5.821908284929084 9.289094358534793 0.6910873329426679 -2.1557818118997907 0.34294582383717065
Ni 8.810605945793837 2.4665663388956673 10.06153417155911 -1.3345092414885726 0.1975946772614597 0.36513418700875183
Ni 2.4397685381116765 5.389999849372363 6.954645344843069 -0.8005019135227698 -0.3437575211051886 0.44774553135308054
Ni 0.5839003433705079 0.15662399555579212 9.359939119228105 0.07035772378795625 0.4088452547434572 -1.4722193265792582
Ni 1.3795250555720997 1.3044314211236538 11.537211511992904 0.4348856446712768 -2.089249889615828 0.0368423656393301
Ni 4.045715985500643 6.903432373973596 1.44195903930535 0.4678582429425555 -0.9271570263508743 0.4794413197944645
Ni 5.507364794996638 7.72086495164078 8.150841916228217 0.3284594572955375 1.6084883083480428 -1.8822071795675905
Ni 5.350446367890649 2.64135902595663 4.825716800733989 -0.1007982996660006 1.0997832065924544 0.24107203171880418
Ni 0.39889495826228577 7.365091985248583 6.850718255169737 1.2168105665228075 -0.3174358524915243 -0.19432911913631049
Ni 5.132186524588446 4.6341985897354325 7.151573848819381 -0.04664006845604225 -0.641082976000083 0.024225448206267958
Ni 8.252236894569863 7.294591482983194 8.993953454788649 -0.6335409019867669 -0.20320688124191458 0.35683826554854675
Ni 4.874146713996688 0.6014312508407924 10.380541243792527 -0.5493264748213765 0.1508903312263853 -0.08304226123416021
Ni 7.922618509267381 6.962454575497498 4.683682114976216 0.4461846146238638 -0.21090836365123034 0.34148646568282476
Ni 7.287479828616921 6.021958669280706 6.977717001116425 -0.9681386109695587 -0.3584886566677762 -0.32350776971721706
Ni 2.6146518194957764 4.987742935778455 2.678503604386124 -0.9625269212097357 0.31205119114084323 -0.4454485077887877
Ni 2.001690629149309 5.639596269047733 11.434213014131728 2.0035521930366915 -0.41178968208376177 -0.615945814612823
Ni 1.0981390879078778 3.264349007874388 3.609167308712833 0.0878733640742164 0.5701045879089923 -0.28362636014124704
Ni 3.6889011843923676 2.6792455718926176 2.7984486763333476 -0.9453491238788687 -0.3851867347842528 -0.273051155728562
Ni 1.0481038432391883 3.4543343629254637 7.97670603801 0.5648325408767757 0.14957006975306497 0.43042092403170384
Ni 3.853511069532706 2.489305514003111 6.687747221334952 -0.3341354246343923 0.8681162702376338 0.4052235988304699
Ni 4.083838076676788 6.792707992235278 5.743108436721095 0.5089933224199685 1.1946186038068007 2.481861713219558
Ni 0.49703488257361067 7.536016294711585 11.262476979533414 0.4074465746237177 0.13268872061669407 0.4131346261474304
P 0.03741364356921135 5.452210971070696 7.903673424412925 2.109434849204135 1.196314760562301 1.2827009985680295
P 8.622523071528644 1.665377323366987 7.9164291051106455 0.33118096999175867 0.032571249067801976 -0.8840949050540773
P 1.6957988970764675 3.1409051831676047 10.447023887826779 1.3382949337832502 2.4341060431018335 -1.4589812306224292
P 4.0579552785564825 6.264226008214274 3.737916336982532 -0.24509606527653272 -0.6924135079532592 -2.078836407591987
P 6.906648472444967 4.006796664280891 10.518890552485077 1.3438042936372534 0.6722540022862487 -1.7444374448835636
P 6.504989481383764 8.065585410610236 10.122792240978036 -0.6488597917320245 -1.5321324579951228 1.0694974111247193
P 2.2590872200467937 8.320418182162937 6.070972915927639 0.014988245878716123 0.5387201600604399 -0.6370034066140707
P 6.8791530953728195 3.954188540835105 1.5760649099021535 1.191944142298431 -0.5590796975533985 0.28070121607465204
Ni 5.216656671481595 2.7284745270853863 0.7654540847672018 0.5425883847665945 -0.22687568561376412 -0.5027434848555148
Ni 1.6998937604822701 1.2494859641409264 7.176249930555499 -1.0336042967725358 -0.7987692471023792 -0.6955685086424731
Ni 7.155601672426062 0.7621564514050067 9.232556253351316 -1.2370986273478826 1.2207091302462652 -1.856224382350584
Ni 2.8079076296121057 1.8087428397316463 9.197803365052645 -0.3835846804044555 -0.41152845800257515 0.416484773566586
Ni 6.1981827466472375 1.77538600995252 2.795106651752816 1.1169036683228248 0.4996519904143847 -0.9724477798678737
Ni 4.371529409231361 7.209079501373966 10.215210227840016 -2.0321289762331194 -0.2389758113114078 0.9010163633997644
Ni 8.349852277750223 7.086387609549222 0.7774605504125782 -0.8444778048830875 -1.2003812173221906 -1.7449082138723948
Ni 7.746548442250184 3.8549243409736467 8.252395434635353 -1.973627637563117 -0.6926629049599039 -0.053005091442121614
Ni 3.1466307443898773 8.5448565583031 12.392681022172482 -1.1007715386476529 -0.5799598834365173 0.4145271356195829
Ni 0.02606036299365426 5.078473150400385 10.246648269855095 -0.8841542975371032 -1.015564922772322 -0.45424630858607584
Ni 9.01170722429385 2.3316895106089666 5.527232130060631 -1.1627556936599328 -1.5396259381586903 1.0312023721992627
Ni 3.6497553773647726 2.8241693106152375 11.301525850635253 -0.2435711439915741 -1.3177376784571886 1.0307534575873023
Ni 0.9665598929833715 3.4065820951998322 12.398820599451492 0.06780410412816709 1.0528142940420835 1.922649346743037
Ni 3.1365204179277635 8.514045429004131 8.142899511918776 -0.25662566318268704 -0.4799329147189025 0.32357641817162336
Ni 5.610660442237703 7.831145421195726 3.561910591934762 -0.8938118752315253 0.04372443747114405 -0.16874638557119973
Ni 2.9240042547124596 8.40650090800793 3.553278764826247 1.3896059253524005 -0.3770283673431765 -0.18105014263921723
Ni 3.583449392260637 4.716811553004268 9.870691794211156 -0.14218663280480026 -0.06433337197074727 -0.7973906215872977
Ni 7.241648160541799 6.454818345230369 11.410425662705586 0.3955212839410414 -0.5776070669336246 0.46594482796992653
Ni 0.44002478096658615 -0.07788212771460994 0.41947164687644384 0.3152370450679926 1.3634650052909743 -0.8514575786350305
Ni 4.613651797247909 0.032584966145997235 1.6651807336857793 -0.27535589260233867 2.0610559436801146 -0.6007228270154815
Ni 6.046998940195835 5.603195470011195 0.36819254215108016 -0.04458601414049096 1.1285741626822174 0.17951725093445856
Ni 8.106398153183557 0.2153463298701103 11.180494552753615 -0.2621926157475033 -0.6431596560234536 1.6419093070106496
Ni 0.34639011234487543 4.703403593179958 5.781692558945239 -0.816694207011916 1.1226616538525247 0.09916616337921631
Ni 8.173320179685025 8.44181457516682 2.5700286796913043 -1.4040714659584272 0.9067306401757222 0.987590549046583
P 8.456844173375286 1.2203689486846223 3.6442916337363664 -0.10570782115247603 1.2093191432417687 0.48335171059246435
P 1.5324663918923638 3.335239065729267 1.364458313691148 2.0190546595476646 -1.2070581151217339 0.5260140253476813
P 4.571924052010903 1.1423853553280985 8.228767529217933 1.669568720599131 -0.2772837057526708 -0.8740750589242302
P 8.418133219098749 1.6776075569905127 12.669219287605632 0.5740841413820306 0.8723997281043363 0.37329846798709904
P 6.340406774540368 7.67554967120754 1.2774832337632547 -0.5558501348725072 -0.07994819568986876 0.31318607607623483
P 1.9541014312053246 3.301085005906533 5.86046704074275 0.8122428561087819 -0.3729310573453513 0.43801287744634887
P 6.907699366593359 3.769013744342616 5.965852699018591 0.23292574846258596 0.4909722032521996 0.6672861167580121
P 2.30755518292521 8.563464632275487 10.35577275584681 1.042162213644876 0.0015226072921135068 -0.023572902223933597
