# total energy = -340860.2607945068 ev
CRYSTAL
PRIMVEC
9.37928140202286 0.00000000000000 0.00000000000000

0.00000000000000 9.37928140202286 0.00000000000000

0.00000000000000 0.00000000000000 13.72752640415477

PRIMCOORD
 96 1
Ni 1.7576022825381854 4.299753308499097 13.28367445947403 -0.9837650046529056 -0.8603957616649246 1.9105078262844966
Ni 2.2337039809240333 4.690034582932885 4.80840955437076 -0.8649982934339425 -0.7586947476789967 -0.5097134884154447
Ni 5.4140775826490835 4.970006129924031 7.079972066359285 1.7054577211862563 1.0155456394986124 1.1209261592186566
Ni 0.1087143116924514 1.1574502095960595 4.599435415155298 0.4952070672691537 0.9189351526617141 0.01416137910204658
Ni 4.716324708434265 2.72007599234021 5.925225903563812 -0.21907598706368725 0.18734214629551604 0.07333351858682854
Ni 6.2174411643721195 2.5163392438061503 11.940915913254404 -0.3286330067589243 1.298215292153545 -0.8269876185181241
Ni 7.933474472161067 4.338939945796551 0.24726880686069277 0.15983339935228602 0.10187482055963101 -0.06220604121509932
Ni 0.5487123425462049 5.802248518788968 8.770393370685293 1.125541546503481 0.02365980551078506 -0.6874242822687839
Ni 1.4508341288551228 3.1103478874926918 2.575888300819443 1.3977043860898186 0.4745066014970086 -0.13006902360565986
Ni 3.5251747411048995 2.0321807427782455 10.228805020907723 -0.44649983187143744 -0.9569136887880164 1.1060042478015017
Ni 4.281641916296755 1.4346642478831722 8.085746166239678 1.0208737365797451 0.3152223897799733 -1.3299283069861094
Ni 1.1784410411594157 1.4615452681068444 12.1117689015288 0.9854771022480061 0.8542418262483868 1.2648274607217185
Ni 2.772740656874725 7.301010775118957 1.260930882319631 -0.06139974326372006 -0.7513223664743254 -0.2987650155548983
Ni 8.363598933583745 6.125618000384069 10.386040230653595 -2.0257202444932982 0.9408093270269862 -0.4033580063766409
Ni 2.66184003470979 6.670507347869852 10.310360685649838 -2.482960859821007 1.567271982010733 -1.0655373980357066
Ni 0.5341622634558411 8.227965146614265 9.576226517176261 1.3116814449607797 -2.3312125514697013 0.8863181379576414
Ni 8.841473316136472 3.6042983582043067 10.713057314748692 1.1414348206949696 -0.5293801136064368 0.3189450900471991
Ni 3.759262843945939 2.7751417528891213 12.6041202047777 0.5777171101489276 -2.0250273321913315 2.0473231674750547
Ni 5.368034690716771 8.106240833821934 0.4002908434438033 -1.2728991819862594 2.4067093962564354 -1.5262616010366423
Ni 0.9680262443353161 4.043492584650116 7.20663550868748 0.47973314000327055 0.8291933679201913 -0.21917883119013865
Ni 2.6045513844913004 3.917012976235523 11.196362301177729 -1.5109092869502883 1.9896258127635862 -2.1864239622656796
Ni 5.6800177248061 6.192717378848881 4.696571004075201 0.05776857426903599 1.3634575490918066 -0.5565494749323769
Ni 2.1159940005307707 0.15389149596019858 0.4282823705741341 -0.9896003803877602 0.8796129580233238 1.0585280565974093
Ni 3.051014553949442 0.030730277271751785 4.654166335361578 -0.4987623887205797 -0.17925114175726548 -1.2310763324132026
P 7.130035856187581 4.509774175508335 11.5168457779149 -1.2156036906989 1.5876047800308142 1.5458179259020153
P 4.5195098695042075 4.368634750412094 4.4534844187489595 -0.22188131772296624 -0.4452739298841364 0.22695564692208012
P 0.9731473319285211 5.495977467015137 10.83134787265481 -0.09586820935423489 -1.2039627640258619 1.2604887241370486
P 7.46379758146999 9.182006882521984 12.993940956499355 -0.4967497291659251 0.047327838551686235 0.4671992692023179
P 4.453254626356957 6.243318601496024 9.676204028331954 4.450896846315986 -2.141324241713564 -1.4223036726957377
P 8.633750373047263 2.9954329329286877 8.516598459891721 -1.0767101268230748 0.5602482639402029 0.5526059169035967
P 0.3614371706327204 8.90534622183194 6.353043999713289 0.4448075317706791 0.6610301085459712 1.5381033308665768
P 0.35620446959197133 3.432141649828344 4.595742792105034 1.3202326769649004 0.3680243640723533 0.28540710619075366
Ni 3.306431142480862 4.619464870384766 6.798736192248057 -0.8639719090519572 -0.5688172365561365 0.9299533581490887
Ni 8.146656156970506 6.590033114262346 1.2323747224546646 0.794372146475948 0.19680997657663524 0.9076066150227724
Ni 6.656325874534822 4.134912439541999 5.379007511916936 0.48570067044061516 1.5748001720669782 -0.36096051524703643
Ni 8.981337158975064 6.1465525562595875 12.598396029396504 1.1722145250799878 -0.5152490735216932 1.0901893922564323
Ni 8.739539286900298 0.7110311227600566 9.20337288533759 -1.925822602264696 0.5203385722294587 0.08758694318204915
Ni 8.480624226441652 3.117804416131149 6.320894637179903 -1.2031394967936182 -0.4401895733826935 -0.40152429560201175
Ni 8.310971786174454 1.1731886436279235 11.382329063348994 -0.9437946349075552 -0.1719947173051683 1.6160499227453844
Ni 7.157807908135346 2.0305862649561854 0.2166492051083546 0.877436004976663 -1.5791093409652934 0.9264173199713722
Ni 5.571161785965924 7.943435268908289 6.645715093593078 0.17067111339773833 0.5744050150565592 -0.07909356099905733
Ni 7.656166641060892 0.296649785009895 2.5317812925487373 0.5849092570219927 1.0845897866814675 -1.160622192256698
Ni 0.11999664917572272 8.487114689105567 13.197547333023255 -0.12486125415247529 -0.004208124544076624 0.2400381911376511
Ni 8.371158634316572 2.838695763020177 3.0939097590753826 -0.3456663080921273 0.05962722474432956 -1.6519368664499807
Ni 7.738188456083926 8.914181504822414 4.656060950185437 0.4406207473828412 -1.6217114919065359 1.0902467278569288
Ni 0.653505176724519 8.273379626699061 4.4714119770376985 0.9099226647504588 -1.1504696772037284 -1.0859871812496265
Ni 4.868878718880194 4.823708100109362 11.659034744589308 0.2823454365462944 0.6191136708178434 0.07273522288119733
Ni 7.862079382857997 0.36797452970316696 7.0721610008874505 -0.7107192482409824 0.272441290058705 -1.4537086693695802
Ni 4.021423135736542 2.284717891948651 3.0096641164546396 -1.584309397108994 1.579982744709182 0.2851749355752895
Ni 5.306403433253493 6.031149879067659 1.5020384392902573 -0.036469298570627515 -1.5983851584757698 -1.1289541717294558
Ni 5.545650140812962 9.199546138564646 4.265293828979986 -1.8136638832805538 -0.7682697929619414 0.2827035912166615
Ni 3.8245332625560358 0.03674239658904909 1.9838061615132023 1.262537122025645 0.5590681275891726 0.8132098480077413
Ni 1.5554600118261859 6.450741407583434 6.652661389328476 -1.5635323124626428 0.42422945050901134 -0.1416176476752077
Ni 2.1966089233578696 6.425173486742635 12.425594026466673 0.2967176461075664 0.4965903207699254 2.5031501902846887
Ni 4.531637280233171 7.515261697997308 11.509995150848825 0.5680669886536732 -0.9363608043373294 0.41451710831725386
Ni 3.5424326187083737 6.741986850704677 5.737049382716799 1.154350243205057 1.0258871306339363 -1.2294711927096114
P 2.6300067539564247 2.6926509738007756 7.593271056477534 1.0103491828993372 -0.1836271593377741 -0.6681824033200363
P 7.106371929451947 7.983072111708442 10.492305611996988 0.012790981117081195 -0.04099418302417456 -0.46581293037775257
P 5.81178724787741 1.324954794444129 2.8036960368978265 1.36598365794777 0.42128759427186807 -1.255059068481045
P 7.784812863457225 5.649675749780426 6.840179484627793 -0.5211327859959799 -0.1149679062981633 0.3218895173875037
P 1.2900357301410121 0.6699902015483595 10.23186641832608 1.6814945255024396 -1.2804461410955819 0.002484971205382817
P 2.782429454464067 7.233939534498063 8.238808533732406 -0.2582413444092391 0.9262571402444243 -1.1306277027771365
P 0.9095604943128939 5.951032058149791 1.2906678937010523 1.401447655182335 1.2629580116131474 -2.441667400388859
P 3.3048272853774963 3.319130689369506 1.0432799699677704 0.6568700636310106 0.899999749209792 0.1110037794440927
Ni 6.848826244064011 4.432310691200131 9.318505439227899 1.4519117253701574 -0.9895271039476635 -0.21951436015268647
Ni 0.6124464348783402 1.631188329092736 7.537181078409981 0.8288781506726177 -2.8516560247081406 -4.906524094409988
Ni 1.2904765563624052 2.530614509954242 9.308923565445449 1.2466950127870657 2.6372550745226193 2.95789426444279
Ni 5.600912866269305 3.777589959618324 0.21577880780313585 -1.4244711126607017 1.0767697764164168 0.6793304495170559
Ni 2.8582328059810664 9.188253483871938 6.938921744435453 -0.6778878035332583 -0.4784190491775373 0.6545311310851889
Ni 6.570946276804156 6.562336096565032 8.599197100715088 -0.8615519867565549 1.2685046524629895 0.16207308731608217
Ni 2.4861660958439886 8.821251585640228 12.105687375529836 0.35018065102271306 -0.16096751295672923 -2.2902186255558425
Ni 8.999767446741817 5.82574361846109 4.936266979209239 0.23384800316653917 0.43496149221453484 2.265546062509827
Ni 0.15586302089076937 5.0529283559524645 2.9212859624903693 -1.7336879196765431 -0.8066663904622687 0.16113746287569022
Ni 8.676097828144918 7.5387567976694285 7.736161593393648 -0.7792183215536451 -0.03164873725353259 -0.9591618613922449
Ni 3.5507614205083113 9.18991361666314 9.489495365009365 -0.9205279510701309 -2.1096834748798314 0.6431766253043181
Ni 5.374825290382486 0.26655354715444474 11.908793750636805 3.387178503766889 -0.5376374685192223 -3.2839978199116406
Ni 2.4501496556280427 2.2580244573511035 5.298248148157722 -1.0232424939222378 0.17389553387230697 0.5188167362682936
Ni 4.7010364799051 3.864957964985913 9.400596660932598 -1.1060939793018307 0.47560163433340025 -0.7535276016557604
Ni 6.965757744108856 2.0777171535200214 4.694361245399452 -1.0231044256824766 -2.625945563047071 -0.007196517748439218
Ni 6.264994120594737 7.696300585770275 2.4000108315492965 0.19662588559028715 2.0985647392588502 2.289564536911612
Ni 3.578308369704727 5.216277919181871 2.652281609130605 -0.1462579746606965 -1.6823463319797733 -0.18358422191498058
Ni 6.225544863420708 4.424647818372937 2.8579195379854387 0.45251081395220777 -0.6812952865529106 0.46476083496415443
Ni 1.916130895176187 6.5182253365818035 3.5448177699445496 -0.42510105448068725 1.6260273456730707 -0.2816982898805987
Ni 0.4181977673136691 8.503687879173686 2.0488336567374676 0.39203795337813124 0.021170720540344183 -0.26393530947022287
Ni 6.686395850402616 6.6309549186014545 13.15625504707255 0.3053748075619321 -1.00278062652346 -1.8604150233931636
Ni 6.2271674790866856 9.139490600360816 8.812989376737564 0.08973509987330353 0.3684488532042816 0.5691738485646067
Ni 6.540079062025333 2.3017037703942447 7.956488414702178 0.2620722881195551 0.1410633178336345 0.025280371833343557
Ni 0.05975540120202986 1.7089238125588202 1.0123752380637228 0.19310835935533194 -1.7777882524298674 1.4340248177874078
P 9.256018791309494 2.833312055550398 13.07667653482979 -0.9643668026319521 1.3911794404871072 -1.195603079207257
P 1.674192333881828 1.0202500826484384 2.5228175134043673 0.41355345885240385 -1.6529419106757273 0.42977377736600825
P 3.7357208478672863 7.753992545084933 3.4045084112439117 0.6044560688056686 -1.0584511806128867 0.2680971541573964
P 4.376156934019696 6.164860913369361 13.369622441651853 -0.541401563547345 0.12509753853299743 -0.6268316082873914
P 5.739782505289436 0.8135335364433879 6.179363158125062 0.4255422557831639 -0.7549216537898096 1.4035297345223439
P 4.136581951614509 0.5203109408227916 13.316441916645497 -3.6851945569709046 0.600925687054907 3.526310151795449
P 5.773022678238737 1.6915252457357524 10.04879597822218 -0.8256586152940554 -0.32327996997712716 -1.6021353695468212
P 7.567100985776874 6.488821289686753 3.4841281923244187 0.18825128837334676 -0.6447953918546637 -0.2800805517715176
