# total energy = -340893.57663247094 ev
CRYSTAL
PRIMVEC
9.00223169119519 0.00000000000000 0.00000000000000
0.00000000000000 9.00223169119519 0.00000000000000
0.00000000000000 0.00000000000000 13.17567603959242
PRIMCOORD
 96 1
Ni 6.322375161866026 1.6363806186540981 11.288642477829933 0.2707009103288306 0.5847948429313155 -0.16968818065917873
Ni 4.3677116486822385 0.2160940644229531 5.976815506095672 1.168358641669007 0.22346228905684098 -0.09904892107506166
Ni 2.8476848712940144 1.8564671727173927 4.786868147306366 0.84373115652505 -0.9599411627604306 -0.06750688460272244
Ni 3.517018782767922 4.362022238416859 4.8264212515516185 -0.015269010343928541 -0.27309512159262 -0.06656894616948535
Ni 5.034650966595084 4.611258017858792 2.7389595209440945 0.773643655679345 0.2496165788547056 -0.8704122653606622
Ni 7.011081875382809 6.198792528759804 2.4650108157734905 0.9032843334983346 -0.47318505447210757 -0.034937692417449505
Ni 4.849862161978868 4.497343781311143 11.463944730962517 1.7606307668139745 -0.3571043747257398 -1.2646271717854543
Ni 5.5592109921705175 7.91086390929889 12.310982690915212 -0.43208391355642356 0.21667997602768488 0.5256651266486947
Ni 1.7551290534810338 6.5837279448161885 0.3426240281001959 0.728059796401959 -0.38403359501641604 0.2653509588708269
Ni 2.7601021616866115 1.554586343857833 0.476868904115145 -0.031184653132920487 -0.03576738740759647 0.08710563267025644
Ni 0.4368683889676956 0.35538649160214014 4.711700415067612 0.5763719089749428 -1.6930094681205747 0.757843712532611
Ni 8.932005025157352 2.4527839850417834 1.3132626256219793 -0.8253346562957335 -0.33502605476946173 0.5940443865540415
Ni 6.676603966505939 0.7382090839413019 4.70579765191728 0.6274756696292935 -0.25148499952201203 0.7008945488410768
Ni 1.0627134206140354 7.548073982566611 2.6351745952043646 -0.044504253059962064 -0.7317215615242624 -0.28073309775385197
Ni 7.702984381058151 4.122481862227796 3.5283804990589593 0.9186716145876823 -0.1898181186398344 -0.03463301669283713
Ni 7.745231853171168 3.66233280255235 12.60494515700669 -0.23873001384918882 0.51530640912219 -0.8560799078983902
Ni 7.9607092647409905 -0.1213806872978169 6.720266589400155 -0.2028980917522441 0.05799714534007431 0.5982496828846406
Ni 7.107513778488421 0.9605380938544479 0.6856873650943008 0.7586878057004611 -1.8446166229083263 -0.9943072989451263
Ni 1.8361671408369638 6.388190475869493 9.234080302215855 -0.43718086846335674 -0.3015091539589388 -1.3120830512745725
Ni 0.2931783717337016 4.888103641104395 1.27485730588438 -0.8742048996338752 -0.15973158366709908 0.7499583962472631
Ni 6.152341014567781 1.9642148807337365 6.968746181401752 0.16664245185431947 -0.34311397398391874 -0.09895327603746185
Ni 3.6818766469924444 4.269029187718486 0.45432101504600503 -0.7703001931284088 -0.11186432767217509 0.5310613579636015
Ni 6.07719938880018 5.391805496450579 4.784930867102079 -0.5798105023428466 1.4990341327792571 -0.497961232975523
Ni 5.26524312474018 2.865383258290433 9.199269573489277 -0.06668233181889806 -0.8137909173221921 0.09550465536722907
P 0.10110586166539902 5.598046618570594 12.245868650740343 0.9420221163881646 -1.2105018506959606 1.3682624266796177
P 3.902773401884669 6.095212853896737 12.426282370880333 -0.61791116586931 0.5578424827121876 0.7375507666115297
P 2.602842180791172 8.561977304353292 1.3567785121438445 -0.30730930558048364 -0.17674688727817303 0.5216344082227468
P 6.259341537375222 7.736715742235964 5.9163655220260125 0.3580711095143833 -0.13713235821034447 -2.0992106003729654
P 4.561817762831158 1.0032896909276885 12.443239874229851 -0.9275072106014414 -0.9383125287470615 -0.5738267739555859
P 4.104747466305648 5.998600906162474 8.190527230982886 -0.5091144213788651 0.7463475389675533 -0.7436723061282353
P 4.8099912789640475 1.0749654575937533 3.7529195567888 -1.1581960993137086 0.380416567089119 -0.08468622459548641
P 0.39914633859582777 5.66965936961663 3.5042554190428343 -0.7153140667005164 -0.505273193255904 0.03381309189470305
Ni 1.467138667721918 1.1292939242892697 2.6827918983669057 0.10972182740787555 0.4612219685729605 -0.9037620444657016
Ni 2.000034759603904 6.4626479320482195 4.804483713773607 -0.16501725754607063 0.19855472718188386 0.05175810640889796
Ni 5.94459651979853 5.40838760674936 9.162311812566033 0.4314156838448054 0.731198856251573 1.1235664250549813
Ni 8.513635321560429 2.1931326238323754 10.020285683263008 0.5280739932005035 0.3032302504151036 0.489193514085222
Ni 2.6223410140741032 5.041384635706642 6.996560375858942 -1.8327718077545985 0.3330774156835231 -0.15205169852433814
Ni 0.5307778668259039 -0.07089707364714813 8.944426304088001 -0.5386998483454657 0.5594985302583719 0.35512976749787223
Ni 1.4904364426693903 0.9847180874823115 11.533657110953138 -0.43385566074486565 -0.4960102798967393 -0.8320606621656572
Ni 4.192051106738642 6.936471381269729 1.4158583565894673 -0.3995466030503506 0.7836349625641019 -0.048516716653464825
Ni 5.656534116187953 7.666507339293407 7.887104319878927 -1.0288426137178344 0.3064580133237819 1.5297565015637784
Ni 5.589395474163901 2.995960625219756 4.684914275440021 -1.1720782566124395 -0.2779539923468181 0.09512850297473294
Ni 0.9109267964295945 7.468179178602616 6.931063740848188 -0.3044790352205401 -0.7927677781033057 -0.010242503663614618
Ni 5.078959949706159 4.45777897416503 6.986797455870327 -0.11124109226587939 -1.0220906397059817 -0.24171532172975788
Ni 8.186764298244075 7.147798764149139 9.380580816103095 -1.2099804309748516 -0.18171682968893865 -1.837266096080526
Ni 4.311465706691586 0.14828115526460098 10.368123803808944 1.0230262641463737 0.31309557324495757 -0.10642798714795218
Ni 8.050317476420721 7.022973823105224 4.793837674881457 0.3446738622718709 0.7412050755346654 -0.336854109117136
Ni 7.062862710582911 5.863675461451223 6.954319205307928 1.3214781193362275 0.880898766714283 0.4578610225205276
Ni 2.504348766687503 5.204694116124763 2.65360756428568 -0.9099308922805749 0.09329633486200062 -0.4649138156022509
Ni 2.125444845690936 5.099097941420801 11.409634268729864 0.3588293278366465 0.5730395021676001 -0.392267295780118
Ni 0.9892822188186209 3.2039661847005516 3.916838488274905 0.744097566591112 1.1378599588595177 -1.43001466818675
Ni 3.7153289389958473 2.7660706411264004 2.5584395744732 -0.01052481079072381 -1.2340657540588296 0.3390151213241968
Ni 0.9084241760913421 3.3595247438552365 8.104133716147723 -0.2270158107360542 0.6428719495797057 -0.049247167061586154
Ni 3.376601976882808 2.687391138405802 7.43780024841029 0.7117862560529161 -0.4808726529243525 -0.7817346602175956
Ni 4.1810413776966175 6.555803022912379 5.818879457619647 0.7807681825392682 1.3204507065129774 0.545174657436532
Ni 0.5964950565067554 7.368200396312575 11.199218811894573 1.661964425889312 0.5423351311052079 0.5379082056821058
P 0.14152858146703565 5.623549940219044 7.877670881560745 0.1956288117843405 -0.1696591271934562 0.5379969087411701
P 8.217858005612147 1.7173646926214328 7.872834882835172 0.4788648784657043 -0.9901811925918946 -0.005131664799610517
P 1.560077705031696 3.238507746707295 10.217868459191182 0.7472952475928033 0.6092146665365766 0.9287577951790907
P 4.109266586484794 6.356349583292518 3.542451887011198 -1.0260347119553943 -0.712805955566682 1.6027447209960461
P 6.824438611091485 3.683010928152947 10.463792317689075 -0.18336516392563906 1.2339616243807976 0.15992158819071814
P 6.299878585516052 7.641049028802119 10.223112259000649 -1.0829437664376123 -0.3730938081754607 -0.41859179260725976
P 2.319046834879631 8.616575837991784 5.7780867461061325 -0.6025907334621557 -0.4553557396001706 0.9001730415628626
P 6.821629914884525 4.06231994956398 1.371350424163734 0.8177105640915723 1.247037226617833 0.5543856345118388
Ni 5.569149455672067 2.56447467042559 0.15945112402612485 -1.2270975502711126 2.4862711551411634 0.7990991196379722
Ni 1.3435830413099938 1.130788294707075 7.095615529204003 0.20737258258382996 0.25685192026088016 -1.0978870180110059
Ni 6.714737418854275 0.5492414434940902 9.168043533319146 -0.09177732711431291 0.05561193293734938 -0.4944398500858258
Ni 2.480537864548374 1.5041738478354811 9.345533328689841 0.42131201975190025 0.10607985977991409 -0.32903435596240105
Ni 6.361561875291972 2.3964660251996706 2.4983712850162814 -0.012607404351365384 -1.82011812354633 0.5782518996064752
Ni 3.986143067181633 6.694590424908199 10.232374654921614 0.7493917251105159 0.5044226723301506 0.6616492301872089
Ni 8.349083533204613 7.034289628015956 0.4843335544190261 -1.3907176703593402 0.7441417895654862 0.2058486897401358
Ni 7.42537356814078 3.7572253240829947 8.221937816897384 0.6185516276667863 -0.009366528816564513 -0.08268642055663825
Ni 3.006223169052878 8.10848089370651 12.278240674971839 0.53433360095697 0.9135864867552911 -0.36148116363719685
Ni 8.874390743988949 5.0543388467381 10.116376401797327 0.3820492175965356 -2.3141620237453178 -0.5913280160641429
Ni 8.644203686258319 2.404433000017489 5.651771935760128 -1.0099318928562606 0.004641355426753297 1.548508585360301
Ni 3.423827682978032 2.749983653556411 11.608797836497597 -0.19488267764693534 -0.9904367602461265 -1.0138965339309636
Ni 1.243883328194361 3.1959181897998405 12.51077821532951 -0.9106903961544187 0.3487043235875027 0.44594858735365783
Ni 3.1326775139860867 8.315325165332503 7.984420242111217 -0.0727241671376038 -0.5354815985184842 -0.244494684247108
Ni 5.630319618256331 7.8252706928380835 3.599805103468056 -0.27043685803416645 0.7154665331179807 0.1963921723129263
Ni 2.8625205486948784 8.574301359184469 3.785385204227194 2.186284094253706 -0.34173791957199856 -1.029269416842608
Ni 3.4421922351004604 4.262817648030017 9.334702744053326 -1.005321647777759 0.16900195322543152 0.5611075266167046
Ni 7.1276967813602266 5.99275845796274 11.482640565201663 -0.6895894082409026 -0.08609133247312915 -0.22565544005341784
Ni 0.6550374677358545 9.013034110281849 0.5143505949077634 -0.5295953149410362 0.4959817406516491 -0.5642740972701443
Ni 4.815680689229427 0.5150500682900735 1.5383652230394977 -0.5133387438728578 -0.5597335290873133 0.23910153825599464
Ni 5.845211884783036 5.624621205759518 0.29150755757981794 0.4522135944267631 0.20419855573122253 0.11158819119265297
Ni 7.777666893022692 8.683273370675641 11.490862303169022 0.03825724370898572 0.20368330665770082 0.3692579793691383
Ni 0.13434480078385053 4.930711202474715 5.725476805391092 0.19469781532963887 -0.36743223901430916 0.17673094643857304
Ni 8.080060849073908 8.72418851253664 2.6529224944736622 -1.0599879289723872 0.023256913645411558 -0.15469093591939811
P 8.282836112092385 1.7389070324395555 3.548051274962252 0.16952877226317897 0.5516916326194434 -1.316102713956927
P 1.8763260952576264 3.362810558328122 1.6384088213958545 0.2931715806275209 -0.5740085509490889 -0.5904291583989574
P 4.573952770802252 0.9333153460023781 8.28319170023397 0.6258399337980834 0.7006366671939998 -0.8589626287628239
P 8.484513102876088 1.594421217946923 12.206393865908554 0.4389256190686054 -0.36384555010431535 1.4892649692076352
P 6.326507186093573 7.886782940216785 1.3003903348965578 1.0240565051831008 -0.015320946627786516 -0.00568342353802247
P 1.7760772460246073 3.1760052538710117 6.0081603757207125 -0.02579587801718138 0.9993019239462403 0.10415873149780126
P 7.041356379690517 3.8958416836815957 5.956736028885341 -0.01796558333948519 0.02206854976426522 0.14224679661877437
P 2.2843612371699664 8.37109398905723 10.012920957728028 -0.37275905054386127 -0.1581495838919599 1.7154847664049553
