# total energy = -381166.2532552565 ev
CRYSTAL
PRIMVEC
9.23906606883241 0.00000000000000 0.00000000000000
0.00000000000000 9.23906606883241 0.00000000000000
0.00000000000000 0.00000000000000 13.52230709084371
PRIMCOORD
 96 1
Ni 5.085838054048899 7.989482565364544 0.9003691827151565 -1.5693826005958327 0.012715904904771648 0.15015602416352203
Ni 6.953635410350481 6.8130168215735525 0.6788755033523078 1.424565472146721 -1.0683257594141213 0.5705648153748626
Ni 8.50031053996877 7.273159278567384 5.155257626354629 0.6694787535339566 -0.024597229723389895 -0.5133305163427417
Ni 3.881267070635082 4.828040387646626 6.731202117946987 0.10703785281780921 -0.6121341541762167 0.21231141464634404
Ni 3.517072316955863 0.02046453180952005 6.730458373111471 -2.189816018666364 0.3126939669311647 0.5706586606402495
Ni 3.048217420460281 6.755411243319667 13.256174417931804 -0.5393817049038389 -1.4001392207835563 0.7155004716797096
Ni 8.80435897216719 0.964188956948764 5.218461154867382 1.8300029867602097 -1.3652282678389842 0.6697703166324465
Ni 3.0804340445775704 2.4854751324304583 6.6040790332848065 -0.8902802079291828 1.4325991410844747 1.3377377757281992
Ni 6.022928829599324 8.867304730730737 10.674928972259305 1.6863407978511473 0.9121860068633386 -0.685898846763193
Ni 2.102100077154596 1.1556778446616818 5.113757588439503 -0.5511856395173023 0.4147096839440342 -1.7167844590529853
Ni 6.929225797239531 0.5079416902984513 1.3790729238648913 0.7648815932159989 -0.33391816641726363 -3.327649752273637
Ni 0.347862856216606 8.743140918997943 8.762738826390427 0.9141364457214902 -1.1979278706856917 -0.6515080279881489
Ni 3.680132597726165 3.384473237709708 9.081554982130307 2.078826637399975 -0.7822715065576721 0.20530053054614966
Ni 5.928117531437114 2.72018437219978 0.5573799339610886 0.5233819870414729 -0.35942813776291005 -2.3118662857326053
Ni 5.126489945679548 4.348634477459633 10.915017196416663 -0.19835906623131 0.7790370587807744 0.3983420412192881
Ni 2.3131850244467427 2.761298217144414 10.870393430192376 -1.0962991046985957 0.9048084834523449 0.06371116500571608
Ni 7.9472138371349486 4.842832132760414 5.754742757072163 1.471649313008401 -1.0306200173332316 -0.5712577276768291
Ni 7.434926090058529 3.624790590710804 11.428107818352789 -0.11731300949157215 -0.7097424861500099 -0.23020552131794544
Ni 1.4727810775133057 8.312665103828206 5.684507375213936 -0.22270278518299708 -1.4646703105874066 1.6436594569325371
Ni 7.292912402273367 1.2550070462346616 11.458506194226235 1.3385137346622755 1.6400028340165564 -0.07850040749974868
Ni 5.935776717382979 4.583648606416185 1.942412055576382 0.45107948082231986 1.535502145798304 2.5167793510323495
Ni 0.8795665010797998 1.0941733804377654 7.290051987353175 -0.3005696728638049 1.0267497357445479 -1.1077813943065826
Ni 1.5265339651285599 4.853299994855306 0.883894079725208 -0.39869813900712625 0.34947514031525617 1.1637231997795248
Ni 5.326783663557014 0.32631088630596605 2.7792534185523694 -2.5254732792619214 -0.9016205726426666 1.2828524365442293
P 4.767219614327406 2.592648301274897 12.138028432218121 -0.028241254233880395 0.11933852456203317 0.3154489039684825
Ni 0.6210278615618939 5.46898213266777 3.8874202887773577 -0.8759257389797238 -0.7608876415652572 -0.7789244444623101
P 8.19517189794935 2.677047171739893 4.315130851409583 -1.4112325024832404 2.462187374719082 -0.10337557347487357
Ni 4.58078449586948 7.733671298212403 7.8606659598532955 1.1467256367802638 -3.661101777687759 1.3997520126474667
P 7.158049751788688 6.781409975830723 6.635788432663341 -1.0380548763447217 -0.4133392859590688 1.1329447809460875
P 2.176807167092194 8.669921318731376 -0.21704137332266465 0.07520348191603177 -0.492406621705881 2.3422325567292885
P 8.792154165611715 1.865755522653769 0.8204660419018593 0.0582488563395642 -0.3175929468946788 0.2698766146553223
Ni 3.3815998880967237 8.738650732786013 4.193970660124316 0.9902051038512947 -0.5695209474913805 0.055763113803233
Ni 1.0150130605533554 3.20655653836166 5.139544746332755 -0.8446277001973905 -0.4340711191897815 -0.6388029217166546
Ni 3.6622180482098403 6.874364221670715 5.71387836691708 -0.623955572291177 0.2612737034776597 -0.5906698136548538
Ni 5.446743700132548 3.4404804574972077 5.259731140032142 0.6693378570807182 -0.07595321559786274 -0.779985795847289
Ni 2.93115845069657 6.038829262666675 10.506886986950994 0.4119259505513099 -0.377953193150291 -0.5182996874225589
Ni 2.878135449317412 8.278942511907326 9.674737221831833 -0.07771750658713711 0.7261283837072011 0.1066285331945325
Ni 1.4802554821335774 5.013117363361435 12.080613178729598 -1.0853369492601375 2.2638051685593203 -1.3818507068870136
Ni 0.5493096095657768 7.510982083672962 12.384797425202327 1.3015001335524037 -1.6328788213772651 0.7865842750004131
Ni 9.004347800857424 8.141751616720164 1.2176433382929548 1.083205247629115 1.251214497923974 -0.5367036438510434
Ni 0.3670237557740614 0.679651584919802 12.652444860165382 -0.319242823793276 0.27633651134805315 0.44823764049815057
Ni 7.64198280445273 8.451066316698007 12.72800748764048 -1.8701970424805923 -0.18917894239393868 0.37445083642398735
Ni 3.863223174190842 6.072736635913149 2.378830438177218 -0.024076581333229506 0.9639384568452819 -2.0269260918759415
Ni 0.10343134700116342 4.5201392648095755 9.990849102871646 1.7933519111960792 3.956465737980909 2.9243969040162927
Ni 1.6635031227250088 5.2465516119841595 6.085309157306555 -0.05272149876343178 1.16836841186102 -0.3427514484381774
Ni 1.8961243335151199 4.328447117638505 8.340640072616488 -1.0391360252240427 0.9605607986223007 -0.04070956190422022
Ni 7.660978324723779 8.973646383610005 6.857608251065863 1.2701974667843803 0.6693450561695699 -0.13115274358814188
Ni 9.256528114961645 6.269759724327603 7.686769178243542 -0.5521161217513718 -0.40294894386368024 0.27818410607975314
Ni 5.27092426882999 2.496589729164929 7.397621512141013 -0.4444591472923249 -1.4453088753416592 0.2948047453555697
Ni 3.7972377628212737 4.776236943016386 4.086089778802853 -0.5392657481512647 -1.107136818744048 1.88530870131105
Ni 4.315826553100443 1.1819075538297303 10.497367053056399 2.050301276266772 0.8732304515357477 -1.2737237347700838
Ni 2.0292315614066574 2.1836533152054467 0.11230639406943654 0.8947403005830655 -0.9909988033971836 1.0126747457087206
Ni 2.5804619728519826 8.248250333726187 2.1481669855317738 -0.5773692398912057 -0.10747622590680844 -2.0854662542036793
Ni 5.709364159132822 5.764669209883064 4.90064651391222 0.2524962143953458 1.4089727599147863 0.6794314938712943
Ni 6.68339272166946 0.3175947511777037 4.4658911632417295 1.9683995563949586 1.287314071860009 0.20187762090752975
Ni 4.558647693063336 1.2788900325676678 5.290508317623055 1.063940485862232 1.0056702893664293 -2.1523301059057642
P 5.972991676357583 6.698165988650689 12.043196808110094 0.8340836061329571 -0.24895503401130673 2.0837744683235533
Ni 2.2591272476442588 7.10802944695043 7.710690044748295 -0.18605762315613764 -0.2968675414218694 0.15190231743066743
P 3.7194355856799795 2.2156482017320234 3.2690311045449443 1.0509548722358415 -0.9465997084565182 0.26012082082013915
Ni 7.436829337712146 7.6605810448737515 8.6891505873793 -0.8024382113135341 0.10146164428161236 0.5515263106861727
P 0.8173543243788588 6.838849250891575 10.253397497154939 0.15099240402188835 -0.21117010195304922 -0.7674125871679687
P 4.523807174122613 5.308915309372088 8.72851455317056 0.33615502616758236 0.977163697286304 0.8851135761265789
P 9.545895670841631 3.730624094944687 7.061471020247174 -0.6986977983000741 0.3461640736641522 -0.02008365812375251
Ni 5.079398424851953 5.365051876087502 0.10982108524019912 -0.516308368024143 0.7876101451617661 -2.1229025446732663
Ni 8.862186288011786 3.464271053167417 2.2978047508109376 -0.007739277625786672 0.9662992437679746 0.1375578757835373
Ni 1.6182224588882335 1.491674968055278 2.257589867015318 -0.28173994175181155 -1.5788995389473324 0.5994498738403289
Ni 2.591511896122495 1.2746031058138905 8.868294234729293 -0.3073568709889674 -0.17974787888802593 -0.46728000184158236
Ni 0.5466302803446658 8.649826349573043 3.669710930962671 0.6776443200638845 -0.2554815222759148 -1.4858127489929764
Ni 7.484659983842117 4.537554904746797 0.270755456859544 1.259663914242908 -1.2292174248275929 0.8420427130790338
Ni 4.023188367757447 0.9690487058118826 1.0943064229921928 -1.591113307404705 0.6826769973917856 -0.5636845433152614
Ni 8.72934699304236 8.694866797686547 10.809569885153271 -0.6944410799062491 0.2086573628335245 -1.971349383051902
Ni 3.160961746271375 3.969860477191059 12.958318931860665 1.7892772269060735 0.5454839611468347 -2.4846693578716823
Ni 2.1413753479095714 3.5775142885576146 2.994852573628774 -1.0630012618774145 1.11551398706415 -0.26478480195471177
Ni 7.4038920664250405 5.670319865034839 9.841900571936948 -0.6488919305215406 -0.7973489697160848 -0.5470525911855353
Ni 6.129113418351835 2.5067434630063117 2.761376749207791 0.2843578389906328 -0.2553362549473022 2.650858524238667
Ni 6.192327109837495 4.716090621535584 7.2365845868859635 0.12390557510742534 0.799754493833784 0.8748700440216997
Ni 4.130213711541411 8.087084061543221 11.696146989726103 -0.048756857688728936 -0.39019704351465057 1.2022398677974844
Ni 8.078020537522843 5.682690974783348 12.035272460962004 0.6825808381335535 2.1402130109272557 -0.25756154473339515
Ni 8.950225350590982 2.8598236199510603 8.953254840424094 -1.1220795560968095 -3.8109739520622754 -2.9165193010404287
Ni 5.655602032451289 0.6522614490270241 12.926893171816918 -1.347206634450583 -0.2920274397207487 -0.7926248247675381
Ni 0.3663696298814591 3.2208401348300653 12.697081561082461 -2.4113098711429246 0.17022734099210038 -0.2170124196664392
Ni 6.49015765042968 3.3089253927406586 9.198846776364267 0.276184302040905 0.3906529001051466 0.2188952385114488
Ni 5.674052447811836 8.381847232130546 5.87486078168108 -1.5221154400787529 -1.8916894080264128 0.4848396079919005
Ni 7.5316683530731945 7.733310974627495 2.9594789605637133 -0.2804636461425492 1.7643290416011679 -0.033756013404522514
Ni 7.540473183237742 2.1528964635603485 6.868669261215912 0.5979174963562025 1.5659486352136192 -0.5791906093706606
Ni 7.195172320100496 1.0463150171089555 8.90312736241699 -0.554468166923316 -1.2042880085757648 0.4745811634886858
Ni 2.731529945591243 0.705029452176863 11.841106091841231 -1.0880047259002874 0.3764838076936161 0.32728189204766855
Ni 5.459281113074092 6.923007905633297 10.090400042035338 -1.9164316479680994 -2.7143835413755055 -2.598848449719963
P 4.895374702693028 0.4196254557308657 8.411876045352805 0.6857101277911545 2.1752422346172477 1.2884268453082133
Ni 3.9582100146123658 3.56561437118937 1.3704722770651252 -0.7515347395954476 -0.5969785294817009 2.269017823108512
P 2.2201383879439542 6.753387887804414 3.94284821910912 1.1080721860741238 0.9935305686801018 0.09894556272797797
Ni 8.347644208763123 1.1193405969836492 2.876370787657991 1.6652307553454095 -0.16159923300345716 0.35219999544558694
P 9.095528145971715 6.1217591215932 1.7436612617676257 -0.6753483249408563 -1.500721804894325 0.3305250815753146
P 0.15363550925838734 2.0344054385232853 10.840117009993822 0.11508900525705987 -0.2052545077995626 0.8331181568958942
P 5.381414262468838 7.435277174577157 3.209871515342814 -0.2582557425869423 -0.5386175730443047 0.43642059325856447
Ni 7.4684731397200945 5.601710558841839 3.440913769705725 0.8494042956504275 -1.5463097779367692 -0.6963724926010072
