# total energy = -381164.68568212725 ev
CRYSTAL
PRIMVEC
9.26355040965774 0.00000000000000 0.00000000000000

0.00000000000000 9.26355040965774 0.00000000000000

0.00000000000000 0.00000000000000 13.55814239855824

PRIMCOORD
 96 1
Ni 0.6932609418919345 4.7814370432359885 11.814768117676921 0.33962035900836346 -0.028321215542196385 0.2634563129512753
Ni 5.636657265937246 6.861029966131652 1.7965488504035125 0.3238918925295131 0.38965839740236113 1.1885526001183788
Ni 3.7323121866856335 8.290618095031347 11.959555555386395 -0.8504725890139418 -0.4136658160605521 0.15846402980858515
Ni 9.088765584637615 9.23720471385594 13.004020846160612 -2.020669055222636 -0.6721138771639585 -0.3535158860435331
Ni 0.3451552505685323 3.0061146918770896 8.966053187175726 -1.4486230273165568 0.8573338349101494 1.8701764736553017
Ni 5.812405341294838 4.4865597116535065 13.308549870749372 0.36765515365839263 -0.6037546718632699 -1.9899623701673987
Ni 5.489468716002776 9.250025467403004 0.7527125546913207 1.4196001577216453 0.4230973937870972 -0.10304955759402253
Ni 4.897018359714836 2.3223072030160647 0.2844308259646905 -0.5419939457157052 0.46570494404497864 1.0622335304734545
Ni 2.4257162144654 6.513072491612262 13.220815712679363 -0.8536350459023234 1.3585613973417698 -2.6973785221770767
Ni 1.8275687747732379 0.3446253754941883 12.444151322459653 2.479923872766897 0.9727496273790087 -1.2720951980277253
Ni 6.33310950089057 8.548941457324295 11.422124203102847 0.4929002735128479 -0.2790968477020096 0.3211811784665694
Ni 3.9724048820850677 4.966004018432313 11.14418249408882 -2.404080443274021 0.16802853356856867 2.041870114780284
Ni 4.738352271019662 2.9001767312092936 11.181833267728047 -0.18513691111408115 -1.4789257920651562 -0.4894187427221507
Ni 0.848589373431756 5.284420031202001 0.8930775735110748 -1.5932717485086045 0.09730854134518725 -1.865072319659517
Ni 2.307772692672608 2.8045768926213563 11.674699532465192 -0.3852430419434849 -0.5936270965109647 0.5383257528354987
Ni 5.129514943908639 4.554220682685124 4.3211562428609485 -0.8490312285817249 0.8222876419392936 -0.27322367675068426
Ni 7.614675360333225 1.3527469795695648 2.995834003808786 0.33465273059044304 0.15391137744089622 -0.6874096269807645
Ni 7.22545803299691 3.681946263972202 8.800400528881424 -0.411806137143994 -1.2319721047545946 -0.48384176285500546
Ni 8.559214734552398 5.357972620193108 9.544634156028215 2.8274169496551176 -0.735909631463681 0.5760626052646401
Ni 8.708858125303323 2.4311168642615986 12.736193081310375 2.440347653136171 -0.21556540280726744 1.0187908859087873
Ni 0.8446347638297027 7.020279658492624 8.810216186727137 0.3218599497011489 -0.2765118605836528 -0.34637670389559055
Ni 0.6668570446121673 5.271330634697664 5.279594647876375 1.1639060052142924 -0.9761090307695447 -0.9539499781740022
Ni 3.977657315077254 0.5926171001924534 10.2704416553712 0.07218989190068859 0.6035500120516315 -0.6197106809718941
Ni 7.8479686098485955 0.44839937082340436 5.488200535973445 1.3029759467669817 0.48839930031870077 -1.2051629549815501
P 7.376148204926172 5.299250975153481 2.0990306303868516 -0.545904336513705 0.07100975554965835 -0.37562505923774664
Ni 7.150756763774708 5.455573385635211 4.867616777573919 1.0358876934900738 1.2230444632476614 -0.41080932044836344
P 9.276982398632741 9.433906939880771 8.826147640448411 -2.2508270111320976 -2.323765865383669 0.827522922196304
Ni 4.913692750166221 6.964966999945282 6.641605177696709 0.5155915444627766 -0.11518876405971774 0.22404721502603347
P 5.0522384077167235 8.624013268556528 8.525332373155186 0.38196102875810345 -1.8409052354950102 0.07962372247091448
P 1.5498938560064333 3.0081156187312557 0.44863188593469866 -1.2615418479919112 -0.8675562839691059 -0.06628149683605358
P 7.016685400995326 7.677611920736951 5.563976377024736 -1.822314102756384 -0.8525294715429704 1.2230524336674615
Ni 5.732386794228694 0.05109681682821742 6.550657494044708 -0.24146026829615835 0.020426900395784174 0.4690378650729535
Ni 8.131498092373885 4.6801771754448325 13.172101480975643 -0.22324271684686714 1.0542664531075778 -1.6224558262717284
Ni 1.6327285223488108 1.190032719414805 9.158430261588475 2.7756531868192647 -1.0818428200639498 1.2152871878997458
Ni 8.572387503008992 4.033683266993905 3.6238471295094277 -0.5367743491879787 -0.9975620584369981 -0.5533291682228664
Ni 8.264541201075431 8.131359139120125 1.5182134405038281 0.14904479337721427 0.28231406908772666 -0.8452211108070153
Ni 7.089144891056842 1.1807413785132836 9.869418859595305 1.1829177704301046 0.053265287082043755 0.7495974133634187
Ni 1.0536639961732328 2.6340441960549477 2.8139247411794073 -0.7120670205181285 -1.8326903037843856 -1.0830656367274571
Ni 1.8184349142259797 0.7377074559951248 1.226237452859886 0.3046952649964043 1.1584688933591212 0.5306137289032217
Ni 3.2868836364276506 6.291868175174146 1.9065590677615463 1.3112525849534773 -1.7476184137147064 1.0027009223254604
Ni 4.1951376843145605 2.5145536613702766 5.309313969790893 0.6688521756935513 -0.5112641207320163 -0.19113015258303856
Ni 1.5365913978463288 4.758472702164333 2.7949705910113085 1.3668066680696975 0.8111383101906935 2.988658285098524
Ni 6.015360463738938 4.407643527067204 6.550439800613814 0.004562936780334077 0.8074174096956804 1.1239227799531353
Ni 2.5932382572003094 0.9829460535588612 3.8380658027034387 -0.16250657530907495 -0.42527460394407407 0.2190711019676808
Ni 8.173536083411877 1.4488192592202915 7.55162763732649 -0.7881292508900297 0.8252194708741079 0.14177885584342034
Ni 0.00459101550428118 1.1449284932438102 10.829321831905379 0.23710739064410127 -0.0067859125735818615 0.4988156105560183
Ni 1.2655028633078214 8.864948947028783 7.113591400168622 -0.29994772300908984 0.8315839796395549 -1.0342792113523736
Ni 3.7386577186074104 6.010645316661297 8.639601044563497 0.048462980597393956 -0.45525778056972566 0.09292532467582706
Ni 5.368227370320709 0.46100706271470115 4.257012641859548 0.3327074339386141 0.43199212517356567 -0.3197069079138881
Ni 2.223261323734841 6.662725145913438 6.943667318853688 0.2945422357228024 -0.06731199498309698 -1.6433126151160795
Ni 7.784022322467536 3.255665472082559 1.1871925149079194 -0.8889406631821529 -1.2589478620124899 2.3110306772051876
Ni 6.696592685630249 2.6649288725910116 4.846778421284815 0.3839857724976161 0.14083628942449292 1.1939300623802083
Ni 1.8518948577317578 2.8948965075663553 5.13193273052409 2.314834367221994 3.6131159938371002 -2.9397782715683696
Ni 1.6280319023716712 7.687357175600759 1.796724857858277 -1.88483716099127 0.8502010805201101 -0.47757649867158397
Ni 1.1005560875426261 4.570228097518453 7.529026427424664 0.018897608235451325 1.1406948572051516 0.4060769479697006
Ni 3.244854908939911 8.377445351531806 5.400411722956956 0.4782709536354472 0.26881629171160804 0.08203978811157484
P 4.097768507628727 1.0827237533098955 12.32024300066039 -0.16929017388981168 0.34626228980491336 0.6346906993204939
Ni 7.169293127826496 6.6620396431948805 13.699146540718026 0.5706800007964881 -0.16033322180684 -1.5403499608089084
P 2.4767491127968877 6.579158659101249 10.506787244694198 -0.28025564389680124 1.3842315484143644 -0.008059122859050638
Ni 2.9938868055460737 4.506216965285638 0.17245951501856885 1.877994427037824 -2.002615025934403 -0.08255812250889007
P 3.966207566967303 1.2996019917809023 2.149562370649772 -0.09469244387857885 -0.30440344478759834 -0.567822476743035
P 2.963715422379319 5.242798899925295 4.913727951657173 -0.2626065633564703 0.7901655645937683 -2.044851823116427
P 0.7113628454369625 1.2513388949743953 5.1889989791339035 -1.3749370104863161 -2.661236010818249 -0.21387747358188325
Ni 4.7815574693892495 6.574508356875363 13.206105194881141 0.4444650608295958 -0.41063782786750563 -0.8484666143275064
Ni 1.4057715412049674 2.32201076940804 7.084034190383493 0.49215722469923623 -1.8260730555781843 2.6104667506851813
Ni 3.352673370308613 1.112876609376149 7.247735018639959 0.6662080532024849 -1.2840431144182207 -0.731562667348895
Ni 3.5313579910956987 8.243985383068976 0.6716731643875422 -0.743569462001784 1.2023648234111228 -0.11989593972739997
Ni -0.19419550932697352 7.863531374269886 10.674243516222328 -0.9758902298905192 0.2693703644428651 0.8505114126716771
Ni 7.3243742225746225 8.28208636525039 3.571729469443576 -0.4953142822709792 -0.45570489540947323 -0.2366926717041859
Ni 9.094453404491587 6.320251693142502 3.1795200153762617 -2.850373815561607 0.03852309577586269 -1.1150689291069313
Ni 5.280603448498684 7.109450593206527 4.102273372115675 -0.07556883567525051 -0.6688323781992094 1.6572569931113135
Ni 3.515850807975911 3.547207925574765 3.056791869878947 -1.7181191187040088 -1.4501006403033478 0.3996851855107439
Ni 8.327561133431415 5.712294153734776 6.984720594500022 -0.8320961433892831 -0.3534485231407074 1.277485001584729
Ni 5.650524800662647 2.449718073165143 2.829394870098192 -0.6870131628732943 0.6892520795061421 -0.8883824766858377
Ni 2.9517376519050744 8.27598168563513 8.83878312299046 -0.28961805894830767 -0.4228222857488395 -0.1683326950725488
Ni 7.528598451403078 8.346319822689223 8.33014936937148 -0.48456270018143005 0.3607741102678432 -0.6388111492467708
Ni 3.978055647738037 8.469191553215422 2.890487057646989 -1.013777491854596 0.06820802443480511 -0.020993828642847715
Ni 5.340686835425172 1.4650953170108927 8.596933132108454 -0.3216794582592266 -0.006738604275414201 1.5233521406993311
Ni 1.532617334788749 7.33337839341837 3.9336239553152477 3.3660460926636486 0.46221030062815877 2.4568189113183174
Ni 2.0850491539933658 4.579436066467718 10.005529129784883 -1.2898944309926752 -0.940543217849793 -2.1521796963708293
Ni 6.0771668710120705 4.787078545338708 10.858689138910366 1.1869163500665367 -1.9661416135987169 -0.4988426071392119
Ni 6.557898811275734 1.7785831210471708 12.179780714563003 -0.20294334316788273 -1.088759858898757 0.6266092078639401
Ni 8.939112930336439 3.137397726030989 5.904679565342749 -2.2812002241073164 0.8114481281216284 -0.3039005370092508
Ni 3.2503574577888683 2.6047065324107614 8.98602447516136 -0.8818644730616618 0.8680915876472856 0.6883637633639177
Ni 0.2024215419496565 0.02532376732052756 3.1064824797790975 1.8118823659000989 0.4742363785547574 1.6047414397111006
Ni 9.1066442366216 7.323966626363589 5.534528477132566 -0.08655567370405738 1.8065352426555725 0.23968543578392268
Ni 6.694174899014798 6.278000640448745 8.80319348928203 -2.659668666331129 -0.2669460712720887 -1.1118193118213822
Ni 4.963734448620874 4.546476354675481 1.705681759638693 0.9556484489223477 0.562923753889837 1.256518683745707
P 7.56740346340355 0.7895268297429022 0.6214656483833986 -0.8209673804659732 1.815499393827396 1.1080927548994142
Ni 3.338796572032961 4.423984429709561 6.729759900948103 0.7472361122200938 -0.7875366116113534 1.3092273269933323
P 0.48246515051558275 7.322688256428982 13.603291028143168 -1.069007101751862 -0.3797894750280814 -0.8024603228007212
Ni 4.773238801264059 6.959696039852594 10.584991062266218 1.620931933428034 0.6045185466124878 -1.712280914755677
P 5.72124274327702 2.388069146246275 6.918801170915549 0.5397779119009929 0.7146545787396466 -2.3989269240975397
P 7.729469275040756 3.2529141976580807 11.041045831016858 0.1968986796356996 -0.25464051443185826 -1.3531816210870953
P 7.275119925891283 6.3567778717812855 10.863813734909092 1.2938855544299395 4.323949656168759 1.689726940714561
Ni 4.859232338241948 3.9375090882904202 8.721207364142622 1.6602178755118502 1.603798101961225 0.1099768808414751
