# total energy = -340887.21666592686 ev
CRYSTAL
PRIMVEC
9.09072834080565 0.00000000000000 0.00000000000000

0.00000000000000 9.09072834080565 0.00000000000000

0.00000000000000 0.00000000000000 13.30519983167181

PRIMCOORD
 96 1
Ni 5.270904314476644 2.8246711231663126 9.987641463016853 1.1001452179175633 0.6167497985713571 -0.020293460141713435
Ni 4.40339428634355 0.3465167482119086 6.278524284739914 1.4465969980254634 0.6187364899840828 0.4762822053401926
Ni 3.556611118923701 3.121765217451194 2.754721604550467 1.3825351345485482 0.29553082488831683 1.6396387658089182
Ni 5.392883707919762 4.953310627688094 3.245124583462851 -3.06359051563104 -1.7402843419471383 0.8054170914361999
Ni 4.689888591333851 5.05932670209066 11.755836314371129 0.8737508428155919 0.06736675948043236 0.4171355197767074
Ni 5.845029265505121 6.038870866815868 5.305329084717395 -1.0357421690511452 -0.8745383717138938 0.6876019454972288
Ni 3.7895428522813552 2.7710994608052832 7.351109327246631 -1.809517465212348 -0.5769344663466321 0.25228075595043004
Ni 5.400629008502079 7.8014903744528485 13.080674524340731 0.9527801262356171 2.0039458289306844 -0.6040369789903791
Ni 2.351462347917538 5.348502771953947 11.952966032138006 -1.3606702161546567 0.09684959943089771 -1.1068316287988036
Ni 8.237354437504253 7.278791673887013 10.008703771607431 0.5703097619412629 -1.7598216406491176 -1.655894051325516
Ni 7.800263126121144 0.0007063495953592383 7.742029738245311 -0.13340065908205412 -0.1083300892666715 -0.7813407672132866
Ni 8.372633566571702 2.253055213171544 1.8002869406919486 0.24093936279568184 1.318820369998406 0.3260809297610319
Ni 1.5178061922827428 1.564177997764435 3.1404530277881304 0.0719626063812309 -0.8562686268704285 -0.8442762303952427
Ni 1.620276882615939 6.768320002996314 0.7069450380683248 1.7761476315026505 -0.5621570509271415 1.1470755639205148
Ni 7.466915207044852 4.177635137680084 4.476933733597843 1.2246100079625681 -0.036377767298085735 -0.6737128462199622
Ni 7.602530693062472 3.838032797476287 12.910780628809325 1.190708470119117 0.5611553491355046 1.4863668217242336
Ni 4.487974423218999 0.5395529109879216 11.138727672329304 0.6785956282335603 -0.16532296171194755 -0.3100087067895177
Ni 0.7090995406950962 0.5535844502470848 0.735316292278835 0.4313799455108635 -0.8926942166873142 0.5044121308071893
Ni 3.5761107313052394 4.115936364144651 9.442075035203576 -1.1705826459035196 1.7895477069586407 0.12056545499059881
Ni -0.047004520177149 5.084435293884511 1.7872081097673238 0.6384869331381328 -1.221788479353373 -0.844520742305881
Ni 6.117460213686919 2.146611874534976 7.417995270397404 1.521356450425541 -0.16301282552153215 0.25239722692363625
Ni 3.1902093114468144 4.552127693417842 0.7011478805784845 0.1844483696874888 0.3605745926625274 0.8308077635951626
Ni 0.47294332597999095 0.11489226159572967 5.01647300849319 -0.5344832391609569 0.5802216217383361 1.15120475559754
Ni 6.546224417871198 0.9180453872142005 0.7951905566277997 -0.4343308006090713 -0.11030392516359067 1.3687254823589654
P 0.09138545614296367 5.620833722123531 12.893270976870825 0.019312841395998998 0.199370795325276 -0.3766277894706481
P 3.802924404461134 6.548315285399288 -0.10640879386871242 -1.185743669914674 -1.3403651860487173 -0.2813501625125606
P 2.407061242707977 8.648773531933763 1.9010731190557746 -0.3104254826119621 0.8370380607755906 0.3487747718141219
P 6.279966074261459 8.023522324479284 6.194448683289723 -0.5107308739363656 1.4344948154452906 0.46752914173791094
P 4.389794556682579 1.2936106489011532 -0.08704917870427183 2.3402368664554984 -0.8058698627029024 -0.2823770611151782
P 3.8979406975202684 6.275684341193065 8.654433419425022 -0.765963770536584 1.502967149285076 0.7124668270597084
P 4.584808861954734 1.4765797390658297 4.324788576161411 0.49434934725454854 0.7153996844357873 0.29517112755605296
P 0.04688997699952317 5.847101951576446 3.8352637616108245 1.007527397179826 -0.6262433398840892 1.0247843844880609
Ni 2.5758033429532556 1.5637325520736678 5.401392629686252 -0.5635328482287456 1.515879743581686 0.1157906593097748
Ni 1.359200254184511 6.885072227619205 5.326496845757215 0.8067882607521137 -0.8950547464996907 -0.2775451869441736
Ni 6.712830196946471 1.0628606903554187 9.603507280756082 0.7822103143024335 -1.5158429768064796 1.0235744233403599
Ni 8.684045558059811 2.4313789411325066 10.814705931501132 -0.21989616897213743 0.607076022927019 -0.9225709496420885
Ni 3.388078105431231 4.867630512678302 5.610123935015517 -0.4246166586451009 -0.5579661527742455 -1.5313955798290981
Ni 1.604959005290581 6.8305096758644295 10.006707447654522 1.2127497661898727 -0.9716412248061782 -1.2893455004677408
Ni 1.5470510654908596 1.4355441911449598 11.797787298640166 0.15734251460963225 -0.08770804214094573 0.12302831470879456
Ni 4.233579480149077 7.30270938026269 2.0088855213868224 -0.5151074057375064 -0.20949837067758112 0.45608464734639514
Ni 5.3595843698528265 8.011868010692275 8.230796386048755 -0.3204828668479642 0.8681954602150016 0.8952879455564193
Ni 6.892972070584034 0.9376631790647184 5.257057317003656 -0.09632355172409862 0.12664791373925285 -0.04768959276647916
Ni 7.795054138757684 7.123012952315894 4.963797691950725 1.9353287419829184 1.384660922642299 0.21717902715129048
Ni 4.957592360756488 4.826713144226411 7.529279421897921 1.3907333540886242 -0.1454961567940075 -0.4907541737041226
Ni 0.7537622892407839 7.808144787629207 7.608472393133602 -0.7806113452464298 -1.4852221665968293 0.5397725125843543
Ni 6.525379377688975 1.9512793937694166 12.026636385881016 -0.9067836049008448 -0.13860637165270967 -1.346080748376256
Ni 0.8113711440767045 7.82284449542452 3.1600117299041584 1.0457926113086118 -0.6732986415006791 -0.7282184334670104
Ni 7.068350402548904 6.599659719306482 7.607381505727642 1.708514248624393 -1.922624664152689 -0.055097198084459946
Ni 2.1896746548852555 5.560980366449848 3.021211761733973 -0.22685280279562867 -0.05461794445519626 0.10195966696395344
Ni 1.2443843547071984 1.0934237191790708 7.610228721857198 -0.6206671313478923 1.6411711432930445 -0.5483216877059459
Ni 1.1703494627560318 3.608073732299874 4.504222282057937 -0.18326463379203276 1.1392483545666123 -0.6989777914343381
Ni 0.6887444907727168 7.58556739389979 12.010351255055706 -0.6658789519978403 0.15817246671009536 0.0436241644478539
Ni 2.2871636260645665 5.287694889800048 7.601819798102921 -1.0841640119979585 0.301587572605358 0.9048650477218932
Ni 6.136996188981989 2.596657473863862 3.195097396098354 0.2538964371769821 -1.067311202106678 -0.23497157524802115
Ni 3.742871052763024 7.171984706115125 6.333820458275199 0.6680301940128882 -1.2738180942561028 0.17864436141120202
Ni 8.565066104983083 7.618721280312599 1.1669322579568617 -0.509671836544232 -1.1688448372768063 0.4804131967894306
P 0.30446758407633384 5.841729331102092 8.632280223428483 -1.0620257853380226 -0.7032260251877308 -1.2492668872793
P 8.460322732554136 1.9656791075280915 8.539756608091968 -1.4613911256155026 -1.7943772671368001 0.32985068121610933
P 1.974351662405475 3.4348499029617745 10.770200452556471 -1.5985401959963954 0.2360756069454773 0.5156457947394797
P 3.9402216752296098 6.36061901647545 4.08572060114523 -0.1385922305853226 0.713539491298597 0.4974117882299563
P 6.659322169684122 4.239370274129049 11.040761437909886 -0.3047101773947397 -0.8557963152197002 -1.3132863275540545
P 6.63069546600605 7.944805707410872 10.941690679991932 -3.96065689324412 1.2968729191930373 0.3127623582752549
P 2.204128913014228 8.60581984032408 6.2760361523814865 0.1560867878256602 1.7673716850822334 -0.2150948909287521
P 6.9211169656578075 4.107054722514459 1.8428897301860483 0.32451075706043464 -0.8026120178872371 -0.5584940002532575
Ni 2.7217549871423494 2.0788223129829317 0.8500176485785217 -0.6933041380883286 -0.8745681965105646 -0.2175775481412898
Ni 0.8505976370493572 3.396787023222146 8.822066450807574 1.1690703230240511 1.1929309316917327 -0.8207874032446832
Ni 0.3520839102736589 0.03749743643420573 9.865526617720828 0.3965204146295171 1.9549195196306526 -0.5554508425515595
Ni 2.864097612163391 1.733083731120608 9.628307696857751 -1.1209600977803855 -0.022040524739807204 0.4434322486897073
Ni 5.277822358776108 3.306806993687195 0.522046895340775 -0.09598133789333148 -0.29406426764511934 0.4413787085947882
Ni 4.00639308712948 7.331708803804466 10.726984947969358 0.26002903243728126 -0.802091883717709 0.07934450066759885
Ni 7.080104714348126 6.098196960243338 12.078048091178243 0.4107910656159183 0.6017471545149378 0.21540162353589354
Ni 7.330699732953954 4.020056451889132 8.794191550366774 0.3907729706227786 0.1587594495618169 -0.12279794386554337
Ni 2.734509279063701 8.691481773877106 12.864238826706872 1.4945565566238777 -0.07627691748586864 0.8899282239064029
Ni 8.945603995095539 4.901284389152174 10.591457642017051 0.2780676351065469 0.3943676299525724 1.0374689219342648
Ni 8.55691172162353 2.6688651294100447 6.260601913732827 0.34067579685607136 -0.6933151938319221 0.9916518636001501
Ni 3.780861206675589 2.8192803212351922 11.767650624977678 -0.2727194834207561 0.5048343059462725 1.1412772120711827
Ni 1.074051376994894 3.4969668500028264 13.075898255648303 -0.755454386364828 0.5698017119565929 0.06875592651847513
Ni 2.995667724050576 8.814952046775035 8.409085569241862 0.48734617646383804 -1.5498157342074985 0.38277555423959886
Ni 5.527799207851891 8.316643770460795 3.9960832920703178 1.209979402533587 -0.5952684887691296 0.12337695629746494
Ni 3.249680856528412 8.830006292977286 4.054413950739848 -1.8881348579059354 -1.6067067909675878 -0.2740209758409991
Ni 5.265540784730673 3.3897780716388524 5.616803802231347 -0.03761266814645135 -0.7566499493348259 -2.1472853443930053
Ni 5.736840507019017 5.899182734482663 9.664112439667042 1.5312089177395887 0.08984874263303236 0.6298192301608057
Ni 8.066185112780712 0.10134889445073363 3.0678462892659333 -0.8241671183501935 0.8776100686606821 -0.10368513429549239
Ni 4.523491899011387 0.7405616425558271 2.234022864228891 -0.33440924712106923 0.1754561934912075 -0.9455792376118038
Ni 5.851320049546158 5.807675462579367 1.0711868884814102 -0.7706948574636663 -0.053167842272231015 -2.5310749417194147
Ni 7.716901146849017 8.599174517876106 12.636360629257329 0.2968451728243662 1.3282144096187964 -0.9635072828451342
Ni 0.10709968922582055 5.145397718420921 6.407465357978735 -0.901667366720202 -0.14284200700061206 0.33948691875429277
Ni 7.19632058599642 6.058897741443621 2.8675366347106808 1.8329700398083335 2.334054906014503 0.801124377598117
P 8.751316948094024 2.0235597751426635 4.170168922459125 -1.5909623836491373 -0.8807139043969864 -0.2634267452649205
P 1.5514055243863174 3.5263208119515386 2.1711022967987827 0.11712017675447571 0.32379727593317786 -1.0243799499607906
P 4.701915624984563 1.1218595175611004 8.731218256712046 0.22962625177570772 -0.5279852901414391 -1.0589484319642797
P 8.553993597812587 1.7599741056775273 12.853461768208824 -0.7085602929164507 -0.43085569757627734 -0.0025235377528021056
P 6.588814480345561 8.067794171704504 1.9206054580594922 -1.7060220783301587 -0.22434906253716846 -0.449080191004104
P 1.67079406024028 3.357996885211878 6.562111374793331 1.1708248438213127 -0.2316386542200462 0.8812456085307404
P 7.019151380540099 4.206380020827136 6.531362895110666 -0.8890836165179206 1.3465957403394615 1.4650672889155092
P 2.286436367793926 8.706290570413016 10.711857066867205 0.344118246878717 1.3180197284739816 -0.2136422176426256
