# total energy = -381167.6872934175 ev
CRYSTAL
PRIMVEC
9.24152894107708 0.00000000000000 0.00000000000000
0.00000000000000 9.24152894107708 0.00000000000000
0.00000000000000 0.00000000000000 13.52591175333230
PRIMCOORD
 96 1
Ni 2.730308107036022 0.8133645323929598 11.877117049402354 -0.22889965802232837 -0.1423190446176065 -0.6580813103302924
Ni 5.6570171898766235 5.111831665425296 1.3208982191055803 -0.40619804692859723 -0.13325230642964794 -1.4997424717001913
Ni 3.14675913153639 8.084434181629607 0.4094986221806906 -0.048856616491386826 0.4615353860483213 0.8959415199800183
Ni 7.06390136791212 4.9093220389051675 10.093143367483226 0.6082805847580814 -1.6432545081846346 -0.23413416694839034
Ni 1.5891363728332621 5.970277300776675 2.184718727764316 0.2887616244852833 0.5991845359940842 -2.0292717092899824
Ni 6.777534106606994 6.193977753455278 8.213812816156777 -0.12390274689394791 0.014953535986038765 -1.5899861357787972
Ni 8.89262438189604 0.9868289571976634 9.847999794902526 -1.0194313477062638 -0.8869357169369821 -0.6578141727118348
Ni 6.425339433733261 7.1723599530825775 2.563647295932962 -0.10789248750862063 -1.0569139180327538 -0.4196677992802579
Ni 5.29909276897923 3.3294271951423253 4.717608366645104 -0.1766216745542184 -1.579798396612518 -0.9441651308730965
Ni 6.821329712871718 4.56120288035149 3.1660369611772876 -0.13509758716850281 -0.6846030107699048 1.9394512487917244
Ni 8.422674145607006 2.3177662493324416 0.4275362386203377 0.8939180617920863 -0.5658447841913739 1.6372347843531156
Ni 1.8759010198884167 1.4903813931867467 9.706316064418093 0.5723455614243691 -1.8678791929806928 -0.6121344112865329
Ni 6.289220952055034 8.928407582456709 3.8826131113099174 -0.06395747668856727 0.6204287900848412 1.0098771283589254
Ni 1.7027702142831551 2.123952901667579 2.486806754171135 1.5152783625522612 0.25894685511669596 -0.5637143681119324
Ni 3.5689953532348415 3.7811993437498415 1.0778478528593298 0.381560193775259 -0.7761725927487858 1.139744063256108
Ni 2.819997146664455 3.2363927219904003 12.45768931281723 0.7975135203184072 0.13899178001658644 -0.1844177735598695
Ni 0.9143236167227707 7.908854370820684 10.132422638491235 0.5717925171343765 0.8336123229234933 -1.5123881854886598
Ni 3.706463098157349 8.07308558393113 10.42528577057996 -2.6012241490409913 2.2559018545518437 -1.0533783940756698
Ni 6.075473626185274 8.508869887246819 8.434420129055509 -0.3483549106678839 1.7260347740066597 0.077395347361028
Ni 4.872928897425851 0.6539647906805294 5.560204779640712 0.7415956261048647 -0.01273235996500388 0.8167813674090837
Ni 1.9641114148655823 8.458836248859562 8.034797928992377 -0.07367701796917633 1.227872223653608 0.8975638860747897
Ni 0.15307576336954146 3.1967650453364365 9.02552958391648 0.5581209331845549 0.7789470701701293 0.30235041891331155
Ni 1.966015169854089 8.36036775661423 2.895316532741291 0.6511552726344205 -0.7367059021127311 -0.004569107427921164
Ni -0.5882621397543734 7.686549389031715 2.7922891942055195 1.3944110600505275 -0.8683576968244786 0.5745549103708621
P 2.060851741174746 8.858079546230806 5.706906660410383 -0.12572720169719637 0.8924571609758437 -0.18232361003500214
Ni 2.1465576817738277 7.384794981824339 11.988421101373593 -0.9419128445038101 1.1150051657485314 -0.38865335317661454
P 0.48120179793227075 0.48276916126261404 2.309427617652201 0.02472449932987355 -0.18372460414758682 -1.906923708477664
Ni 0.4623527752402407 0.9000537716851341 7.357744102082309 -1.0696555339691385 0.9185862539627276 0.03293840259923359
P 4.773286730988574 2.2416068082631044 2.2117705316592513 -0.38760202909396474 0.2589885069879088 0.1066969245386227
P 7.4072888635817415 2.823166991135609 5.134774685495522 0.31117573051442543 -0.52544761132125 -0.5633073624815008
P -0.3439789535301289 5.7998265386018355 8.629396985230338 0.3101740287227884 -0.09870310769986872 0.24884859034042953
Ni 1.4428152430612913 6.3423320196227415 4.4211197827020525 -1.2294012587036247 -0.19456488929620042 -1.5418399150908735
Ni 6.416569222645432 7.939915150026369 6.231374524991643 -0.2774989070872705 -2.070002097129809 -0.6696145077808725
Ni 2.5349236994291875 6.309219620963424 8.853697213145614 0.20004339591226838 -0.2037398709272491 -0.2403829760715796
Ni 4.079589834375585 7.742913474832211 7.15351647530799 0.33226880373929873 0.8403936075113848 0.11340904645147565
Ni 5.4087712359869835 7.3437533512226 0.5389992448915889 -2.0603728015701614 0.11742896624414616 0.08915145945569163
Ni 7.694506345561347 1.3599187272996176 12.043296376840846 -1.6672408437969026 -0.3834355564211009 1.0204471905652877
Ni 6.722029483010047 6.241543903580734 11.843125781328439 -1.4041907651451107 1.1784882739038411 -0.18200916411837686
Ni 6.361471226327583 3.056330769582323 0.14250252996007315 -1.8521260439114942 0.36677866459071023 0.14532646398536261
Ni 4.228387693938429 2.42075384929321 9.587964422377748 -1.7734250903651652 -1.2709999080810173 -0.1520082468809124
Ni 4.866311962611429 2.678842031642849 6.92039798035372 -0.13661222404081635 -0.9430832106628274 -0.9036592003392501
Ni 7.563729467685824 8.188512282020685 10.32823770135275 -0.415709071742826 0.10963466701070795 0.3151635115175798
Ni 5.300515964456076 6.901065625691307 9.818770686758599 1.8048038617867628 -0.9354475484944405 -0.03242443907729254
Ni 4.480958683433027 8.92361122886916 2.4483120889812047 -2.2121128823913514 -0.3014567034544486 0.8591089245327012
Ni 6.308295468056382 4.593123121760723 6.385528774803703 0.17227908131480654 0.7226995605313102 0.15098057694734646
Ni 2.770702830602831 5.712179876897965 13.461582753443427 -1.060089744657574 -1.1240240814176898 0.4662045093892165
Ni 4.327401436398916 4.907030139695703 10.024702451493505 -0.22295603884438378 -1.1652404077549998 0.667089941586806
Ni 3.6153785876392828 5.107663735814536 5.490559692413114 -0.6002520580266502 0.873556981637231 1.2179161408821604
Ni 8.464427373947165 7.9570766695101405 7.85781063330603 0.30014389818029596 0.03324256410321372 1.213769979924271
Ni 6.075926461109725 0.37202329764722764 1.2208069143554818 1.0850034771801185 1.2379823155044163 -1.6729813458251057
Ni 0.823629098731476 2.2288257735587127 5.120991869039896 0.4907937686928064 -0.23164842441205913 0.19502871630649637
Ni -0.25356907463420325 4.37272189496026 4.578169403571875 -0.2827508995148292 1.135263144666619 0.7271874210993347
Ni 1.395470889633526 4.262803148196675 6.879035668693238 -1.365809851374067 -0.2520722394840497 -1.4392572698309407
Ni 8.052144279057558 4.254411839800733 12.373815043279906 -0.03715038379805215 0.5445380522937977 0.6543159297505893
Ni 2.0719323345301808 4.279909218506024 3.5524992238441406 -0.42657789613652985 -1.7046743060530125 0.8222192505952033
Ni 0.7088206589367326 7.621091638625924 0.34444102998364995 1.6205768640814606 0.42845582988553305 0.5179590162536887
P 7.85030928415957 2.801015045953811 10.574585445171328 -0.5659224315068447 1.245453427070481 -0.9328085682096966
Ni 9.084376868578197 8.415779964920471 5.6984127710417605 0.7981213291057351 -0.8282104351816317 -1.0650378326914691
P 6.735864052028466 8.376688296952592 12.840851425453035 1.6915549950622355 0.662267323387182 -1.5755987567088736
Ni 4.8247343233236055 9.105909631312278 12.1930276308398 0.6864140958367146 -0.5016556511079747 0.5678471593333833
P 4.658617838282794 5.737030348568327 7.352374773692395 -0.0488563593810707 -0.6127869572688672 0.9326409322835809
P 2.9134382470954785 3.1185262602262545 5.429531406890776 -0.3792886241322629 -1.1288161034896944 -0.0893049543144204
P 3.7499537339627493 0.4023650858912329 8.712256534875731 0.7902177579879424 -0.6566278657132176 0.8327708008588045
Ni 8.3964004784598 0.5844795819058504 3.827035479633314 0.3082618993017401 1.229086298566367 0.816662325332716
Ni 4.910394056277336 2.119101098905608 11.768125228004532 -0.09007757081438679 1.2378054236069198 1.2411440010618495
Ni 5.910900476499222 3.432682799446136 8.660654609005222 1.826626871199125 2.022742135701581 0.6100662159035946
Ni 8.856323655707426 3.069767952850715 2.938409782796662 0.9675626838614304 -2.6175380557096664 -1.2216506682239283
Ni 0.008409791454082839 9.02754146479511 11.952266391344294 0.9181617648307995 -0.9831841924487713 0.3194076315059144
Ni 2.9064886172345217 1.3931882319531321 6.980588059189371 -0.9296533104101666 -0.29180812462109096 -0.6629324677750066
Ni 4.394957013903691 6.581789279366412 12.112860138612623 -0.2337706129613845 -0.4136187648727006 -0.8279055023467031
Ni 1.8301646925189046 6.869200833456496 6.393387771125188 0.6211214452764916 -0.8887694277116114 2.1569904874959107
Ni 3.794682734663585 1.1968704299101849 0.5602584583651846 -0.46637291664628067 0.5922872946536186 -0.1722168606183034
Ni 1.0472408327310037 3.6782394683762845 0.6325808165644831 0.7908044837293478 0.5021313051928127 -0.09897975840002309
Ni 8.837350796525852 6.280894334362585 10.894486518861383 0.7974237888180783 -1.0263938950670257 0.2723477019036342
Ni 6.870365266119369 2.0488285118541287 2.680808629029034 -1.0833392021038182 0.2680521598520738 0.3752615052507408
Ni 7.2639065400541645 0.6532153026729183 5.844871599596881 0.4423187039105544 2.5601062959547582 0.8029784000877204
Ni 8.891718712047137 5.717678586694865 6.289373437284696 -1.1844653174228825 2.5551034434235285 1.4301830754438143
Ni 4.32683770312562 4.821324199096621 3.305219009742358 -1.0687785306808237 -0.3099017488980082 -2.6844535865852928
Ni 3.2062930618080396 3.997183119654644 7.9735931302647955 1.811050614027423 0.4306363824766197 0.6708396384372253
Ni 0.6413602691813827 2.938464307818178 11.766988519928871 -0.04185241725941179 -1.2101400964811675 -1.0324254459730866
Ni 1.287197135044477 0.9879286991570434 13.595840915319776 -0.44137408060909794 0.32374379698742306 1.3236278186893784
Ni 3.1569525381010637 0.9344572119555893 4.108509351295653 -0.8858584247124034 1.0148462994387426 0.25948035902266275
Ni 5.587243645394948 6.1034569762105075 4.546451551649284 0.07274627862479084 1.3666452027911689 1.578624688019391
Ni 8.461174355714379 4.853179749802361 1.7362809228454077 0.533755874076629 0.8209126159686377 -0.8986316652176718
Ni 8.275086926352387 8.955540711807462 0.7986316867488951 -0.6012607017968226 1.6266935185021596 -0.26266878405297345
Ni 8.305010997482409 3.4693531867975653 7.0509493649199255 -0.039119077488648756 -0.37918089490980506 -0.9094405829077176
Ni 7.102198264379943 1.624318874004354 8.096231917640907 1.0879725871107715 -0.7996843027174808 -1.0116905274185803
Ni 1.9435305296257552 5.296394242490667 10.936497585862607 -0.2067226077046569 -0.059047183871143466 0.8056713735388512
P 4.08057867798612 6.82754926193611 2.452735084794308 -0.8105955503133458 -0.43717778313956324 -0.05676430137423772
Ni 7.519102123804762 6.497987093755838 0.3626930498977309 1.5802437116800527 0.49666745386476396 0.944807649553102
P 2.259812620531833 3.4912925768107437 9.937054865636727 0.1428551196267346 0.8628640206997591 0.3089144452840744
Ni 6.181640312146267 1.1835164204034274 10.111389842479864 0.5064875252789793 -0.633036965767155 0.07025462255118868
P 7.661162908675269 6.372450162863243 4.312115023163534 1.4215446830425258 -0.03130112410612674 0.5674301264006227
P 4.770098403459279 4.449066166611004 12.21016512234799 0.14871877749636322 -0.8094982034841091 1.0177279918619118
P 0.33262019014967487 5.659318330615159 13.595570138518013 0.5723483896378465 -1.719887266348025 -0.9108346350417668
Ni 3.851444206214109 7.874004564696128 4.721733785222139 -0.1824385383463116 -0.626654973500211 -0.5081397161704216
