# total energy = -381172.89259930997 ev
CRYSTAL
PRIMVEC
9.22888550605180 0.00000000000000 0.00000000000000
0.00000000000000 9.22888550605180 0.00000000000000
0.00000000000000 0.00000000000000 13.50740680814982
PRIMCOORD
 96 1
Ni 9.0941806275083 3.152670326061679 11.834892888215412 -1.095685896594629 1.6821997790995804 -0.7808049493144746
Ni 5.619616006206433 5.074142732311789 11.258991056138582 -0.6604508390037336 -0.3210698496996857 0.26463902040546683
Ni 7.615990046682564 8.26004627484068 2.973682553184682 -1.195880758348676 0.3815943894473041 0.01604034129231431
Ni 8.227403707041589 3.56538608291082 2.2356107461670414 -1.3143445936152396 -0.6030314205440002 1.1747853711309575
Ni 7.103251629441405 0.9102615828799895 1.5782455423167916 0.7091760721235786 0.6267256788371465 1.4672205878130862
Ni 7.000838687720589 6.244669959244864 4.128781852328744 -0.47119862016969816 0.8477269079480045 0.6035042464153606
Ni 3.7636963732322504 7.48935128068337 10.804560737103436 -0.8384377693365948 0.3823271538482706 0.5770802478958771
Ni 0.2969947623247365 4.453435584315306 9.477850313214077 -0.2702373404288507 1.1757243380054592 0.6670706583130963
Ni 5.092489756565279 0.3002940888693153 2.6438449562468187 -0.403690192905079 -2.0651635380905855 -0.23373847417186844
Ni 2.9909156509656394 1.128406593787738 2.9580137514857 -2.2900723297859655 -0.9511898989303617 1.8537579230879624
Ni -0.2566922196109574 2.2475658443652162 9.726251302146293 0.8256501306536231 -2.212183587728287 -1.2801826030215502
Ni 0.692204246383915 4.595680395592494 6.920249291398277 -0.11533094606453687 -0.5720388288172278 -1.259490107669205
Ni 6.590550127742005 1.8012938600584836 9.493018909322243 -0.17338388434321106 -1.7233664831458773 -0.8310314495701946
Ni 8.593605881276247 5.090930074926023 0.38223274824286413 -1.8705590538057013 -0.11196897157083942 -0.7039454198522586
Ni 4.79597489628339 5.166117804600665 4.739911263016236 -1.1176390038269526 0.3981193836855208 -0.046741112810280795
Ni 2.4094589527428463 7.739694027112033 8.59089997206542 0.672510598381745 -1.1528155517280856 0.24160733539698392
Ni 2.19632707240577 2.6762568019099264 11.099778938981093 -0.7072706275707498 -0.5016816192499037 -0.2941509138216547
Ni 0.7338588208145633 8.75234271083361 7.173405924997407 -1.0727066620906365 0.10849386853804541 -0.3682447076132755
Ni 8.791039427480936 1.1723730040209517 3.562780768551283 1.2045235216253387 -0.37228416778997175 -0.6477835279487101
Ni 4.4600157796335855 0.5962072258205563 5.043922746940534 -1.0108752306061364 0.014139524725175647 0.23568222816180057
Ni 8.195287185712541 2.5691371286150257 5.582044290694167 -1.1053560726945415 -0.09862006106775918 -0.7819424053530275
Ni 6.7442941302766615 5.005858208945805 6.100336651192745 -0.9705683034569736 -0.7543380133721976 1.367309318737729
Ni 5.18096708127263 6.981550317152281 2.8500090280771624 0.17505895805278884 0.6619693325307889 0.19126590682995445
Ni 3.2216470158356163 4.616103919069845 9.991064018055361 0.8574055686883492 0.24824412398721118 0.08995750029675474
P 7.745729718189389 5.441267795090385 11.833191081740388 -0.6167708816172797 -1.5557940632781204 0.36517583887996463
Ni 1.2412204893987377 4.805139179524696 12.807709702380617 0.9250703190251746 0.09842388589655308 -2.1999248249655916
P 5.599238627156279 8.019292340383535 0.8543465346684087 0.05322929163778574 0.4614235430608053 -0.1111151082109764
Ni 5.643315784014765 2.742824752584186 6.08062928922549 0.6736089736522464 0.9776097836847873 -0.4446542940222664
P 8.818190808443596 1.50216722519725 7.2694832368640885 -1.034382055478825 -0.7445323401356855 2.1923305575581016
P 4.1487993048467615 1.8572670502483326 8.194322767184126 1.1859938382522672 0.5554115046731919 2.0435457027104937
P 1.1058788844302079 6.096204879181533 4.901162963855829 0.5217043422287339 -0.3000906763448574 -0.11108502630398932
Ni 6.104658538244007 4.080053337208809 0.16650847398586519 0.5771645800795673 -0.8741686470793011 -0.2365630881048571
Ni 3.038536699832848 0.4494190342415615 0.7493790374579713 -1.1760428976871424 -0.07068579655133632 -1.6633271105647935
Ni 4.514650781434724 2.2806513986653987 10.386223666133167 -0.5063322306480377 0.1745395952142091 -0.11632570587763837
Ni 2.520888515537939 5.732143806368812 3.1060690690355224 0.1646372484988326 0.34810242833744565 0.21898831244588737
Ni 7.539381068650258 9.067813701807987 8.45812215147195 1.0178598894540858 -0.5639341974322224 0.3024779456301113
Ni 7.138561345132479 0.014912033092952647 13.054624840757093 -0.1150077583971632 1.3719856411674758 -1.8224992221839968
Ni 0.5391016513872953 0.1819031777872975 0.5371312843459873 -0.9167222041707953 0.03866347800846889 0.7924502468628868
Ni 2.47775270499427 4.250704657868413 4.988339015716227 -0.5842114596240197 1.7600576679193236 0.9514673209614646
Ni 1.2286046030031033 2.2848597704257565 6.274825342418043 1.4852543053863452 -0.0618939092913192 -1.3477139131043048
Ni 7.836671155309054 3.523136245369332 7.854273408507586 -0.15327554362911022 -0.10714866736406062 0.14692029083504377
Ni 1.4930121708413835 2.514372922417736 13.361094899762442 0.6063702551092459 -0.6501471430848803 0.4695266317839139
Ni 6.0290739664954724 7.470330547792805 11.849156130661976 1.4437901247042877 -0.4646309942545095 -1.3436903937672084
Ni 8.267909285235033 2.3617271572503657 0.28088666567883996 0.19632326674820383 -0.1620437767400435 -0.39002760781632184
Ni 7.204917031441632 3.6628615709215677 10.27744833079044 1.1352315200977352 2.6992346015492092 0.9750152834847338
Ni 6.843661539802482 5.597226730130493 1.8002805284372396 0.24697091370174243 0.6224591902513086 0.5272869785228339
Ni 0.1657083296182708 6.719579175069997 8.227672267607874 0.947361526323207 -0.4825603250394206 2.1124178430918583
Ni 4.750384202212846 4.806929583299937 2.1157598254085133 -1.332974292901285 -0.664260699668127 0.34112599701961255
Ni 9.593980147363446 0.826452228427878 11.882181697206802 -1.5072992010015267 -0.10142821994051564 -1.4856713383191058
Ni 5.5607634037594975 4.039889227776621 8.527131142344926 -0.17780386778777765 -0.8119124693525566 0.6513653317626975
Ni 8.549011906833156 6.587043151275039 6.248148326166968 -0.976945153517595 0.6064764416698072 -1.461395753601193
Ni 2.859173311318468 5.308630253555594 0.7185277963226628 0.25945773331484345 -0.1003190460367369 0.5196700854075244
Ni 4.979740463152355 1.5653758615715738 0.7490329542539945 1.380021881208391 1.5013859208408853 -1.3361580899459053
Ni 4.786303024342919 0.1111831515538609 12.160704845324616 -1.5892993941244176 1.1735342723326756 0.48604802647770484
Ni 0.885765352258239 3.1870848398651326 3.848570741064066 0.16644936200690688 -1.2950021845328858 0.05168894373385937
Ni 2.6998181464366677 7.434024112474278 6.10756286849178 -1.3971235738856842 -0.3361707098968662 0.9720374318033324
P 0.9476127280302544 2.016493010733982 1.9123247350025947 -0.10071293904104589 -0.24772553247957982 0.3658075589266926
Ni 9.06448207416437 6.1703128292597675 2.897136331573364 0.46690616344193137 0.2206232769461491 0.1570995453608907
P 7.337656090716256 9.094420578529725 10.721409402183152 0.20511515400822097 0.003832743482528883 0.12660780452993678
Ni 2.2837615330584704 0.7847967311086856 9.495774654514443 0.2696053632718067 -0.31477193250611596 2.615387842135883
P 2.4060165784739573 0.48015399142033377 11.932942412900488 1.780821382829236 0.005463337107416397 0.09525577258121659
P 5.987866993008634 8.119942564985429 4.734022311217367 0.28272853091732597 0.7100741584578159 -0.647239225409466
P 3.1164192640557884 5.7524750409917695 11.938643095436394 0.5656758627136773 -1.1653162552982574 0.2210048286552839
Ni 1.8966928488453703 2.971996435814907 8.582471230993633 0.33115217363635224 -0.08944919320176853 -0.31889238243239276
Ni 3.5718647604892664 3.32500130387125 6.802154627538864 -0.48376925774585716 0.28771518549864 -0.18969573412935717
Ni 3.352660273533077 7.495553091698635 1.4681338643624429 0.6369712678245546 -0.051692800388601294 -0.31568801656248213
Ni 6.591509931827701 3.805586284241603 4.054328741935077 -0.3043782479766178 -0.29060022035591887 -0.04051030140922055
Ni 7.824285991049404 6.661234161322228 10.043257056769239 -1.0859704690790781 -0.39579382087613774 -1.374659331344897
Ni 5.261775202179854 6.507674736496359 9.304928686736385 0.8447696250918935 0.09555787720266767 -1.1119717782388463
Ni 6.502608078390138 2.1454482269784596 12.098165303144649 -0.4488354219831496 0.2813424492030767 -0.3989400798146033
Ni 1.4315201071587846 8.38914915325219 2.442233493603722 -0.6193895501870493 -0.366010418966118 0.6323905904324076
Ni 3.9835653399400752 2.809401932143884 4.203626267465039 1.4209379026964626 0.2526273406565714 -0.6100646732416977
Ni 7.924373253639496 7.5408207747788 0.6735332882515022 0.13764555040133714 -1.03751108802611 1.8320349295885738
Ni 3.182784179250381 2.8690389898531667 1.5104390752165677 -0.013588280207395952 1.3021531937553703 0.08727789658206259
Ni 0.01825934984181632 8.101392505252273 4.566692466427396 2.1321302339191215 0.15614618030868593 -0.12154967328073905
Ni 5.223687591971527 9.03823512397477 9.737692351425494 0.20695786364391455 -0.09803230688508922 -0.5074684011350099
Ni 4.760452916227211 6.172426244025385 13.29363820742037 0.7462359530903536 0.134370222084175 0.7730546159450944
Ni 1.4888684012791014 6.398017119705627 10.72338161500155 -1.0153301810536965 -0.32780176910688064 -1.862107323493922
Ni 8.55476150246189 4.687009445900613 4.696282629990104 2.11050442811923 0.04115847651618073 0.11195045962807816
Ni 4.918017677333771 8.119425747400825 6.5780800577363125 -0.14753966958659753 -1.881914073807204 0.9580220913608468
Ni 5.776903900749812 0.8379938725583685 7.195827502172385 0.3790525968620569 0.20112763011538268 1.013001790030836
Ni 3.2535974172267554 7.790840510217086 3.981213819930121 0.24756072476694135 1.1068311145781713 -0.5146335514248814
Ni 7.824978157457358 9.101443760349094 6.075226699689276 -1.2479576815495732 0.341152993602806 -0.7869267459414964
Ni 6.5378070474559395 1.2916286616686397 4.104738759982067 0.35763530752854533 0.38902590602468484 0.5810240630349736
Ni 1.821135963753154 7.582618396933759 12.688561099804025 0.4976074491805301 0.5323962747249411 1.2705828751482569
Ni 4.483743244098235 5.490845367670743 7.141231261690091 -0.978832857458611 1.266713622000838 -0.3459645560588364
Ni 2.681194255619996 0.6850666263850972 7.348461269788684 1.1746550162006804 -0.7254197876759507 -2.7246044477725655
Ni 8.712870767809374 7.354258855621703 12.046729033036799 0.7641516570285098 0.7277569204495595 0.025143074924530894
P 5.62964780467904 2.8704602382108315 2.504341123945128 -0.45684775076466483 -1.6830135332501275 -1.707187045172537
Ni 0.3829526013071358 8.456169319312977 9.91561141936861 -0.40957364826904946 0.5781809371592236 0.20119267902536317
P 7.124976425765709 6.013209512425176 7.915962047450044 -0.4300077477536852 -0.10675348880817098 1.4641118669807751
Ni 3.909845003050296 3.4590047204510697 12.645863661318726 0.030227688536289876 0.6182343535366837 -0.047746671256659705
P 1.8977910862126568 0.2528013215097141 4.946074411958035 0.24086968590001095 -0.13200326451389524 0.19517758317953482
P 2.049560107263286 5.338411866868478 8.280364589024023 0.9824879377126952 0.9641078925436106 0.8493045368477696
P 0.7294889435590163 6.674265347562634 1.0521529278448485 1.566500136841715 1.0287991620744088 -0.792860337817112
Ni 1.094148971036754 4.332675618341 1.8504201401408553 0.7008824646562187 -0.4616785964944049 -0.7279741786666881
