# total energy = -340891.3656818171 ev
CRYSTAL
PRIMVEC
9.07414606766308 0.00000000000000 0.00000000000000

0.00000000000000 9.07414606766308 0.00000000000000

0.00000000000000 0.00000000000000 13.28092999876393

PRIMCOORD
 96 1
Ni 6.447153571665319 1.7778429977536228 11.534049089137902 1.0426216697797979 0.8404784539157074 0.0527693212822317
Ni 4.463236716298617 0.39745304305448714 5.9808540748417345 0.7444539214892663 -0.9007628526280615 0.20712215713592072
Ni 2.8570130434695273 1.625506233261841 4.774440908220274 -0.7098944383468418 0.2833679642735378 -0.6273905661146549
Ni 3.62812490371179 4.090225793141381 5.056515276376652 -1.4626306544495584 0.8402146587313594 -0.8527809254321442
Ni 5.307976197882691 4.406768305205434 2.843008913815002 0.009160069232713257 -0.09817217489706317 -0.5679880557866218
Ni 7.251612918773634 6.09352502454778 2.6443132443844513 -0.38382687832224865 -1.0141245907813696 0.07639853066539747
Ni 5.142717849364444 4.603368754304728 11.598355747620172 0.8866364405290086 1.1399389528757335 -0.31466317484239353
Ni 5.571806995333164 7.906775340328979 12.594173409633898 0.670207147059549 0.5422785668356596 0.33409865785918585
Ni 1.8852355166814425 6.083489018976664 0.39802289942868796 -0.41761065964091304 1.49732846294206 0.0795095654905534
Ni 2.9856027676542447 2.126426319647344 0.32493881943742886 -0.5165230551381105 -0.6657172296089954 -0.4011373445762382
Ni 0.5254747256942209 9.213706452803503 4.42108912255836 0.1297844024857055 -0.7535160316915346 0.7201827076467274
Ni 8.816149964483635 2.235524778039332 1.2431961251956722 0.09688662331642024 0.7525174152236911 0.7296993888879111
Ni 7.048814827897601 0.7348071091667823 4.698115543247096 -1.0557211832762334 -0.19048969078556224 0.14176034390065909
Ni 0.6949289593626344 7.3160484301303255 2.570298157004768 -0.7126686586578694 0.6040385216522759 -0.7795649062597865
Ni 7.618217494794153 3.884460456495227 4.081069979740606 0.0040206911236188815 -0.35613763993709635 -2.519994001314905
Ni 7.79250461866797 4.0944271227792 12.611889772452207 -0.5654696602401422 -0.7722236354033668 -1.388495980117673
Ni 7.689240836209281 8.697977360005646 6.795400242739249 0.9082473339305648 1.346499323970913 0.8509315309282314
Ni 7.13542755228848 0.46511622817396936 0.5306805633037596 -0.5777433354011727 0.6015003286114545 -0.9909900616464353
Ni 1.9404516956147575 6.485646099362134 9.016343775432986 0.9322606661260268 0.8843515011495737 2.2572226302457965
Ni -0.041648515705526516 4.766848570190118 1.3042751099151524 0.9140989076153354 0.10108137812405815 0.7838792173644241
Ni 6.3274383623527095 1.9763580916770624 6.970297149230046 0.3074280905465351 -0.22674738756601592 1.1526237474322536
Ni 3.692369858000676 4.658412524462409 0.945141278367238 0.8096552978872636 -1.1649534726422002 0.24203568118365412
Ni 5.538849696748809 5.5450564126716335 4.86981199841336 1.65474219710926 0.7354581457485592 0.8992800974349481
Ni 5.458761283393766 2.8932370346448426 9.40307117781382 0.14316442333703733 0.07609359783046894 -0.23735113122379123
P 0.34993083258749225 5.630943205375631 12.242693620309526 0.4135714565745329 -0.11538519634124 -0.13781755720282718
P 3.9454387181931527 6.187614845313523 12.771672781222161 0.6416203365607918 -0.3524283094063092 -1.679814052476223
P 2.2318860454588454 8.37005586874975 1.5298039367366165 0.5427711902013621 0.16305859115780302 -0.9122597975240676
P 6.0439257420417 7.803039702273817 5.950374925553466 -1.2136866761818452 -1.0662501078320152 -1.545185948744971
P 4.6886657275131345 1.0384906488123629 12.74701015957502 1.2459087694403443 -0.380514526119564 -0.4563098759833238
P 4.229595602876268 6.02370854456209 8.124808015068798 -1.3246958549425765 0.5318182907342841 -1.0020254935249904
P 4.931635063111893 0.8987451694295159 3.6890305722410277 -0.5969440766993397 0.530588274981925 0.5179369047665014
P -0.08459735654517696 5.615825677996354 3.7373603817096765 1.2194289779822611 -0.9425615338314025 0.36307730447972314
Ni 1.890516669703495 1.2562520065842104 2.4462146537663587 -1.659854835745477 -0.6483237167228963 0.141396275693021
Ni 1.3410680500500598 6.8317521793743765 4.830778651609819 0.5433031514454321 -0.6445835329541737 0.5781405708395915
Ni 6.169838593131047 5.691957763657901 9.118660217040297 -0.6192594523670883 -0.704340084187516 0.6572469873544552
Ni 8.863598674367335 2.1082871016214284 10.050848151869767 -0.0711208272062259 0.43569399950518517 1.1208752513760631
Ni 2.214182386445058 5.350824315700787 7.002662813489593 0.5806116580879033 0.1612300225894965 -0.7426310093479146
Ni 0.634377182530751 -0.2608481256320051 9.367425209744184 0.558544908095851 0.5162312349293044 0.33635531510384653
Ni 1.702318879879838 1.1727970850312608 11.510608754968544 -0.6155169546055206 0.47963235275934823 0.5674936326487064
Ni 4.137937653261574 7.108150669153961 1.3447203938496752 -0.3218692056725296 -0.010923074670406995 1.7286634698787584
Ni 5.40345436299959 7.929061443116197 8.029597537261434 -0.12863383382103008 0.039536624642041586 0.4049076102519478
Ni 5.4698408157647735 2.675248823220845 4.866079802128189 -0.3747549979279675 0.28449616434071 -0.18699299048621346
Ni 0.6982909304874978 7.639314884444104 7.05674290933294 0.45538453595557704 0.2172445902819033 -0.10587571418890798
Ni 5.03506218020013 4.186057849955636 7.045692414229409 0.41255252839171525 0.7751459512564843 0.48729681128314145
Ni 7.965321730875856 7.401245587731787 8.93397502916653 0.09177398468020323 -0.41943074356878735 -0.03488575613359153
Ni 4.711813874178523 0.3344004315613019 10.570225958808805 -0.591520334580607 -0.08919671087133026 -0.42269013104634945
Ni 7.7829949135698415 7.189999466849688 4.756790786668394 0.593693688082842 0.6687621870829062 0.03422832505525073
Ni 7.126716372045919 6.092417978725289 6.92839546484872 0.15678869898869127 -0.5923695699547799 0.07404879948629828
Ni 2.001938109493499 5.32633319541467 2.748315662334541 0.4379745680092457 0.4614523394162117 0.7850066461006481
Ni 2.5033300514754733 5.382928644553057 11.333852555944727 -0.47147218554605896 -0.5371075641576815 -0.308997491916184
Ni 0.9849441127588721 3.2862292274834517 3.8282815106621877 0.5514324654207858 0.3830239228049791 -0.026243507077561252
Ni 3.7384030010949583 2.5521671057103297 2.5369361515049778 2.199383607750141 0.7041405665822003 1.2788014064033073
Ni 1.1384877386800916 3.367823949088771 8.18388161350327 2.005353250801172 -1.1589232072877202 -1.07214590449116
Ni 3.3511547427287876 2.4427692004975046 7.0015067672782365 0.184284847526431 0.4594324807727055 0.30195909701216384
Ni 3.7229134337261547 6.90812019283416 5.789635501786047 0.36601890360655026 0.5891754884975143 0.21493831074622985
Ni 0.7571531013181679 7.800462644785393 11.760104216432355 1.315794695798205 -1.5465648313703686 -0.5337229639561646
P 0.24486583213073188 5.781356250897181 7.976712506457613 -1.4386427761753933 -1.1429083199167027 0.4274482145566251
P 8.370210129233213 1.3532818506818167 8.131063731380486 0.5816544975301208 0.39816283532894653 -1.7183967978454278
P 1.9953593535811482 3.1240651627805307 10.46745762472641 0.44157282688346533 0.6305360537221721 -0.27687155791591667
P 3.930983603478153 6.087009787658031 3.493774004177071 -0.21755980752947693 0.0036159994860324824 0.5300110623222163
P 7.036219913130233 4.107303336075235 10.424215688968182 0.23591722699074208 -0.5152174489528095 0.04317447850494499
P 6.229891291928201 7.624787176560417 10.213699129431399 1.2160610899512927 1.5055032854433685 0.4726813753628117
P 2.1894008934841898 8.73794897351448 5.722992250686632 0.9568486398780358 -0.2760367207194472 0.9165921063508343
P 7.004405956952714 4.0182405922411375 1.405520802284315 -0.3309238596756301 -0.6871301480671327 0.82829888113038
Ni 5.399398219699148 2.8936544453647985 0.26341701638895193 0.32087855962448614 0.9245884942927497 0.6322643492671884
Ni 1.2989095673345 1.0093898623145583 7.251866087449433 -0.5247505852542252 0.18291907752715594 -0.6231590445318107
Ni 6.723806137535311 0.6267077142588632 9.191665351960607 -0.540275677473018 -0.06797096872333455 0.41312434173478524
Ni 2.6654941161783943 1.4265555803262733 9.27084635070705 0.1929039566540097 0.38242819820250906 0.17798101679559022
Ni 6.381638236924393 2.2312236327945674 2.5366312601964878 1.0483709135587493 -1.0630012618774145 -0.21376820169752864
Ni 4.311208472773759 7.003952249648414 10.756504566735273 -1.5383049053544218 -1.0950971139706946 -1.313075497094829
Ni 8.311672812832422 7.024414449072346 0.46030874557760615 0.7304293250754 0.542801272108349 0.26813597781513177
Ni 8.046408300300358 3.7540377548011374 8.323092625681653 -2.9117254791962113 0.5373520760683197 -0.6641838236836045
Ni 3.1639188123902464 8.542301309754217 12.57407871312645 -0.503531527974449 -0.5420831629954019 1.1483364329108094
Ni 0.4616834787096353 4.63526437779702 10.01275851625917 -0.8637564506070414 1.170701430869571 1.7153094171693555
Ni 8.59523080387386 2.2858862888166365 5.93777093664001 0.5486451324836358 -0.04878385427192244 -0.06556441616437096
Ni 4.015754276213573 2.684558897105082 11.439529153847683 -1.3506771094976868 -0.699643450042795 -0.8833096901486207
Ni 1.2134674077887166 3.4700260564553984 12.518803552243577 -0.46811741014121316 0.4759978413305545 0.31028407193809143
Ni 2.9833796018631746 8.405880597497282 8.017577923355917 0.40261084379797113 -0.18916428710591937 -0.4257091203783314
Ni 5.511590961906463 7.840225552934248 3.6089603071781564 0.10469377806566484 -0.10146781492919944 0.10424614900528496
Ni 3.02382307096848 8.360500792921192 3.635814335105067 0.42720190287377396 -0.31206070422253995 -0.19884371917721239
Ni 3.3747203001141313 4.277634132255557 9.064340563740279 0.1752528192311498 -0.24277718733536893 0.6841803214101894
Ni 7.527784554901069 6.477624554222109 11.58729254871212 -0.4693399696944046 -1.369966296744602 -0.9894342871235412
Ni 0.5424515456065199 0.11236787322677384 0.3484971175059042 0.4102279940235968 0.16239293254934611 0.470600581574383
Ni 4.676079886891851 0.3222274645869318 1.5690623223630904 -0.025693291001046073 0.26668973228690845 -0.09916410649668729
Ni 6.089332769056048 5.676404677266495 0.43277778635267966 -0.6182091567257031 0.4314000001155215 -0.2752543340274679
Ni 7.84662282592488 8.807375265218473 11.364757282684428 -0.5105786646292174 1.2537364930148795 -0.22383535612554353
Ni 9.00900279124941 4.754226432984491 5.945513905495195 0.31217640386479784 1.3072005263712907 0.1539733410270832
Ni 7.937654659459639 8.832601391337557 2.6835580187917962 -0.045009989051787 -0.04371569572039568 -0.3687779544089262
P 8.606891081594371 1.7345139501929692 3.511889629423163 -0.9083388652031066 0.45745196000756705 -0.6666181441567101
P 2.0114750370298857 3.4959236693848443 1.7065864507840842 -1.9621546039265112 -0.8685086205800462 -0.7512827714856416
P 4.567834398231948 1.1374532860262876 8.27760483876714 1.2411655983284045 -0.6812608337705494 -0.18973455778709258
P 8.708775593847989 1.812070676790018 12.319244931520247 -0.9186279058339406 -1.039784457441319 0.39187931631307993
P 6.478586413707225 7.664005635944112 1.4650326819747426 -1.2762025353278796 1.0093215129657713 -0.6448049049363604
P 1.6918291670044212 3.554206909695228 5.970482325865436 0.8609323508946849 -1.9336415840884829 -0.4363930824547388
P 6.981856703929002 3.996635050410369 5.993644083749952 -1.697997151143153 -0.2728716927279043 2.377553600628086
P 2.5490818960410895 8.51046013113844 10.470991097212302 -0.4652732558241987 -0.7437725791515255 -1.309824594257699
