# total energy = -340860.7996831745 ev
CRYSTAL
PRIMVEC
9.36072242567698 0.00000000000000 0.00000000000000

0.00000000000000 9.36072242567698 0.00000000000000

0.00000000000000 0.00000000000000 13.70036346630414

PRIMCOORD
 96 1
Ni 4.992241819514173 5.194311736820269 11.671476798099617 0.42998383649428523 -1.24226834447428 -0.9956941519903239
Ni 1.4148732107664983 6.614342705702098 10.715369790427413 0.11948147789780068 -0.2742875992388244 -0.5716117685821381
Ni 5.9059513066205485 2.497553100304538 8.306106088975861 -0.2116249301022807 -0.6848120414569174 -0.36128627401757135
Ni 2.310638192778336 5.021344305867286 7.65839370156584 0.700896862833922 -0.43289741059665443 2.2497952274334736
Ni 1.6977823278620714 9.099885998997616 4.0654320012237575 -0.45424168060038544 -1.5319306263969616 1.0532680937500505
Ni 3.199626011676744 8.537297214080136 0.29534670912432237 0.31545378906448895 -0.5818031072928432 -0.3067495764222717
Ni 0.12396592064057485 5.389670016070662 12.077432612883088 -1.4659237233785336 -1.418907502529995 0.16374610414313087
Ni 2.3728401940058808 0.8636455347865445 8.034674153777217 -0.20084300899542828 -1.4962300876715584 -0.6818748132054644
Ni 4.969701199656246 0.7415882654703182 13.28610595556221 -0.5021176783460579 0.0095840441440093 0.6273409438236422
Ni 8.456888607527146 3.3145288807614857 8.11690342086275 1.3860647449683612 -0.9603841638351203 0.3096281835216474
Ni 5.194648722831434 7.73959516131732 2.0347234075589435 -0.7270331549096576 0.11557854329896869 0.5131363980540646
Ni 8.394415145346162 2.1893138680363937 1.2499297911682559 0.3168568400596027 1.0086969920078952 1.1160194659456586
Ni 8.51600157031901 0.7410462796356944 4.135043950407919 0.9055769861872532 -0.055777254870620074 -0.8559811775369969
Ni 7.305454210988909 5.289557088587052 4.162252762592736 -0.14245634152641917 -0.45786487917526947 0.41072575959562163
Ni 9.365683715304032 6.096198631368271 8.747271325492557 -0.9623451442162331 -0.5032101400792882 1.1927411842784297
Ni 2.964915254900302 2.624896369634789 9.624875569719359 0.12135606921269425 -1.6556870775210326 0.4071516690911182
Ni 6.880318275736629 7.237729383467269 7.680396079878157 0.5081237753308215 -0.943358318701085 0.18939877171422867
Ni 0.15734251290196435 1.8171221794271528 12.757203602821942 2.00400522141371 -1.6597723033339995 2.191536858012213
Ni 4.860227549640273 6.62774726036844 4.4338625515194945 -0.5056326334778518 -0.5866187835139316 -0.8471702641135862
Ni 7.675502294138238 0.12597098740700677 0.42952424197545075 0.41146006665848495 -0.8750160826812607 -2.5081579279119253
Ni 8.708476747029437 8.68412014700023 6.036449139444206 -2.030884048082425 -0.3790906491888439 -0.041109882666432424
Ni 0.9768850034772857 4.094398757100151 9.926297387767184 -0.7890363360853315 2.01076336607315 -0.07166770084863142
Ni 4.693578606396635 0.7726883300118373 6.48032711335078 0.3269399353272176 -1.953453476608087 0.8541271550473936
Ni 2.2810395881310077 6.277824730663689 4.717391348446711 -0.09635697606519535 0.6117124932577658 -0.21626371442587272
P 1.2022631198889626 7.775821157517561 5.871537546302574 1.1755986110608723 -0.6059809900906273 -0.38831653866248605
P 6.3086308685176915 7.960910724149952 13.205657097902334 0.32116600895791786 1.1662217978316625 -0.47871189782760776
P 2.4569837288492815 1.0287340455840381 11.35312143299075 -0.352356061407477 0.9852660146784644 -0.3075561314839671
P 8.598806521840284 4.87773210077579 0.5289369874136404 1.3634506071132713 0.8034633101439388 -1.5817269810937986
P 3.203389022134753 6.778520418197194 9.286750358622143 -0.5920440682945611 1.0451063838748647 -0.1633241861143639
P 1.8968942568479408 1.5278758531771708 5.575280974948105 0.03033104688337357 -0.040227994282111365 0.35442297123883476
P 8.452592035884793 7.05657132029847 10.656430937074651 -0.2940382995031904 -1.0830615229623992 0.03468238187353382
P 4.605466125199513 4.328997185206204 8.427216989244066 0.4871733983313997 -0.31413892690780737 0.7496789173336315
Ni 2.813421321436557 2.975642642922389 12.338232639429474 1.3183089775796264 -0.820630823062161 -0.837336565852616
Ni 2.7928090104202963 6.900546797129063 2.3169098768750183 1.0302762608405678 -0.3660052767597955 0.21714817391335506
Ni 7.162281959856434 3.4439221483263243 5.58596717579105 -0.27626657734206617 -1.7030766225485896 -0.18591878358542818
Ni 2.5783548572038857 4.11413116019837 5.586090737328477 -0.517747671573831 -0.5935499634161262 -1.0049802052779402
Ni 6.735086665647034 9.501320584797956 2.351229093895417 0.3612757324946101 1.0320567497797581 1.243822062114645
Ni 8.428497536086493 0.4292583974555317 11.427350090527872 0.18109256584137845 -1.638919114034074 -1.3600012151120902
Ni 3.1732100526904183 4.788075100360828 10.137282457213102 0.7571942518740702 1.208337753165106 0.4693057740223595
Ni 4.784096793284575 2.1466289732888235 1.687473364137181 -1.1897741312303056 -0.8130704942163997 0.3255764793207877
Ni 5.650749928220767 2.95127668217065 3.5446809656646674 1.9864602705514112 1.473830894040752 0.9308499018214292
Ni 5.254407575478032 6.284264907765954 13.823118438304519 -0.027234153125604708 0.2749704842384619 -0.17833120104615738
Ni 8.361802388043415 7.011003323010933 0.051793813843811515 0.16032576560767228 0.5453826596822802 -1.7677470661437813
Ni 3.043554684894674 7.445705916691287 7.085663509856799 -1.6168932445822861 -0.24792145054046977 -0.8858951914876099
Ni 1.9198093056071626 8.679392982121389 9.830380872194832 1.0104990782136405 0.9726652951953185 1.103287620201287
Ni 6.950617301954667 2.1942095259208187 12.653573851882921 1.7546521806330362 -0.0960453583620475 0.5537377165151948
Ni 4.082304703588339 9.119964748829533 10.81572422455236 0.6642694414188752 1.807386277801958 -1.1552966662787263
Ni 6.305654158752401 0.940106724647636 4.791072403715691 -0.18505155048912644 0.1072959915752023 -0.03348656179321975
Ni 0.8108679090045816 8.237651125096699 8.035468879120215 1.5316079529502202 -2.4814644777811394 -3.71128971139606
Ni 6.840591369309285 4.707891151148616 9.98918178566734 -0.21146937836102292 -0.6735783775246271 -0.9359725677599751
Ni 2.5547939185899304 0.5769762154497216 2.0823863345492235 1.3604655563430181 0.2577780316195754 -1.161698456040012
Ni 5.324060711841337 2.7687613142346588 11.134559794727139 -1.6042873828928177 0.34673794388975127 0.06758324636661264
Ni 4.744276279631906 8.127363092220412 8.367634118181074 -1.076984463530384 0.04977527165091428 1.1771996369994047
Ni 9.063585117017118 4.499867814311938 2.587916835270693 1.0194321190372122 0.28796226851243956 -2.1695719237053472
Ni 0.5988466075743318 6.694741951532555 1.7797728965230288 -0.2702093154043927 -0.9418097432670426 0.8663956880021014
Ni 0.7078353721631276 8.871343958370002 0.7624842063793096 0.5434525325391029 1.2529080835763133 -1.1448860124683637
P 1.257678597280545 2.745172293453107 7.7714075768435515 0.3623239712534663 2.0051339357015143 0.9306989780658615
P 5.227467416029895 2.9873154639202437 13.595212926809106 -0.49365669206289814 0.7397110074876422 -2.3997774450232927
P 5.8663554503086575 5.496260563546666 2.7487864684228516 -2.8117129086562995 0.7537255765991794 -1.8858907990667648
P 9.311990610858404 8.639553747023655 2.641539734297328 -1.0634123812729042 -0.2208446489283358 1.401136037479187
P 4.4081420942173235 0.9545222373474733 8.827596621615008 0.5037431297646228 0.13768257428685965 -0.20459784805217024
P 2.1097477265113174 4.4552358892776365 2.1729054575094167 -2.4833586094800584 0.8916089540429354 -0.4002983936147106
P 3.1128989174144106 5.4008748009418985 12.465316616745579 -2.0449839778189167 -1.6016265482312029 1.964970218998435
P 8.907747808298357 -0.3673072635918543 9.277119111208597 -2.8183471261433652 2.2176654367784647 2.818007997636392
Ni 1.3941579318023813 1.951607680049596 3.5295147230177344 -1.6093992501980865 2.3938320260731354 -0.17229785036788392
Ni 3.66917857534508 4.548103617521199 3.436051652821114 1.7948228393146508 0.2205615704702782 1.2822446277569013
Ni 6.146615482927572 7.207690824860921 10.320648714827286 0.07958901257823713 0.18888069442722955 -0.11499284599882775
Ni 3.952022167382927 4.573761357982403 1.025736742229176 0.15321666536671674 -0.6707815315057802 -0.8607860551248079
Ni 6.791616069019968 4.541363897297899 7.522746535277131 -1.2784609923447532 2.933875018710057 0.10107135082172916
Ni 7.105939770934147 5.769574940046568 11.95455347212852 1.1292074253908424 0.855523778284604 2.1649994738433165
Ni 8.94037928704617 6.893516894507259 4.336480146798574 2.7161414046068773 0.25715145377917004 -0.6012486176119645
Ni 3.607594381804671 2.667843364613265 7.1927726413610955 0.2983896344933506 1.4502276527995153 -0.3763997326202421
Ni 6.658740612673091 4.356349216445766 1.005036440421111 -1.1993234654816378 -0.65294578887594 0.32959897021661944
Ni 7.544059028338812 7.000837578340788 2.183454055731135 -0.2751913420000164 -0.3516878316958588 0.29720384171536557
Ni 1.447439164456585 4.2154235387210575 -0.0694659219126575 -0.421931398503454 0.4717565495556972 1.9061840020981622
Ni 7.303834805990809 2.127991774726891 10.12654196417947 0.7427482516520693 0.0411708178113549 0.27566673897453814
Ni 1.1744711346903802 8.84161430360722 12.073089237628071 0.2432487276551488 0.022034096981903988 0.43664222235106737
Ni 6.205073195142172 0.09283683785920542 11.513210381883708 0.3864835992188054 -0.6943657465836235 -0.5126604868589106
Ni 0.43157049592102503 5.673206301575902 6.529346409036 0.13181248865932782 0.46331458943593107 -0.9565298230860364
Ni 3.635377006280722 2.026343688747973 4.338521720382882 0.6057945851114342 -0.6395523982881695 0.45503255193279696
Ni 0.4514676477358135 1.9774432742389147 9.892690521731499 0.2983670087855313 -2.7805267128614823 -0.04970070965923698
Ni 6.896409357769759 7.926257329335148 4.223918394419176 -1.1023525099815272 0.7943297232737868 1.3471649825793701
Ni 6.608342482558854 -0.17451850267659516 8.895563891850234 2.0071921037821236 2.515408438826752 0.8031324091670813
Ni 3.594217909305926 7.22405336784749 11.681258753145935 0.06447555397556638 -0.24808111604678568 0.11730041108608186
Ni 4.770617352837974 5.792499349528323 6.752238317543081 -0.6272807800096681 -2.054737457661255 0.2385310104645053
Ni 9.316979875968153 1.0201221808542653 7.515553756083264 -0.1854421010593258 0.9050100579401898 0.023922315143552347
Ni 1.539754610070738 6.889688358991523 13.312273855401429 0.7999056746996676 -0.984039341360215 -0.13416556227253668
Ni 0.06665302479168277 4.2109865562407185 4.717980137893996 1.1278920490135285 -0.4174252831029843 1.755595775493228
P 4.777478762454194 0.47060470888097405 3.0955151195995616 -0.8870385610634336 -0.29903806671062694 0.3377869053440505
P 4.8410099862813345 3.825820906201624 5.515807624338744 -0.19368582912535676 -0.38920819723882 -0.22660829088499035
P 7.248718871720262 1.0386564114683419 6.8724590130984575 -0.8628280252555011 0.5822741333919907 -0.3097983905509245
P 7.756669119216348 6.193568867149899 6.065466443222274 0.003392570621316738 -0.4224170798906209 0.5076782031529709
P 8.143416731363411 2.831730894709857 3.591536998372658 -0.7037818976912008 -0.9285739613030589 -0.12771080778612845
P 1.5744641692207357 2.0109921037948997 0.6134231247017258 0.4040758583792718 -0.477884516830306 1.2566832343480294
P 5.269712356818444 7.739089682300572 6.293440287992175 0.08515056582641464 2.6380873406159275 -1.2924922736268387
P 8.741052061442057 3.1102311114926877 11.506715912590757 -1.176164767976987 3.0941411347243872 -2.587988109966691
