# total energy = -340891.23547439295 ev
CRYSTAL
PRIMVEC
9.11085008187570 0.00000000000000 0.00000000000000
0.00000000000000 9.11085008187570 0.00000000000000
0.00000000000000 0.00000000000000 13.33465003366475
PRIMCOORD
 96 1
Ni 6.584538714767798 1.6168842953539182 11.40689967889229 0.39254137537711103 1.0982742261470957 1.1344936134904462
Ni 4.772645789927126 0.4011980938691418 6.058158455495692 -0.20531904248891092 0.31674448285145446 0.06879217907304926
Ni 2.492737620828134 1.4764769888214773 4.61526861452522 0.3278472776328354 -0.2052326534226917 0.5746428420989781
Ni 3.490712777251727 4.133920552644451 5.036350227035359 -1.4133837444982884 1.835002239747014 -0.8827921270822539
Ni 5.067946654201312 4.431253136427866 3.206290267659245 -0.05589475428509083 0.28448356593521973 -1.6350007528162747
Ni 7.330070444457183 6.253550651759749 2.799582842905659 -0.20192750030885867 -0.46796494372374886 -0.7807249880061586
Ni 5.249061237716878 4.730580996321242 11.732545139567547 0.003714472737109732 -0.3071149301814904 -0.20069877010808015
Ni 5.713195259953082 8.040807838694787 12.543531947598442 -0.2181647881033275 -0.1010258422957744 -0.3557054374956842
Ni 1.7296219509916073 6.733874654121069 0.13967206095219517 0.9310648460457126 -0.8259833456233258 0.6194810814595911
Ni 2.8570076182183137 1.4310411807832393 0.4434851922105649 -0.31763614142778845 1.0172135141193384 -0.04870209319139354
Ni 0.4546960929105954 9.22919975629728 5.043270828556483 -1.274671443395334 -0.19538584253559899 -1.55614476174932
Ni 8.748729980338886 2.371508653160841 1.2408758790592942 0.13032973346621424 0.7371501887390014 0.953109741660894
Ni 6.853636774967796 1.0545717554878664 4.766217174296129 -0.015408878355902494 -0.9562557434890435 0.5284393469597223
Ni 0.7925956465899514 7.165528496759054 2.3029476861166565 -0.4367460949187833 0.6909484933719585 0.7225519792098525
Ni 7.4224909050025785 3.6636093742322045 3.4261113855380856 2.3871744115473015 1.2973963957966752 1.928356938650776
Ni 7.446762208915525 3.891116405016812 12.853882113600635 0.8081686860394081 -0.8302202665228089 -1.4049024465001545
Ni 8.138603700632315 9.0316309780119 6.986036555595925 -1.338412690308037 -0.10246540295577837 -0.01030626702201451
Ni 7.017896286321595 0.5211961857261354 0.49786785476926587 0.3217185390272782 1.024120268541501 -0.01142881066223193
Ni 1.8524362065270885 6.70116670327742 9.224910368203355 2.047827103694667 -0.8289917934323464 -1.0253428280946921
Ni 0.013553300188025382 4.894640068979062 1.1648567703547725 0.35977009448336106 0.043909556898756634 0.4447357979924792
Ni 6.615980257486859 2.089728290015339 7.027373392301417 -0.26319637442166927 0.02340269519465647 0.16339694833382826
Ni 3.4627789117122774 4.666823269300671 0.6391853351984423 0.8730394185708642 -0.7132011341225717 -0.5731220345790774
Ni 5.9184262629347035 5.7754314750541855 4.796993624978538 1.4421780430221613 0.7673449671548268 1.4560941388826212
Ni 5.175646009890104 3.12653388835972 9.473334999083207 1.0968164106546465 -0.3960997821523307 -0.46572834108374633
P 0.29304046243454535 5.537765846723431 12.31466922236104 -0.7401110711395382 -0.6011066927174615 1.475198720922556
P 3.995490300522336 6.2992142310434165 12.76232627270289 0.2903035150511065 0.8303436794745507 -0.4311536884326704
P 2.458544601464287 8.544072960895747 1.4126591301921128 0.34090462503742575 -0.5382797300889117 -0.12496332694797832
P 6.447684639664055 7.925036270067981 5.701189893148994 0.22026332250356906 -0.005262791060836098 1.163537309020964
P 4.688060660224499 1.2657794759495526 12.50027363266651 0.10513266537529635 -2.0773292269188417 0.5272396702246662
P 4.053799739352239 6.509401536325579 8.349957194691076 -0.21772615790401212 -0.8372074964739193 -0.7776756596568736
P 4.46184737011393 1.1314673279447998 3.8546074076294388 0.6308690115815587 -1.0466770707960942 -0.26438499541313176
P 0.09761182277121966 5.429847830639026 3.6109031080398633 0.6557125529877997 -0.0038862224282836294 -0.34108023138334165
Ni 1.1033148020097379 0.7653040959626121 2.3794077599523296 0.09660174508614976 0.6093609623064538 1.1153723192799632
Ni 1.8209035553098556 6.55411758722826 4.697916777556716 -0.30367685103421893 -0.22996975115805554 1.0074700615793295
Ni 6.082931767233565 5.642212629027493 9.089003821480597 -0.6995881713248274 -0.012718990228565192 0.8959836860718634
Ni 8.752720532558808 2.536159931056777 10.25041213517957 -0.9621299428816332 -1.155517781150597 0.6010092479076489
Ni 2.3939942305096222 5.321328498466688 7.008464734590858 0.39941316279627986 0.09249106535188586 0.2050706739235307
Ni 0.6813913469764925 8.770222475057595 8.980873522595452 -0.07881793874016749 0.8824000338501578 0.5757072788077505
Ni 1.4135483491342689 1.0405501576192384 11.470452411791973 -0.052104434004723164 0.7000525125557556 -0.5457636971707827
Ni 4.1000646347238385 6.634293065619376 1.813218553489071 0.3093952415752349 1.2555154392921732 -0.14474359489869912
Ni 5.689598158926606 8.0875556091067 8.238987043917918 -0.06445987024628254 -0.5925878566131729 -0.32040316264996427
Ni 5.176602649120908 2.80743548436308 5.181298381116678 1.184276084230212 -0.8644982138690726 -0.22499903741634153
Ni 0.7212258045471329 7.419201888218579 6.881706392169523 0.249513477617938 -0.48689571918998076 0.26345785561317203
Ni 5.080783841593708 4.724312731647028 6.9230833166142105 0.5471266389565804 0.22952752141431437 0.5930480840790432
Ni 8.26659291886395 6.798251918929207 9.39587455393761 0.03958367582989312 0.8952923164317935 -0.10948939968209531
Ni 4.746333655655133 0.25514570478998094 10.502263356675662 -0.939291347720563 -0.18087556473456592 -0.2254510373520956
Ni 8.34691417085214 7.024966305779721 4.942887485270879 -0.25532957007908286 0.31197251538410786 -0.24174848896053847
Ni 7.4134164985846756 6.230682418718647 7.18625568009312 0.07703462158749959 0.33257862167023367 -1.4508182351956627
Ni 2.2379982599399995 5.1790625785715445 2.7236958415234866 -0.0061518785340087595 -0.473531639178249 -0.1127269327827865
Ni 2.4804561952745865 5.164794987757853 11.491854709097494 -0.30336986131676136 0.2573478860606923 0.9236348721302287
Ni 1.0034234446142616 3.172917224778943 3.79878796405457 -0.5480926024142754 0.5537775686141946 -0.8281183896884577
Ni 3.6759910191337415 2.727342003620319 2.523742753840953 -1.0675767970632388 -0.37944751830763035 0.1386559939437225
Ni 1.0513191821031358 3.369392701086262 8.264909233817736 0.29462991034060226 -0.13213387655448858 -0.3243621472977124
Ni 3.493509808145599 2.9956656415858576 7.432573882495243 0.6397002367199435 -0.28635275793347464 -0.1066079643692422
Ni 4.2342583416809685 7.080560711364105 6.116097082738035 -0.4751185240493946 0.15927058487028053 0.01737962892902813
Ni 0.9263183226115331 7.233458992995889 11.210413269565189 -1.8130056808712647 -0.4161106780566189 1.3198572959033528
P 9.593269314991481 5.563549551706029 8.005657269015154 -1.7266718933700262 -0.6012043946375903 -0.2268869984676738
P 8.790239012105921 1.4923025349539054 8.333089367339563 -0.47577209847299357 0.6606321017766041 -0.9403717252689353
P 1.830451725918252 3.195676127622239 10.458379126361287 0.07618718598553975 0.275636399957235 -0.354871371630163
P 3.9313134744101754 6.219831396586394 4.0253438221182645 -0.4552287271040031 -0.43932825382366275 -0.5655267387303228
P 6.981015566261681 4.023588161358496 10.422935187317544 0.047140919351860745 0.037326504364600235 0.021507792164788764
P 6.595171076504438 7.889476623231557 10.365049403004138 -1.1121388999443298 0.011602874346250984 -0.41706172911597844
P 2.231985099060666 8.554750876881473 5.811573305193926 2.1550853000533983 -0.16531319151993465 0.46352850521895006
P 6.687655312998554 3.997266916236685 1.5045347619184408 0.24041871440552143 0.10145753051655432 0.8089641853575099
Ni 5.271209713622424 2.9520793360605055 0.30659649587751586 -0.697325857653212 -0.29206394938563895 -0.05976940674914868
Ni 1.7595237600915663 1.2015570955883057 7.165294347918752 -1.0151376054269161 0.4664312806880419 -0.4579939485539661
Ni 6.694406452713078 0.936732023952561 9.184506482519142 1.8563699067895125 -0.04529718127490263 0.17076701554565427
Ni 2.8653804892002954 1.645437698680936 9.466721433200922 0.01412101278241439 -1.1444342696429257 -0.8811988144532049
Ni 5.969747679954835 2.137432699658053 2.675944055461724 0.6371682143267091 -1.1121278442007363 -0.8388288341274264
Ni 4.438040719541659 6.840307601685274 10.613794735797557 -0.37630820134770027 0.47042497522846727 -0.2714524437828745
Ni 8.227042719807605 7.240911668146336 0.39290175402562477 0.31651334067725495 0.19418668002117526 0.18316616054095552
Ni 7.716170038009308 3.9714741004042704 8.168552886151323 0.27873612192848124 -0.04048947547361414 0.1691225379636958
Ni 3.1851622069332226 8.449447674694596 12.576535089976167 0.8183700520524423 0.13985952733352042 -0.2719638362016542
Ni 9.352833988316306 4.805289964822054 10.187219280847662 0.04228076304608202 0.8235469682676912 0.2161115051187246
Ni 8.899778759457783 2.240394413441916 5.9081428467460615 -0.3940452136161472 0.6431241747998279 0.13057193138400738
Ni 3.7703885340894625 2.8447353035145833 11.388990481406672 -0.3991596520245771 0.14316108090292767 0.8643367485905435
Ni 0.8271385225867781 3.3675158660239246 12.361633830998601 0.1251607876707651 0.021941537268097697 1.4175982968002683
Ni 3.170329743430866 8.698082766205225 8.024072118665623 0.8476387191095724 -1.2002184664920812 0.262262035532858
Ni 5.594426221736426 8.125720958990833 3.6680153812037886 -0.5403260710949791 -0.1701620349718037 0.16204866183604993
Ni 3.0382406427815036 8.255459460387364 3.5573513549844886 0.3190721025433666 0.7715209529093874 -0.05365120966655276
Ni 3.425697752956386 4.622143661797258 9.435011120412254 -0.014645774937632841 0.35222339248435464 -0.9279329852849503
Ni 7.331327741731953 6.137478425088975 11.72801066961354 0.36978145597277606 0.06841217002581121 -1.612225406792972
Ni 0.6551949204971773 -0.09455057723264979 0.08291055550623057 -0.06172241671046145 -0.10983135640254633 0.5340253256879318
Ni 4.808287434411904 0.27095849573266506 1.6218132651050083 -1.1968919732220098 -0.1766856950229344 -0.26617139788959315
Ni 6.286823475292062 5.8003223167547 0.5049670289468065 -1.7003545956317359 0.3677996496560569 0.10222603325146265
Ni 8.285133498241896 8.744311218177558 11.35037414445659 -0.5525678645768096 0.9106757408663992 0.2591198903594505
Ni 0.0917362357241253 4.727856852225908 5.759461977494646 -0.25625928098220385 0.1417472312745365 0.5616487438321552
Ni 7.831458731595804 8.733533082843843 2.9282489972787102 0.4502700975471471 -0.406745434791635 -0.6673128562308894
P 8.392040209996594 1.6271431122480542 3.41245695491709 0.8567129134966988 0.3242091666596158 0.15258365976840818
P 2.015502196554837 3.3632610991593053 1.3820967844804086 -2.717136935750927 -0.884431976678522 -0.025849356962936127
P 4.806018832807428 1.305839882595659 8.250547801250928 -0.6111031418085411 -0.6889499748846909 -0.7109712163507885
P 8.499657568037032 1.6042748792069519 12.609110933497467 0.35508297342033684 -0.3790266287201279 -1.517111559106258
P 6.2824138239805505 7.802659335323724 1.406672390777249 0.5357590205495869 -0.5567520778614863 1.102264064032779
P 1.8588320230987436 3.2421414616898176 5.999992057007919 -1.2013258406236471 -0.7190254541138327 0.24878405565108122
P 7.00605218155927 4.000947699562823 5.822347796187715 0.0704867931666528 0.02288873167271542 0.9543839803876273
P 2.3862226756155738 8.442842308577145 10.504170257542395 2.1564269016829574 2.187689716351981 -1.609496437897583
