# total energy = -340890.4119319284 ev
CRYSTAL
PRIMVEC
9.08398193615628 0.00000000000000 0.00000000000000

0.00000000000000 9.08398193615628 0.00000000000000

0.00000000000000 0.00000000000000 13.29532578653553

PRIMCOORD
 96 1
Ni 6.251750773180366 1.9187095735217001 11.147040490720185 0.45753603508094104 0.8234335826182786 1.0191045604944642
Ni 4.687589013323877 0.4936144926147537 6.024497706316898 -0.17835948318093153 0.31569084477595954 -1.2746048518234563
Ni 2.683090314712393 1.5984992114489702 4.580731409006993 0.8496385231484206 0.11203453470145221 0.8280667105149158
Ni 3.866133613838064 4.564873501799323 4.939213495234293 0.5641910506380348 -0.0201888162430491 -0.6010341876083133
Ni 3.840435029035121 3.0729839019612903 2.725130074560234 -1.2698897057359744 -1.7308229394239223 0.5337990686097388
Ni 5.331089207334377 4.603416837012787 2.540032134114771 0.6470309660534017 1.1598223220632218 -0.13607486348010756
Ni 5.1483013234867885 4.5131220568992285 11.616285385084371 0.5250197797552119 -0.17535334936475605 -0.6556896701696643
Ni 5.763486745906346 8.149739783981843 12.402731118316899 -1.1486403373044736 -0.6308522994110103 -2.269064874296363
Ni 2.1526130235361887 6.736608307240848 0.15246010186699163 -1.6294065465579488 -0.7567497081374838 -1.201807408245756
Ni 3.0027193019433454 1.7821500735773215 0.47864136524441386 -0.1886410676125977 0.19529791080748302 -0.6491636961256884
Ni 8.062569893642838 8.969950677946976 6.808934971150723 0.9589687715448324 -0.15282740034809808 0.1975828501869178
Ni 8.973656942563307 2.634000476509811 1.3364990054092065 -0.8023561931226891 0.08208195420341993 -0.3570357262713335
Ni 7.070281130493487 0.8877739177651932 4.77262325951754 0.053567391703494845 -1.0660619030806093 -0.6294505339674773
Ni 1.0580567921254245 7.757747796913405 1.9944981429347213 -0.9196236940883066 0.13270157613250047 0.8169916836476768
Ni 7.54462849749246 4.109875016253255 3.7231699066522306 1.4737586460419199 -0.20193289962549738 -0.843677163358663
Ni 7.688064571737237 4.076782070181455 12.563497613235784 0.5488197103882871 -1.1002915136874405 0.2090651397949045
Ni 8.364058169013955 7.398294633020698 8.971180649096612 -0.7187817135341428 0.2791058465630742 -0.3218728052169553
Ni 6.95653150910697 0.8236927842284654 0.13278601386196698 0.5020906817628643 0.7049355516796697 0.3475861508226595
Ni 2.1301937562001463 6.232274715980823 8.900582666942835 -0.7179386488075571 1.687903257242261 1.5290358213476698
Ni 0.28921218222770906 5.2135424815125 1.4047842057705375 -0.45910209401648033 -0.6377456840967339 -0.5620228393421224
Ni 6.571788539596944 1.9281478307186808 6.944640576796241 0.24883599193493916 1.0887452036107377 -0.882326500299745
Ni 3.483216524690496 4.315418274767288 0.23464106934499368 -0.7497406238095022 1.0947063062901792 0.09905946259802295
Ni 6.060087839013771 5.877399878967113 4.662378238349112 0.23582158195314223 -0.10384197158833085 1.1458897711425298
Ni 5.429268883739541 2.8916403712362437 8.97952973686345 0.36131635592455835 0.1506563608387083 0.7746343017273885
P 9.384298344478138 5.668441043257638 12.44843989845527 1.0021782170527707 0.43193838911749477 -0.6666965628031293
P 4.171564337354983 6.266285144224803 12.445794642925181 -0.5029106065609983 -0.36724223449069004 0.36251577554929826
P 2.8350289960181656 8.863241142535108 1.210936573956324 -0.8266479757905182 -1.6925476979928076 -1.4346238848239872
P 6.412728016479398 8.039133220333685 5.796296271742779 0.32378956262369396 -0.8756218345860597 -1.527822260655543
P 4.752348720308741 1.0562127437991617 12.500730931880387 0.33967409506443436 0.5668495713068044 0.4331455220517185
P 4.214885847049305 6.174082727911663 8.074384520505584 -0.03148598642342319 0.5899154519873323 -0.41904456387396216
P 4.727531281750368 1.1832613146913376 3.5735976026321308 -0.018648211228806593 -0.6189835729978824 0.1873084648441032
P 0.5400063881922128 6.118425170793375 3.37661418026508 -2.3765187316056684 -0.6909065843904294 -0.9082823009335583
Ni 0.5771026450885647 0.14185364459731448 4.495242963718192 -0.3070627367873163 -0.4405348725372542 0.06505868017254603
Ni 2.0948661505802644 6.518810757139975 4.538785214172751 1.892623232694592 1.067637217987529 1.479149220929872
Ni 6.251641765397533 5.866181161317189 9.357396132073076 -0.6508307994154662 -1.7014953941043987 -0.9847227405804847
Ni 8.37675757571403 2.244988035505482 10.001608510264752 0.9893895499285348 0.6049854589465774 0.28267762307473254
Ni 2.462095202981744 5.432893392518747 6.753613521362838 0.8097278029964119 -0.06266421179844048 -0.3376606641788314
Ni 0.5524877793266222 0.42033673579965897 8.886556090486764 0.05051986312642266 -0.5435476633560703 0.08206164248844577
Ni 1.4395113601866463 1.13500720282381 11.116142234676095 -0.04593918573427572 1.1429126907920768 -0.7301107653937168
Ni 4.138407803409863 6.930642160684068 1.200421864903865 1.4919607708722435 0.9938249599920692 1.7441983322895638
Ni 5.6857641967462245 7.847751889606075 7.744992977923722 0.7542156288617204 0.07924577030620546 1.9531007212543587
Ni 5.521226032541307 2.643093542394486 4.893809936887856 -0.8771526694082894 1.5930382923415596 0.336960038567381
Ni 0.9851578373556753 7.374558188308754 6.775524085712325 -0.8234124995723562 0.614656149267122 -0.04470968420254881
Ni 5.511306324303479 4.613218453485878 7.24886403911828 -1.2679287253548615 -0.15732451688750326 -0.7030820434106989
Ni 0.5581252984954828 7.505894398659038 10.935086666177366 1.8445639152935203 -0.8395883380012703 0.6996573339998661
Ni 4.57085984587325 0.36975984975959264 10.41518585513056 0.5189645747000675 -1.0612058605398884 -0.6759152531879198
Ni 8.263253221838887 7.137529848519711 4.785546132172423 0.10879391627696745 0.25178196193714053 0.11576006318215547
Ni 7.47352817113946 5.961245031929702 6.952604503730401 -0.05653290208972199 2.280350731622828 -0.47924180218914875
Ni 2.5309881217323706 5.327973401541725 2.3856871060029543 0.2753435513071645 0.36290349790602017 0.4832419244874774
Ni 2.480308586696803 5.392914788164646 11.19915802009096 -1.4008611865512455 -1.143110922845812 1.0612032894367271
Ni 1.1221352004675815 3.2924892406598847 3.7569932048690142 0.5861241032657003 1.4442629505756481 -1.0938352165391354
Ni 1.6683005283898742 1.1277945211930087 2.3565702188099973 -1.57793074727616 1.3200534710745588 0.6149595394401538
Ni 1.2749822799636312 3.758824535620613 8.014329407748164 -0.421793330263693 -0.9375108587813725 0.2886695789921093
Ni 3.781143879155725 2.9266318695257234 6.924112594492356 0.3655303940059059 -0.6092383206856605 0.40896095438571506
Ni 4.0926790385113065 7.176600054683536 6.0325279463189485 1.0292475624657371 -1.6953142049943513 -2.6353113205326872
Ni 0.8230632642826032 0.16836070378960455 13.149143743303908 0.24476953517504943 -0.549871291581253 1.3169334373883383
P 0.24943796746641977 5.718684547161872 8.028169762575228 -0.48717416966234806 -0.8612624805405941 -0.43998619912263587
P 8.647305808724303 2.02755384468072 7.691691805711014 0.8047336922159303 -1.4941896602027622 0.469012925372289
P 1.8555849832793343 3.303662538400295 10.154332047606925 0.9385449564728418 -0.3956881485362089 0.568384262783776
P 4.267518438193969 6.224516995435855 3.5075198098731732 -1.1771466722742825 0.9772133195773169 0.26116443159330505
P 6.943069047927061 3.9387237132231188 10.395814263722896 -0.45402802192768255 0.5648605659012337 -0.332817220043601
P 6.425772614491779 7.755177030034921 10.16535364284956 0.12304605532060744 1.9814720733082005 0.31106620151975456
P 2.3753340918283645 8.620062946997889 5.596347837682664 0.5658977489164964 0.4676826365966398 0.07074467481372977
P 7.150628950423509 4.304753680013434 1.4812458982425538 0.7195728419768703 -1.1424509206643099 -0.4240283902417988
Ni 5.278947151212462 2.9716429998539606 0.5956812048761151 1.3148475013935872 -0.615683819200688 -0.6635652162629991
Ni 1.7585226366482103 1.2857649664822222 6.945318241846188 -0.44025770761646765 0.3616017483754611 -0.4891132956665899
Ni 7.030048174646107 0.6767003310687525 8.942755052926456 -0.6265439018436436 -1.3608519931481595 0.8686055511692267
Ni 3.0646175546288377 1.6572271544503945 9.151358704943533 -0.6038256343105213 0.2480404926168373 -0.6234184688407843
Ni 6.552557749908775 2.1762495444472028 2.666776391613204 -0.1458316857565553 0.1711331406358214 -1.088125824859184
Ni 3.9913381364039773 6.968931144404254 10.444342711843888 1.4332282900280415 0.47165241987766515 -1.6972433036962642
Ni 8.338504927921454 7.404435404786972 0.2527109261459887 0.5779968461728756 0.2674132407164943 -0.07451802581323295
Ni 7.6488490218629686 3.9215368194630735 8.076019637248084 0.9772009782821427 -0.2111168801176106 1.0570530147137795
Ni 2.8686851489679377 8.500236141718416 11.992450350483608 0.4345038358518259 0.3168390994477898 0.499940468189081
Ni 0.05006182426617913 4.533715443872814 10.288348941016718 0.09351770684418732 1.5563676763934036 -0.0963639180437308
Ni 8.878901927335487 2.52538330489836 5.547075411443836 -0.5447252286039393 -0.9890193110733095 0.8781392016912747
Ni 3.56861503855846 2.64205796845757 11.644737324802044 -0.18287845409720763 0.48586342127072457 -1.4596399472523507
Ni 1.2169628875506235 3.4551197686652206 12.385938469371434 -0.540369779848721 -0.09343645998429069 0.49680680765610563
Ni 3.296767796136091 8.390883167572841 7.685030521781711 -1.5096823565217226 1.246720980928995 2.6740149077504722
Ni 5.765321710250706 7.921295807090921 3.6459369841166693 -0.5668212891720303 1.8011863196388336 -0.9461281681367384
Ni 3.1534679816198548 8.605991859030494 3.3257193548584167 1.2320109284123297 -1.1609353526217425 0.9892396546142318
Ni 3.7037211013983953 4.490539277888936 9.243960816460396 0.037732224443451146 -1.295724407410891 0.36686505365692945
Ni 7.497855074675085 6.323078199080937 11.455970364066053 -0.09082319073115971 -0.47917006841094895 -0.4178808825831642
Ni 7.859252210694985 9.195624040357552 2.3875484138948324 0.32716105019908814 -1.2060592415435742 -0.31809842577618763
Ni 4.990140114577617 0.5277057682976686 1.4308425162568306 -0.21984757512238912 -0.8492600567630793 0.6784359627272445
Ni 6.210809266744572 5.825221486917588 0.2903967334678306 -0.8256331613727587 -0.4171020954356107 -0.7948796822399858
Ni 8.098042842973165 9.144208702787859 11.199304272199596 -0.8433318642041024 -0.2069779182485726 -0.16829335719418112
Ni 0.23761153142720026 4.787839837602873 5.683007208238733 -0.04216892005856608 1.6546522084986148 -0.18211252246546053
Ni 7.385322706863539 6.384440496834165 2.4695004650288843 0.547575810678857 0.02346877254590152 0.1398808674897591
P 8.649967415421814 1.8503071897938235 3.4317366908492937 -0.6198145535396099 -0.8082756439309177 0.15644982759203377
P 1.9375315840242449 3.3775062272879324 1.696377299654963 0.19859406506025154 -0.1279254949000958 -1.638252426984353
P 5.0186729017342255 0.9796620283044979 8.106957862812546 -1.2577849520526403 -0.18330397167040044 0.44137485194004633
P 8.617782867540292 1.752182017280075 12.456789894620298 0.45826211461368815 1.1578258604584835 -0.5140113444598502
P 6.366581388413314 7.787543257554499 1.0424795799585502 0.8323812787298696 1.1412928958004667 3.101834389603587
P 2.1273595538464813 3.5515280685993447 5.738582101121705 -0.9789578130722495 -1.170671348962584 0.04990279836771406
P 6.999144468212875 4.217229514380221 5.715686833133957 0.24831894308920455 -0.7038952833406136 1.3813169458707306
P 2.2971936795007153 8.451854854104251 9.779150877447757 0.20664341772728928 0.26961950433919374 0.5167508548782004
