# total energy = -381167.7707618885 ev
CRYSTAL
PRIMVEC
9.23370961167096 0.00000000000000 0.00000000000000
0.00000000000000 9.23370961167096 0.00000000000000
0.00000000000000 0.00000000000000 13.51446737434744
PRIMCOORD
 96 1
Ni 0.5182677955172446 4.80563789847406 11.231603432277634 -0.8701158171661662 0.3701820338453044 0.28094341399244516
Ni 2.7735385318382386 0.8295841553144041 9.656207950351005 -0.4892606198777317 -1.0491255323365867 -0.647681198042891
Ni 4.298753419928328 5.760763567046644 2.893987654351943 0.2893354947108823 0.7276535621024759 -0.6998241985950334
Ni 1.7709238957247 8.227983022625185 12.927574538537005 0.10885793674568348 1.248694816825914 1.0076199568936324
Ni 8.455150741746818 9.065443532073836 6.121107230373932 -1.4619631960688886 -3.302534702373564 0.986726915494707
Ni 3.676456807356854 8.653712429088971 11.503865818087926 -1.1605031501803305 1.2905978848176032 0.4517487389752026
Ni 5.466346742227796 8.960917941452875 9.90418568038982 -1.559103587267328 -2.339107637947062 0.4587827630038486
Ni 3.025101711244376 7.7763161264039535 9.11917079369814 -1.0233715633009344 1.1812660937592947 1.016828619976094
Ni 5.149713612547284 2.094611579401185 1.6555219187793189 0.5467075491412907 -0.40072802495296145 -0.7534908348805539
Ni 6.387298452241354 1.0542680066023775 6.829144375124735 0.2649041011413954 0.1968626841914416 -0.9109896725623925
Ni 0.27541015735116375 3.1354076039615144 1.513444678693929 0.3095582495156604 -0.7332415977132145 -0.4179281908813319
Ni 3.90687479219391 2.607063984726461 8.892614346140032 -0.3318209175686027 1.9015344191412928 -1.6573271842276167
Ni 1.4550017616694368 4.906922457089019 0.32067657103501 -1.8282530939486383 -0.3470855570371571 0.4110772293977694
Ni 7.08518221011523 2.9012222656815827 5.4280046872371175 0.6955746792900601 0.8977868007188732 0.6526583395425082
Ni 1.6077919514225334 1.0598821019290157 11.64787567355467 0.22040524739807207 -0.29709045606595286 0.8395394870412057
Ni 1.6186507936990573 8.796973430721852 2.076308520591214 0.08961425802472309 -1.0230478614129284 -0.42194939622558303
Ni 2.661339728690243 4.193775377545845 7.6252000081684885 -2.114482181820055 -0.32206306685089053 -2.2484721377466763
Ni 4.431700368140396 7.675594824063543 7.472068171166895 0.21201522356216387 -0.02313272936272145 3.4524744967612224
Ni 4.755960541800847 2.7904177526558285 6.308904259275632 -0.47089522999666644 -0.7791599575118839 -0.3582372027786024
Ni 4.298928860407286 -0.3700344413623323 5.664886268667342 -0.8188824729124866 3.8642778056917386 -0.8887460306728436
Ni 5.668463407696191 4.453593493172401 4.50825058933518 -0.3405207593354458 -0.2171738849449679 -0.9801518333803506
Ni 6.066150038655042 6.584281175272888 9.139145153912917 0.9694125925859756 0.07121724357477413 0.23164456775731718
Ni 6.415119618720237 7.957638478261181 6.9727488707479965 2.2619449754221304 0.0695920492665253 -0.4811565027133584
Ni 4.521359686597068 6.777025625681188 5.1580802766516705 2.5286689033810834 -1.0887894265851121 -1.316068775395198
P 9.142461902336155 0.6544557757353155 8.390470454009918 0.611274891499715 1.2503670623220144 -0.8062498717501405
Ni 5.6450559543195 5.06994359687816 12.385779251420624 0.21885924306719082 -0.594151344445551 0.24654231080475605
P 6.673220264394893 1.0949701977205044 10.970922888191362 1.2797226326659958 0.42471410345491367 0.6027362579010845
Ni 5.502432078636517 2.836512430074542 13.175132134797261 -0.8955918499500833 0.8372702313910548 -1.7788107801571107
P 3.6631787332126016 4.448708860889849 10.804316299034895 -0.650638223788686 -0.167137389212867 1.622525503167399
P 0.4164513752397627 6.893398065486486 1.926378934016066 -0.16457759890549076 -0.754992616237061 -0.400950939597045
P 4.574776695584902 4.8642627195741035 6.4706326797461395 -0.6755712395849397 0.8205485477609997 -0.7991914222414623
Ni 6.814643757853431 6.428610068181122 3.41897112672949 -1.6666551464967618 1.013313407733984 0.07181271106692794
Ni 0.39313718232820205 0.8733436276211001 0.25145145152217 1.4822651408510341 0.9215340237371419 -0.6186454729321732
Ni 9.150596800334128 1.785245379033279 6.09163230653814 2.147506716375192 3.170773635777462 1.7905895179595936
Ni 8.25751242534655 8.968858931553052 12.321166369762482 -1.0502485901974365 1.130836219243517 -0.257139369594312
Ni 4.088215611469976 8.554763998956972 3.3303164358575836 -0.08105094183574428 -0.03982278842389271 -1.5680538544820801
Ni 7.478399725715375 3.021851445528954 11.863890918440264 -0.12613112200383436 -1.2061237762329227 -0.6445063998593351
Ni 6.3690249413015225 0.09421615405485705 2.887500973485227 -0.17116605075628585 -0.9936120726503146 -1.0215856750451051
Ni 2.758469118066736 6.794348064550881 6.565584760441676 -3.4230366511160795 -1.3257322666268911 -0.12201555717356405
Ni 6.036796076412635 4.697344954410223 1.4209109064951797 0.1519848498421447 0.11055023684644186 -0.13009036376189853
Ni 4.4560958284249 1.9272136613475268 10.909891762416775 0.06014581625196093 -0.3716092532101342 2.6739498588404915
Ni 2.686123004770337 2.796401196359219 4.340103817447656 -0.6339530498235212 -1.6412554754767348 -0.48336559454953526
Ni 6.459626098118915 5.834088453541437 6.25273837499382 0.046997966016093254 -0.5102282232683342 -0.8049306387180847
Ni 2.893013498008258 3.0770782615628733 12.750899512630266 -0.269382191517407 1.3816946409251236 -0.8417861169835374
Ni 1.4326561848759096 5.034070635786072 3.0642969609853528 -0.233653627767546 0.11106677147154422 -0.7848618929926676
Ni 7.444336571669374 7.572546626949591 1.1645859031417602 0.7385887209577409 -0.2672548607617591 -0.09507013893297175
Ni 8.060520468605594 1.0715996791814892 4.260909061875324 -1.4642802742378394 -0.29403495706908067 0.35829633815131195
Ni 4.344728059124598 5.055132726970384 8.541886667801496 1.505332821303775 2.1818543406171265 1.3304219587930766
Ni 8.326885284210089 4.952398475976672 2.326569746969299 0.09795414534898614 1.3202761286083262 -0.4018297426575725
Ni 0.4185917490830435 4.425569185086304 8.742995012201357 -0.05553428562187855 -0.44938306695650343 -0.1070180553234673
Ni 1.4680397593688006 2.3120008002482964 8.182739693214886 -1.3270751538080305 -1.0017182466972168 0.39717373194279987
Ni 7.527716967721255 8.66048997180238 8.85490849372831 -0.5947390986282208 1.7844471525072818 -1.1142214935049712
Ni 1.359959190621596 8.811812001757884 7.312624170406602 0.7540634195545723 -0.5085395227120016 -0.01801263452733672
Ni 1.9249421688304986 3.0590632944867697 10.474711654362835 0.2981803466960219 0.5758911126837825 -0.7128923446329013
Ni 8.861378553918072 1.3167084957038766 10.4516163003645 -0.40867247661101874 -0.20315365940647592 -0.4444907718612087
Ni 2.4839786381736855 5.687346343457663 9.49071032969574 -1.821998114177862 -1.1957234068352052 2.254363049309814
P 6.351997981133232 8.457135989271864 4.892953701480238 0.49329313807589237 -0.08447050904025452 -1.018857477480665
Ni 1.8905650686642586 0.4046488478606361 4.416622644030416 -0.4729891364112177 -0.9330484521346447 -0.30694986535853586
P 1.40224034605034 7.6336737833021315 10.884416881501211 0.1750823550915565 -0.5558941007365651 -0.31064479771161985
Ni 6.28107385908733 4.1916608580889365 7.994942664313186 1.7135214720309975 -1.031454597419385 -1.5266086999634159
P 0.5661796669495808 7.493201361913733 5.581677619610652 1.8867222938291248 -1.020969638727661 1.0288824658168345
P 0.38067259798374664 2.8802709790102963 12.634120789610538 0.6471425519306016 0.02719224414407575 0.14854445670202804
P 7.470588007547059 5.270472064326519 10.631141772368826 0.0013657699992750672 -0.1824043426742665 0.777432433297816
Ni 7.1410738532273035 2.9799304047675435 2.820739407645326 -0.5210237712219413 -0.5500587250017107 0.39259202610938837
Ni 2.789115799627776 2.37731082696756 1.8024921014857374 -0.1400857844117136 1.2997970348183678 -0.4434602737141653
Ni 1.2459044118804194 3.9820371868630473 5.619491506422575 -0.5680916712440216 0.4499322545917542 1.1572594464320523
Ni 2.673694431892615 6.891606725859237 1.307760107906105 0.25351694235037625 -0.8540965589197743 0.13318571485777062
Ni 9.151021550967393 6.914413988123704 12.622404135729008 -0.11018616863880379 -1.5179942188215276 0.10474751412173573
Ni 2.5033417268249365 1.3859059140884602 6.30507965683436 1.103959449457331 1.2206813623321233 0.7270331549096576
Ni 8.465769507578454 0.6410373492078967 2.1576658109094327 0.9208128293004013 -1.325160710394137 0.06473369273295948
Ni 6.024293633859563 1.6841177934784404 9.007487231535716 0.6249603594066075 1.3933152558831874 -0.8748096230974096
Ni 4.522089149641155 6.7771179627753755 10.927095086434965 0.5435273516410962 -1.9907637830227713 -0.6303079968717661
Ni 5.6598298893896 4.017808577151528 10.324457964587086 0.41364113347020376 -0.5021050799405675 -0.5611805459464851
Ni 3.2665724462557515 1.005735629897097 13.502533616401992 0.5252727763062824 -2.00924050167072 0.08030095104359718
Ni 2.4085576996408227 7.182542442227192 4.156225574823301 -1.798651983252754 0.4930185442582671 -0.3672967418777094
Ni 6.714984332096185 7.194195383513734 11.925585024551122 0.07825178182405233 -0.21976350004901507 -0.0085471182390627
Ni 5.011651189317194 1.6702579956408021 3.826932106158654 -0.2460540583144279 0.0232204039805213 3.2159070377809904
Ni 8.232729149266454 4.599957021170004 13.21762197205887 -0.3012492154293328 1.2591196117036638 1.4569762843772587
Ni 2.649585216600095 6.145956989161841 12.364629439996834 0.7364961000947703 -0.4227580081698074 -1.0423167369448696
Ni 3.606502224799928 4.585497032220143 0.9460046104086804 1.3658504748040154 -0.1679645130998527 0.12293009856803346
Ni 5.555073456033169 0.42791410211227693 12.649811632025928 0.2963366086190638 -0.808926133030723 0.8619687625789993
Ni 5.0786971534071945 6.725344554064092 0.2333229098202147 -0.5914995086450006 1.549634471434628 0.9905226350917135
Ni 8.782005587753956 7.853140588768476 3.7985790780172475 -0.2629130388532956 0.16691935966478993 -1.068539160976508
Ni 9.206682351343998 3.0237074211221353 3.9987418905726213 0.7117718578752129 0.20841953579110561 -1.0143595896103113
Ni 0.8492731939081387 6.666341150877877 8.28959864220598 1.9243987253339763 1.7363325563882421 -0.1841038418638765
Ni 7.720304445069434 3.172111598901296 9.537469834192606 1.418445732402228 0.9631172464955672 -0.3133511408991893
Ni 7.447337527230489 1.8938615029267747 0.6852400395666958 -0.7358934335137649 0.6643260056884236 -1.4684292634092064
Ni 8.409434646414276 7.149144115259347 10.006638303246255 1.885342639872779 -1.7775277996796288 2.0876702038335337
P 1.179421704064967 1.4646140531744212 2.6706611583485347 -1.3755376201847924 1.5265261675519388 1.3978445112121085
Ni 3.0770874952722926 5.048743000052565 4.718589873041028 0.45839684041933954 -0.9576901619427248 1.358409445144938
P 8.691127419654 4.130570636574071 6.802020353706972 -1.391790591708545 -0.13622938678010085 -0.08198528072455558
Ni 8.306820433643008 5.299779858021831 4.796527920761459 1.2420636846626414 -0.5208227109547288 0.5014108820870203
P 4.212095057032769 3.5018750633753593 3.1074359280191044 0.5411079435663261 1.6843330233924994 -1.250294557212866
P 4.758841459139517 9.124234559943417 1.210970519036225 0.09965004499417032 -0.7448035915192012 0.5469723727669031
P 4.27983354932918 0.9512659780355199 7.5556821800670715 -0.04940888945043104 -1.0644192252708637 0.12045335489276673
Ni 8.092579907707712 6.250288671885008 7.7264771798159115 -1.2023026027146195 -0.6953687339268412 -0.20444846695849953
