# total energy = -381164.7722185457 ev
CRYSTAL
PRIMVEC
9.27176622640659 0.00000000000000 0.00000000000000

0.00000000000000 9.27176622640659 0.00000000000000

0.00000000000000 0.00000000000000 13.57016707684073

PRIMCOORD
 96 1
Ni 6.1422484481500454 8.763441671115013 2.0578611031297274 -1.546103575463234 0.2774670254080705 -0.6304036419093659
Ni 0.155625669432114 8.449212240929322 2.652804382838534 -0.12278277435689176 0.06760201541969002 0.14745585162353958
Ni 5.319564628245758 6.6561639081934905 10.471256511011713 -0.4630716201871896 -3.4413380205284274 1.7358319626027394
Ni 7.56784741239014 7.185359239026998 10.220100125136435 0.6477534460417231 0.9035316736224503 -0.8460852585795235
Ni 4.461221595320487 4.918004431693807 4.968051571591015 0.6082222207163203 1.4899859065340597 -0.28014200113707244
Ni 2.2943541906709726 7.677597309563667 2.882561532194718 1.0141644428803696 -0.8152273926584025 0.1730882074796632
Ni 3.685369466775791 1.0596608936441014 5.851062138640657 1.4912753147694446 -0.5043977326294862 -1.360832452764134
Ni 1.3511466812035626 3.072746783169842 6.9288864223804705 0.8748209359513192 0.25197016668854666 0.28397474461960126
Ni 2.684575017091707 1.9025849792854685 11.304967242524386 -0.3186437567566964 -0.22443725137560053 0.14951350548351672
Ni 2.1267948308906246 8.085712644858686 5.297413451483296 -0.8475438454029209 0.09721803851390999 0.21091350585755292
Ni 0.5165059915354008 6.2598329878099825 3.847413979987007 0.6570788372077071 -0.12307922255138805 -0.7676799818967424
Ni 7.70763783223345 0.7372908526855511 0.9099663730860185 -0.10224788762833359 2.8367377128354114 0.8546264632813152
Ni 0.06328629493430289 2.247225802791186 12.403729956000365 0.6304095554466369 0.7314600803327596 0.8741334229659914
Ni 4.410059989119294 8.071554657785612 4.982422809287979 0.8475309898871146 -0.19213391125720458 -0.19113349501714824
Ni 1.2909636464351784 6.498886937191164 0.20019968570834373 -0.0708698875376844 0.47005216527008076 -0.3000888765726445
Ni 5.1337769760059055 0.8965816513187038 13.101480434310124 -0.20966600660369697 -1.2190032032987521 0.9501830549324022
Ni 9.073656426511807 3.595210811701416 3.7240336592403787 -0.8518825819875909 -0.35387249805200344 -1.7448120546141626
Ni 6.711831592795151 2.507818065185302 12.775158766573222 0.8335449600206677 -0.5132027325156259 -0.3881792417536734
Ni 7.725606515237784 2.4430455061201446 10.393174331485916 0.7354352629304238 0.6426665184371191 1.9712465389254503
Ni 1.3903013501030985 4.533800981573285 11.496523787728789 0.6634644290190768 0.6824296572676698 -0.11742768069256553
Ni 6.794127790084349 6.571475595210218 12.2253634254719 1.2759749926981059 -0.3299350133997995 1.2057229412500783
Ni 8.925104187556476 3.7962041606012824 8.17196788633924 -0.8694784406924833 0.9525230159194885 0.5978519332255897
Ni 2.2421541466490957 0.9464062688257664 3.690312245366921 0.45146463207588056 -0.5142337448833015 0.2910254808187956
Ni 6.2570421861668954 4.280718849846615 6.639461748459742 0.5950563727583236 1.0299219628249423 0.2880252605398911
P 3.707649521089214 5.464500878361207 12.146764808565637 0.25855990409092244 -0.5518744380542108 0.39447870160914
Ni 7.479431849371913 0.29071715813682997 9.394938889288516 0.5011925954286272 0.30031616209210216 -1.3249334248746794
P 6.130649468563658 7.82407267287763 8.820581712198143 1.4108131555576349 0.6326664698016137 -1.6559297896594578
Ni 6.403063232934309 6.505414260635463 5.201064965256344 1.326985936528334 -0.8255251750399848 -1.1940761010397694
P 1.7461239237136792 4.871098566204166 8.882651551399643 -0.7998956473973385 -1.961464519838022 0.5202629817965169
P 3.8908039917123323 8.921664362275461 2.3124647316990243 1.068405206501805 0.5660070208008511 0.14835085263398323
P 2.849371390527735 7.212914928340145 7.094374469579204 0.708674964117444 0.012571408907107381 0.13929491307930203
Ni 6.717051597197338 8.942980152898249 4.475006857390065 -0.38256240978752826 1.2372197263067788 0.7085286683475668
Ni 8.027801192823047 3.4699399778151676 0.9991514927035023 0.4655694469083788 -1.3269705099093663 -0.08189580633454284
Ni 0.14312454698900626 6.10099836007663 9.659801727220195 0.7336257205255107 -1.2975354924777007 0.10633851275793943
Ni 6.706871197848135 6.4235074775290215 1.0423013656827942 0.404462038074097 2.19015103340828 -0.6266030372163531
Ni 6.400290974823733 2.4150447720267048 2.180481139043355 0.1728375249214378 -0.03056835970516026 -1.7467218700423661
Ni 0.22447966000320857 1.3403172582164307 8.183746738190997 0.04460684007609737 -0.22775448867429163 0.4708052413860214
Ni 0.970689024650508 8.081651611238511 8.296229952056825 -1.0185492022116265 -0.07388630576650503 1.115616059859653
Ni 9.077800906028287 4.822718489879805 5.536817873628959 -2.3728711075507523 -0.318449124247387 1.7603078362569167
Ni 5.9176677258946455 2.212910995877337 5.881798970956274 -0.1724513452266127 -2.511556154960197 0.6153346633913854
Ni 5.940670977976045 4.566419055262266 0.05324033619581202 -0.8189742612953443 -0.14695731472056625 1.5059432011942644
Ni 5.075179413267316 0.7877190621758862 8.100928540461581 0.4617919821438176 -0.12297483576303983 -0.3793058505234435
Ni 6.469235828704137 3.4884927820936356 4.10257391453167 -0.02031454318763598 0.1568347217352783 1.9931615938309863
Ni 0.26485542051867345 8.908489182425534 0.5405309922582227 2.233824305926514 -0.14359893977129462 -2.271469369972798
Ni 3.898851884822632 3.8668550194728106 10.262058576151817 -1.9907308729023068 0.1733581733115982 0.33076933637563677
Ni 4.194973555510146 2.924908470216231 12.635915380939023 0.5839345518135491 1.5149631453046877 -0.09204369340182211
Ni 7.491067916023326 7.284205539083345 3.2223578578316197 0.1389285308788188 -1.0194912544099215 0.5163147957820463
Ni 2.616650057499474 1.9741444712500948 8.81557403124322 1.2305238023438423 0.6025848199248848 0.9280080614972598
Ni 6.728316793198508 2.6067385393716966 8.462396692545505 -0.7316634545928173 -0.4569431386919486 -1.7920591605265848
Ni 3.593328643151427 5.928979280727095 8.881729010657162 -0.19058842114695565 0.8014794469446906 0.25417103099460747
Ni 6.378381791160554 8.204595231794478 6.741333425845455 -0.8486201091862352 0.4935746738720531 0.3726299811651647
Ni 5.033743889868778 6.400485681915112 6.9852977026358705 -1.5958528789722195 -0.6504371635214734 0.8449277479363126
Ni 1.7955238943262122 3.966786116181121 4.86837915716125 0.9967225932548384 1.2077278874952488 0.24283452293586563
Ni 4.076758535744794 2.914134677826636 7.299108048986784 0.8566782036040214 1.0786374257527747 -0.1605373673978461
Ni 8.447617497133272 0.1335431037399463 11.8429021402309 -2.185903056765203 0.4227353824619881 -0.6500263012362998
Ni 7.0379381555549125 4.954396114249023 2.594304173645633 0.6958628999544403 -0.6135850276901303 0.4549060536572617
P 8.898828001986672 7.0596340885942 5.658840807795693 -1.4252781819430291 0.4008612080967161 0.369097542531874
Ni 7.7429354463704465 6.1950975158098505 7.614736588700519 0.3995810558327118 1.3132575311986479 -1.3460653217572882
P 8.497304892499745 4.489444851804074 11.401301821101955 -0.9438704824508132 -0.7078180154337874 -1.4474210365886555
Ni 0.3479870039475457 1.7884495366728035 2.3482092449695644 0.13675980536227414 -0.5252604350111083 -1.1658248195035599
P 8.047874566767518 1.217382909426721 3.7834712440017717 -0.7489811199356584 1.6596159802617931 -0.8360492144997602
P 5.1726534919177585 4.421696055770707 8.67280273854857 -2.820811785633774 -1.547495313604438 -2.2961804995662325
P 6.827283626216183 8.737035680817621 13.215877340731213 -0.9009207183621645 -1.7563745626407816 -1.2790973403771715
Ni 3.924395600858204 2.8160672061358025 4.543156193725697 -0.6855707739998128 1.4232225849655813 -0.04436438504798811
Ni 5.117189786173733 6.679315508534987 2.883240225484665 -0.5758929124559953 1.5012470812701757 0.9143413626434447
Ni 2.744693149496298 8.300826893766601 0.36541050709602013 0.2543749194752974 1.370932003091981 0.8613910356986586
Ni 6.906965185421159 4.91728123392583 9.255830871441656 4.028672599162461 0.3773099031393373 2.4732482605189343
Ni 5.9935756762333865 9.001763150961962 11.046672523808535 -0.21725076092949036 -0.3416409889828181 1.460792058578923
Ni 8.710768767014073 5.257054380147093 13.361566458266658 -0.7803773748587528 0.17419969537628707 -0.9848430682084328
Ni 7.968740041771652 0.36389828201964924 6.847248520495457 0.3655910720405123 0.70311649619306 -0.19282605222822274
Ni 5.899096378083666 4.261257412475048 11.457007519945265 0.608575747400997 0.3866093261633923 -1.5439423061458573
Ni 3.2611954323251964 5.880070713726136 1.2877435620144329 -0.6345019803484557 1.107264602571164 -1.9131483492311376
Ni 3.532589302407676 8.984749459882007 11.815367775980143 2.46484203873311 -0.2302289183567132 -0.8704562312247203
Ni 2.576447679012998 6.967463460242251 10.959769185866678 -0.5525267269262292 -0.3614698507832872 0.3065667709875043
Ni 0.06475401553264447 9.125884285832452 4.8371129069924095 -0.39780416643794714 -0.06340083285414888 1.075395007556077
Ni 0.920365586118867 6.032823062795482 7.097997875832091 -0.5273918795318143 0.5816794372307853 0.8144923142645908
Ni 4.642076667912091 4.55505186983228 2.2963847074810597 1.5165819118550332 -3.156877851631976 0.8943039843765952
Ni 3.770317389214234 2.473252920582538 1.359798166297135 0.9821819764365021 -1.6385555600470685 -0.7019561573363717
Ni 8.368992919281494 2.4042987949358774 5.6661145084236075 0.11685432468759875 -0.049492707413488955 0.46894607669009564
Ni 5.091219568890379 1.3278560043682244 3.5515704622871764 -0.5685534413717886 -2.736152557621481 -0.17012012599027476
Ni 2.3392666264155504 3.288528599248197 2.8519609948430653 -0.7254562973408409 0.3543406959376736 -1.1534927803007682
Ni 2.166431631635478 3.8215717130779887 0.09871649532876085 0.3664729604248334 -0.42061139414044985 -0.7427361674672112
Ni 5.166311603798581 1.8968828430379632 10.439190107414971 0.20405046018913245 -0.17395929723070686 0.29064547177155753
Ni 2.8504561871796996 4.941035499073974 6.780117224094747 1.3472683409264539 -0.44405368432379005 0.10542834223884424
Ni 1.3916457562102338 9.178019427490536 11.81386204114015 -0.6896009782051284 -0.094558746514192 0.1938408666459823
Ni 0.8885096516161379 2.6216846265765397 10.07787123076777 -1.4140000379260484 1.0827535048036772 0.09010431028726416
Ni 4.25968121221151 8.199532847418643 9.535335682644977 -3.8955287932862204 2.9982590414130814 -1.0472522265732738
Ni 2.5413725872661495 0.19826003220756636 7.419217290598258 0.06085904026890164 -1.7964701451100866 1.461684231375889
P 8.77468832358367 6.347265743605062 1.816258345204742 0.7464454979979983 0.9084831040904547 -0.5395398277482579
Ni 9.268409876721314 7.238681166765863 11.834000317448412 0.4857063268675699 -0.6206954134826664 0.21397646105359278
P 2.204501503883049 0.03129406546760906 9.723689759784518 -0.029114657977769215 -0.17987052050881924 0.6360842372339109
Ni 0.7471374684495357 4.652229251962527 1.6432926185204588 0.1711573090055375 -0.2650773934944661 1.7286932946754292
P 2.963117418957644 5.503980059079708 3.3842234259540933 -0.7191329262259745 -0.2106651372921727 1.02786996539192
P 1.4450696733779167 1.2584661057075268 5.904705796668609 -0.45120315088437773 -0.653363850249965 -1.1404305478001715
P 1.8142343186310343 1.516962948927763 0.5589920060507554 -0.3181827579598778 0.06645710318196942 -0.28458461028945825
Ni 4.990398382621483 7.4556775842237695 13.403254173707362 -1.322952646999225 0.2505234069396911 -0.24076247089818537
