# total energy = -340893.048107803 ev
CRYSTAL
PRIMVEC
9.07210392704241 0.00000000000000 0.00000000000000
0.00000000000000 9.07210392704241 0.00000000000000
0.00000000000000 0.00000000000000 13.27794111954814
PRIMCOORD
 96 1
Ni 6.632869246844278 1.9587670448340029 11.301626165182965 0.8983118199844078 0.696336240046433 1.7917614267805075
Ni 4.71997983189354 0.4107322505162943 5.945370691028259 -0.2443044226131728 -0.6245885778894855 -0.5529658713461767
Ni 2.8538117524972435 1.8763560521783622 5.009342753584981 0.1642199584557559 -1.0092436085399845 -0.210983696973856
Ni 3.429772418583623 4.35656041811191 5.192816984702076 -0.03172844145153245 0.7533334833670833 -0.6644093094308493
Ni 5.0318424786934415 4.356696499671778 2.823527254953974 -0.01483886478504541 -0.2088838770220338 -0.0878553663520874
Ni 6.900568891415244 5.978335088090516 2.7164011293952326 0.9016671096098858 -0.8036106343550805 -1.0238924688014106
Ni 5.393538192716752 4.578953975351054 11.696670933477757 -1.1132706995559278 -0.4867147135274263 -0.30216247127222157
Ni 5.708258552273868 7.642222464796056 12.355177766569245 -0.46987013116626175 1.7284942912907457 -0.23964146991986474
Ni 1.9752964183058852 6.491471434038155 0.2873026468750507 0.6152804131146823 0.32651570330560536 0.24808085893646953
Ni 2.6340944659354903 1.6240971286003403 0.3501024723330145 0.2045399982310413 0.2967220169829406 0.31567027595066927
Ni 0.5192019546761253 -0.3722048392866624 4.422085503608817 0.6799930228017192 2.005010008529141 0.8040554352019831
Ni 8.67379326542217 2.0821022985937385 1.2572629748764408 -0.2467731958686395 0.8854226227265655 -0.7323607377701581
Ni 7.115233016053925 0.6844212981422197 4.9359684837149285 -1.321919320638704 0.04946391105808255 -0.7356077839525461
Ni 0.7834197257352861 7.309657276688341 2.3563964555558736 -0.31651642600104846 0.5995151798606255 -0.17615707621297405
Ni 7.580514013448228 3.885382553123357 3.976344911001059 -0.10336965993760262 -0.31050724369249105 -0.952615832743611
Ni 7.559412299564804 4.085386157712333 12.643242470179553 0.6261075856371733 -1.1905110093963303 0.7490009174300004
Ni 7.919692765365494 8.828091610103714 7.029899898702732 0.5377272000195514 0.09675189751076885 0.6687179641085321
Ni 6.698333549244444 0.5641188487467268 0.3306282939056038 0.8843733555264447 0.8539451209435744 -0.6582224638938471
Ni 2.1488004071367013 6.4866360026108705 9.297705444364192 -0.16801516383212997 0.1031580581474288 -0.8100011112624567
Ni 9.299450917172091 4.829289612882952 1.1897184390311035 -0.8571538576888593 0.034822764106140026 0.7754331434796
Ni 6.459455979053374 1.7928473349397915 7.184202779436271 0.6521037525906189 1.4790934279912722 -0.999319407447737
Ni 3.482635568540076 4.306418899352804 0.4816706604647221 -0.2612811596768274 0.6073472743105346 -0.5892207399131529
Ni 5.887849922882747 5.587300189759814 4.925970117906278 0.1508705337320434 0.25103299958625797 0.7752701355391745
Ni 5.2596339378073225 2.7368269715313156 9.531423709015492 -0.09872753317990093 -0.123962910707922 -1.0934253826952267
P 0.18368107508809225 5.741489669193464 12.431113998606401 0.5047697712569243 -0.5155012987418154 0.6804992730141765
P 4.162825637380822 6.118226931634107 12.731540351115054 -1.0840668242984621 0.24450085489469503 -0.03534366960661655
P 2.5540875808375048 8.48634545275695 1.357430796673967 -0.4698680742837327 -0.13806515443725897 0.9230838847227649
P 6.4161638988075875 7.852160023255346 5.838629222678743 -0.6088778520224483 -0.9150129347891727 -0.26625315897012214
P 4.8024543292771185 1.3317213611734364 12.645579444167675 0.46602864593298454 -1.2923745171020515 1.1868813830635432
P 4.071297180214071 6.1961744491261 8.067995356519285 -0.5081685125258281 -0.1005339902610204 0.7584751754690228
P 4.828690854019535 1.1917932292138806 3.8131985432969437 1.0649023355548692 -1.9826329263855211 0.7296641647746014
P 0.08184035731459734 5.478888547065527 3.4659673918771294 0.1870611247199875 0.5528617416681446 0.17131491762932433
Ni 1.3054485480150548 1.0356804637341062 2.5679007663744358 0.2174317665920449 -0.0439856615523307 -0.17993736919101266
Ni 1.6519031273332265 6.5702717293053166 4.720480612033852 0.8667888096754621 -0.05896002347397588 -0.3031137794418973
Ni 6.174909437370836 5.64851874749212 9.192557944685921 -0.8607994248612465 0.7260047136451433 0.43019132451940106
Ni 8.80722577092406 2.457179366004 10.119663467853899 0.21860161853042998 -0.053747626035100984 1.1081752873108914
Ni 2.1515311104380386 5.341037926919945 6.993199609216919 -0.15222936175278298 -0.03509607237218472 0.654235454221641
Ni 0.7466885910959027 -0.03556355485572192 9.096717516492175 -0.009475800700919164 -0.6170542171856535 0.5220709815395331
Ni 1.6131380269790263 1.1319536312882301 11.389539388909242 -0.5379701692682929 0.17069631020871892 0.03464638642927582
Ni 4.263371765914779 6.459927728460913 1.7184705975787165 -0.09605924231911844 1.3565996456297087 -0.03936538917149995
Ni 5.53340281994837 7.9570879780170305 7.945798651810438 -0.20060543906332548 0.23145687722654332 0.06762772645130288
Ni 5.252476047758302 2.9716493112383398 4.882538327259028 0.670801071889806 -0.40585300488435266 0.4828344046364137
Ni 0.7490346371880151 7.491425952255097 6.865492508543847 0.21298864321902675 -0.3255325134567297 0.155174560424036
Ni 5.0943402030885006 4.373053503167828 7.37999964940455 0.2795851001923378 -0.06300154053320117 -0.3000089152643285
Ni 8.203921783408342 7.202851396400487 9.212195420985172 -0.086153038949 0.8273982236929815 0.3813473064335045
Ni 4.945421616073712 0.5183428264281631 10.660832615134204 -1.8097588917991927 -1.4243104187131213 -0.7244031734859782
Ni 7.97313652997738 7.258272879682446 4.327267501534874 -0.49053665837667776 -1.3839656963474876 1.3149524024025676
Ni 7.341999327416803 6.216668332042117 7.033949685924385 0.15308065400948476 -0.4578265697381663 -0.29185363314704577
Ni 2.17544517655872 5.347696851249452 2.526912093332004 1.1946882807024715 -0.21758269034761238 0.45980554784140815
Ni 2.216296860830885 5.213475072700332 11.490849388599255 0.9171346091178656 -0.09649324453274348 -0.03795899574227656
Ni 1.2975195291267867 3.420981549816195 3.6808973291627507 -1.1248110960953597 -0.4118596160897488 0.1468719540956116
Ni 3.489230988141645 2.2274283324280306 2.664577642556166 -0.48037128780790167 1.2736072637968774 -0.4749699142866723
Ni 1.0496242875685096 3.3922229801642376 8.263407569278337 -0.21987765702937614 0.252254787808501 -0.09457160202999841
Ni 3.236854127211738 2.9377740749353713 7.407524412913711 0.4352440564519601 -0.3851808212469818 -0.4464836339215214
Ni 3.8444310757072886 6.896459228307251 5.948557721160352 0.216946085204878 0.9921678840046203 0.2879890079853169
Ni 0.8176188361507385 7.359744362823501 11.159937137838726 -0.17583183166307137 0.7373908439948977 0.0897574684708067
P 0.2403907971367945 5.7454541786375986 8.162999336725045 0.5414272745789579 -1.154080277373122 -0.7889543178944864
P 8.601234577700922 1.5230701785548517 8.193472534031331 -0.22538753110401183 0.9102242551512775 -1.384124590522855
P 1.9129529196786763 3.2956322889704235 10.434669598686735 -0.6759432782123778 -0.00950613971822234 -0.2595978584371335
P 3.987489083543793 6.12799758763258 3.9262605464970965 -1.1796064466686846 -0.6484869817736381 -1.2404613731725282
P 6.9620959006832495 3.927096087274682 10.320186904001568 0.3555198038474393 0.14317599330126307 0.3724672303350553
P 6.279891824756467 7.779111441918576 10.111205545302948 -0.4665459518890352 -0.7099597443671385 0.45197139650896995
P 2.244502032139382 8.741144565452496 5.651569696064345 1.0640173618467546 -0.9683674391509131 0.3806402530641509
P 7.117011148436191 4.011475726496403 1.6448314222721223 -1.0393077749152166 -0.38093772969991174 -0.4370980789415634
Ni 5.233043601009251 2.934072656506981 0.7952942026493073 0.7859759519924528 -0.32706129139643025 -1.004441816275967
Ni 1.3311316744140111 1.0644934660100107 6.948107623539288 -0.5390999119973618 1.321599218295124 0.08839067003026713
Ni 6.939978111152816 0.6633622231475543 9.263727693286125 0.03431934210716025 -0.4367265545347576 0.047754641676459694
Ni 2.662834891379465 1.5076657459778726 9.284454729274712 1.1244226024076893 -0.0816320111501949 -0.4133755385136429
Ni 6.434199241542002 1.9091789244183563 2.4883656306839907 1.0227760958087806 0.2382152789962994 1.3675198920866383
Ni 4.194877380781568 6.822158696619701 10.63418330966019 0.08223544906214869 0.2534030424803313 -0.7202714107057917
Ni 8.186648497409186 7.414449149890158 0.4002657641417002 -0.22572768805224994 -0.6350275138346225 -0.15503314975016527
Ni 7.679826335839388 3.835939586371569 8.2096045493484 0.09496703769620418 0.035003255548062294 -0.5589483141818568
Ni 3.183564588367701 8.664340133063387 12.53752342794984 1.7938406779070397 -1.0040970313420385 -1.0727945938187524
Ni -0.07072067945264014 4.940214228382788 10.293259084935025 0.9308414171809969 -0.4768915567894174 -0.8267209951202988
Ni 8.617945393252628 2.5039369899744073 5.721305145023546 0.09501820264911379 -0.16059341744676212 1.2394966952664137
Ni 3.7161061647524187 2.7270835318448166 11.578311728757168 -0.43631543513926796 1.1506486259837538 -0.682459739174657
Ni 0.8921779228020358 3.388993311143387 12.605878102681586 0.533107698969669 -0.593019801944269 -0.44304375500203697
Ni 2.9850034483133183 8.529138567283223 7.8296430611493015 0.6976189634135985 -0.33358906521261905 0.16138608855138656
Ni 5.572240497134499 7.695620868887988 3.684270337426662 -0.633795184089418 1.661218805972539 0.2790847635171516
Ni 3.0816485721310793 8.577656179427912 3.60624933589234 0.5856206812667204 -0.09081650586294036 -0.10918806639159259
Ni 3.6500884640087925 4.4181327878998715 9.526020363878363 -0.36337658088769675 0.6978246516665014 -0.29457925960832493
Ni 7.370966555460558 6.108683078235412 11.484529760959015 -0.6598785114400313 1.426347760858124 -0.7984931106228571
Ni 0.9099411024167149 -0.31320441098019386 -0.0074772281095089425 -1.0775102541268669 1.3958886730373188 0.2950178898076403
Ni 4.6046098854380375 0.3539608381604522 1.52482563067714 -0.2393123687152201 -0.8606672701587563 0.3903752209637277
Ni 6.236055418271212 5.886824775131748 0.3826849338172433 -0.09503491481966214 -1.4285735648648494 1.0541492108034232
Ni 7.724706034283626 8.73520233733829 11.441110671257354 1.1610176279229036 -0.07980010014777869 0.1579536658310699
Ni 0.011176832117101453 4.973590498966243 5.675762275777554 -0.21437395360232755 0.05240730995712265 0.3950050064262552
Ni 8.005015903402295 8.958929493864133 2.589928742075356 0.3536426414293845 0.129515465095035 -0.9044981513007778
P 8.530662680753736 1.714355491208329 3.685837089785934 0.555114028037431 0.16238419079859776 -0.9625253785478393
P 1.9461296039743257 3.2868958528269423 1.5256620786651245 -1.726507342767704 0.12020807165118007 -0.07115913664332907
P 4.624396144242744 1.2100100140281171 8.042395693477047 -1.0255567438777113 -0.5986204359604981 0.6757069938318556
P 8.678710345785374 1.510278511927325 12.247758612051589 -0.4503693421291728 -0.1239757662237284 1.122038675556545
P 6.4133878349862945 7.922550478122708 1.5870720577916435 -1.006135659038622 -1.2760233294375378 -0.19258231164853287
P 1.6032222173166952 3.3780342095220734 5.922426432824232 0.04697122654321588 0.0013223183558493355 1.0640885814043222
P 6.800648738056676 3.9884870149828195 6.118011015559117 1.0832132180489151 -0.16080939011231013 0.1891779139526742
P 2.63559136309403 8.458648319271958 10.298052784683952 -0.41990022700603813 0.39056393993576605 -0.1023579308436366
