# total energy = -340862.3214658033 ev
CRYSTAL
PRIMVEC
9.27533429315113 0.00000000000000 0.00000000000000

0.00000000000000 9.27533429315113 0.00000000000000

0.00000000000000 0.00000000000000 13.57538930318657

PRIMCOORD
 96 1
Ni 0.13499321828421149 4.919711620426828 7.641939745119238 -0.20689847116088883 0.5663101538635666 1.4326891296951199
Ni 4.957332377150805 3.875244028608069 9.277149680983214 1.1863977585589052 0.40999556629781647 1.8904519360748864
Ni 7.294336381937917 4.914053666383034 5.393366779436266 0.7466676413111334 2.935428736350422 3.0200110883781925
Ni 4.438126977955029 5.325006636652394 7.195513258062192 -0.04085868588757479 2.0050717150050112 1.1805400142265474
Ni 6.7456354190384324 6.473098265483054 12.409127765060592 -0.31869389326834147 2.4272514820738453 0.32044224341801586
Ni 1.7447738970884112 0.20191568422088965 9.518601478501923 0.3861886936862059 1.4154038602521106 -2.080653920416701
Ni 6.747518311941532 2.886205835749491 5.0501942435446505 2.376601264017146 -3.025046851029887 -1.2227994371163908
Ni 2.628277334028496 2.0254084176605636 3.613700929033196 -1.1844812582624824 0.8362294488313663 0.14946748273692967
Ni 5.76008475195111 8.819711516810118 0.8054885984772223 -0.961019483426274 -3.109058675266168 0.8575459509209553
Ni 1.7746126481685478 1.7262046774233712 11.502237499717195 -0.9131311443854274 -0.4571809657343675 0.40009604779591745
Ni 5.506107542726273 4.195447126148783 1.482839378397721 1.3627109007337694 -0.18803660125937938 1.148423850418293
Ni 6.175582636124502 7.243832185596188 6.654574822604102 0.8403103037689593 0.9420378001174486 0.9348219990952998
Ni 7.500582719835934 0.7148481746956522 6.112400912590876 -0.3786347925983479 -0.014291219811691517 0.18602471303567317
Ni 3.609746853936689 5.51719156745141 2.8160379302719547 2.9052437281266097 -1.7713137004491173 0.732102856123081
Ni 4.896309951488319 3.948565547814933 5.432151590639745 -2.161903608526812 1.932026674192879 -0.6972494958893217
Ni 3.926230542343696 2.553165675263515 12.099744345211821 -0.4205895397635789 -0.3585519058055438 -0.033528727885064835
Ni 5.2836479201257145 1.3159751832448565 13.361984733109287 -1.5614062672585753 2.2541059389936855 1.8508091248722833
Ni 6.494134724124567 7.861588013833446 9.194461929000248 0.3466446128449966 -0.8679820586526148 0.5148911759616422
Ni 0.1887447092336985 6.773721131898443 11.057752340170586 -1.382685029862851 -0.4729076324410049 1.7498938400124444
Ni 1.656806624709171 5.288035153343279 0.7732939124345881 -2.30213054650208 1.18681119194724 2.4450273180000277
Ni 2.5374996352963555 7.0888135201307465 1.9439004882257458 -1.5157822987718732 1.3896650607251098 -1.4313706679940121
Ni 3.995999608437817 7.826044932037026 6.255987728287504 -0.7974222461561815 0.7123629544919925 1.9334659777425665
Ni 4.892961555734532 6.372646392869476 0.8042048921826961 1.2431348062396332 2.4817208167663196 0.2724307485357437
Ni 2.282938079998143 7.69125577111177 4.237842825072343 1.0435482953591255 -1.5053006825142592 0.32117192249518883
P 4.475998168710453 0.9750695391045576 2.0583822318010316 -1.1631333887143258 0.3202962047584548 -2.770122229698707
P 0.2348004551501767 0.35307673806860324 7.685544020127889 -2.425880569868248 1.5514396429641668 1.2510692305953615
P 6.163969917332978 0.2866495749941194 7.870386596138269 -0.002830013249627384 -0.074486144134033 -1.013213648931326
P 8.303854513368128 6.000158234763412 9.450969449476148 -1.3240402236364488 -1.9680187760167718 -0.1617972079468762
P 1.2171001174959426 0.1989652003170689 -0.07923454494935252 1.345747019185921 -0.8294877592321586 0.4030083363467059
P 4.589667392983713 6.160575144906702 9.396762539602806 -0.24635024939860797 0.4308297294343484 -0.08112910337184738
P 2.2493057171083155 5.610724040529463 12.403589462831825 -0.1306881452468975 0.5904728671526992 -2.973718633069556
P 2.342142540099017 3.797377595497175 8.49910308715184 -1.595916385220303 2.1759438886699622 -0.28636175679453907
Ni 2.130358827505682 2.1562555614241594 0.2910173300092379 0.30881802891552623 0.5763505688187042 0.6019122193378924
Ni 1.8190415004140732 8.980851903044252 6.621640892401976 0.6253719930227294 -0.25385504241608536 -0.7762427838650889
Ni 0.14342078720911422 9.041466213988826 11.286864232673125 0.6903188302077594 1.3504652505971968 0.1546397709664885
Ni 5.904501710085311 4.3459394283791895 12.83045334189909 0.29596456999162574 -0.5197472185023629 -0.5203935938371103
Ni 7.968736677954595 4.42462209092591 11.445791524096032 1.2669563341392633 0.1316116855024314 1.5944616550516475
Ni 4.423750209483096 8.243425709113515 2.969901816592392 0.9334652279570892 0.01191552049066335 -0.17976201995541302
Ni 8.45896593217855 5.638114103302121 0.052773870693395494 0.9367942923303222 0.2112770598445587 0.7616839122143076
Ni 8.936775513509652 1.4642506805302355 13.19822499241291 -1.378710618596135 2.3019359139927706 -0.6234027851115006
Ni 4.096275249695933 3.019251233789118 7.514738735346815 -1.4805260466727403 -0.34037214957272344 -1.7398706514484876
Ni 5.074711735223272 6.690391526768214 4.645349081042237 0.9870331338812162 -2.4133672678925855 -1.6132386785488344
Ni 1.107038998342414 6.580701420994607 6.327638759751275 1.0781712847496336 -0.3764192730042678 -0.33165122475995784
Ni 7.877152025121126 5.9119034270147335 3.19752038024075 -0.43006791156765933 1.0141947818976726 -1.3995774347428156
Ni 2.250901074641975 7.774464796893525 10.77694529837677 1.290441818855713 -0.988494034697459 0.7975574861824651
Ni 3.138170297388257 2.4033040957789735 9.745215523424145 0.4466651538047082 -1.6819750646832838 0.3048310192433202
Ni 3.4316047795676794 0.3033349742226111 4.917182236709216 0.6359657093781756 0.09988967180880216 -0.8803701479043226
Ni 0.6330341592223997 1.9380718680271887 2.325097257892002 -0.4042535216077167 -0.4768419344984045 0.4934934270121565
Ni 5.409078268542466 1.1178633137016056 9.659745171091773 -1.1548580360794112 0.5653963838000456 1.1938742694416085
Ni 6.734690524330767 0.8015911029211534 11.935618228802772 0.9045308043109261 1.698066828038824 -1.5847462275360966
Ni 1.047120337485192 4.790552587541872 10.536878308298617 0.42203115730611185 -1.8431590645261935 -1.1236785251528132
Ni 7.429784091612532 0.7606562691810332 1.6435994759174377 1.7271645167357286 2.6022029680144927 -0.36875712847331976
Ni 4.4182035594532785 2.988401471248696 3.0753280510972587 1.4227757272361496 1.7211910727611133 -0.1615915196939733
Ni 8.926340762199377 8.130962278324999 5.489765330874208 -0.3706468892968649 0.785426507246886 -0.784318876005004
Ni 4.294915813305571 6.735840665808522 11.624008728674475 0.1542826447373859 -0.04004056086165362 0.11468971293611215
Ni 1.3212064719017407 7.341575660536343 13.145321267036541 -0.6539796294570931 0.19600984927284307 -0.37481978972763186
P 5.853172008973258 2.991870446350957 11.13378782225157 0.3739250458275044 -0.07387267891975019 -1.1037990126200667
P 2.5941812044137675 1.9663430875771597 5.98127550879234 0.38708343758633335 0.1580426260004504 0.011896237216953704
P 5.840353496696992 8.761657198186997 4.83984357013126 -0.651226235081672 -0.4683164135258967 0.6572220476537908
P 2.458195525338268 3.793444853670014 1.8966445140252235 0.6855098388548904 -2.0349224798178565 1.3271049786047018
P 8.111697408572608 6.532516058277383 6.772815859251436 1.3523280148375485 -0.29830607364060885 0.05762793492611366
P 9.168130181893813 2.745749445445944 10.937908525721992 0.09989635667702151 -0.9784304798138698 0.21551140964088047
P 6.173087571144533 3.787898203640197 7.562659751030845 1.4675476321352017 -0.25785439338346555 -2.189835301940074
P 3.0731131012191306 7.981768522924316 8.306332882746 -0.5950589438614848 0.6863932699011083 0.309869352998176
Ni 3.744025871464553 4.74028954989709 0.005282302996623502 -0.49060350705887124 -2.4576946290550516 -0.2135522290319806
Ni 8.983152185999762 3.5308879600345064 1.1336888894221306 -1.1697652922085469 0.8383994598994916 0.6558161684451995
Ni 7.793933724004874 0.9484957057677248 9.549825037022615 1.1039820751651503 -0.7399334079110934 -0.40478059775578035
Ni 1.5448718879870422 5.047831815848004 3.7249650590711174 -0.7943469496649674 -0.1851641648075908 0.34960703790743014
Ni 1.1880775958516319 0.35936819745861154 3.8773077905338793 -2.4570875915986714 -1.1939303194905244 0.8585941896798116
Ni 5.79323479744704 1.2183059109806853 3.5122111464892893 2.422645864981034 -0.7222617016629432 2.0691268936137073
Ni 0.715926896097772 2.356064817180548 8.971839060512524 -0.5530471182060733 0.03464124422295325 -0.37555306834923063
Ni 7.608529062723913 3.5319638988362767 9.282566476330059 -0.2830571179013383 0.12385878102988991 -0.665568619846273
Ni 0.7159834756382101 4.023389671210476 12.79059630202764 0.2926571028849476 -1.6632011265098905 -2.259979109945011
Ni 4.979621005949551 1.7111044328605916 5.9029184104865 1.3458773741161982 -1.628887440829685 -0.8536306750269492
Ni 2.586222967414465 0.068029940875742 1.9241755618822523 -1.231849463133801 1.3213336233385629 -0.514830497927036
Ni 2.039173014055628 6.079814807432425 8.720002598489831 1.2523930916131074 -0.3624414706679371 -0.001159824636056067
Ni 3.3773069714162594 8.515165183902065 13.165765959337081 -0.11677873425465694 -0.4030253056275704 1.6493649919577467
Ni 8.022524342708625 8.473630236019922 13.207876905491553 0.07985486464511407 -0.056526217221502646 0.31237694991137815
Ni 3.463530480909871 4.499548243000931 10.985408441219814 -0.131834857256831 1.1766252525531737 -0.3245788912942087
Ni 0.21205176976032805 8.216119124351339 1.4405253024177451 -0.0855737694067623 -0.16044737878720108 2.1889881234484303
Ni 8.582782372392645 3.0244083197700182 6.911054517076506 -1.6607125557600817 -1.2892639964975279 0.13513178284054791
Ni 0.2449959028304024 7.652744582275984 8.87633650638709 -0.1544543944285598 1.124196345329496 -1.1853862865752554
Ni 6.159304424080473 5.337880800935649 10.642386165747066 -0.810008053240992 0.5502119627501233 -2.0486125757104396
Ni 7.315242985896458 8.222389250472002 2.9871149823538206 -0.41589933337676116 -0.10776650345371763 1.072088054670031
Ni 3.78080257274921 0.8182894876179424 7.659954299781296 -0.3743819308592649 -2.3614970613858555 1.397325148373529
Ni 8.52076748593887 3.9201180969094995 3.7377390497417937 1.1473195616105207 -2.4883126110512244 -0.7743121425012793
Ni 2.158871205752601 4.198452334526142 6.239548125423211 0.22497486904662545 -0.1215789838567777 0.13659319787742283
Ni 0.6507593234481198 2.4882661597808546 5.160453854856437 -0.16506765116803185 -0.3593664312870392 -0.6652030089767383
P 7.391968552864096 8.303056834601298 11.17866838328715 0.016396439080152408 -1.6801961184059901 -1.3811811916238148
P 8.102830188792499 1.1370725314470091 3.8941137691108456 1.2718884813335578 0.6217392813661486 -0.47899497628566545
P 7.11641691559686 2.8324645476679513 0.31595499434061974 -0.32479332129786 -0.3965960050624589 0.8201839653327293
P 0.42244789231275914 6.969514167817189 3.6744506598614404 -1.189732736469409 0.5875549221749559 -0.5863164217821645
P 3.1299059743505198 6.048714610860557 5.448672816447622 -0.5175931482738376 -1.6304043916948439 -0.3922410705278729
P 6.035849721911801 4.700183003527643 3.6877950836037443 -0.9253680527712516 -0.2017662921406461 -1.4774528070640556
P 4.180124273558051 0.1546467245520702 11.569801818801137 0.8441229926468301 1.2737566448905484 -1.762845772187422
P 7.0977271165833455 7.063621711634119 0.9713093184990595 -0.2725896427111112 -0.428191777590869 1.6382238877392628
