# total energy = -340884.6772602641 ev
CRYSTAL
PRIMVEC
9.17197603848286 0.00000000000000 0.00000000000000

0.00000000000000 9.17197603848286 0.00000000000000

0.00000000000000 0.00000000000000 13.42411404987098

PRIMCOORD
 96 1
Ni 6.966005810715246 1.9662056960068335 11.397072780845878 -0.688338566552937 0.6971011432369156 -0.6624053916269431
Ni 5.215497477471998 0.5077871975568371 5.898703304596168 0.640922796273135 -2.506538904251264 1.3307420611366565
Ni 3.497843162743832 1.7501047662933134 5.251808413792309 -2.043853977979532 1.5921214369542451 -0.04059026271753655
Ni 3.807186401844375 4.90780519407573 4.650824766729124 -0.9075503078635402 -2.565605885616749 0.3413095737853283
Ni 3.564055658461412 2.818291450911792 2.9740994783051726 1.6538639082693645 0.07881562474732232 -0.4007406233584518
Ni 5.153302307301489 4.866944040394913 2.666915322386777 0.1321469891806111 -1.0843421894470358 -1.3606542753150568
Ni 5.1177150398982185 3.072098374515736 0.1951906585212581 1.0347540941062632 0.18228967147327316 2.333387190523517
Ni 5.926087156544416 8.10090944973872 12.045337047686672 0.33052122492057273 0.8187500610996803 1.9953637436886282
Ni 2.0805252065517728 6.912468986016046 0.21437201221209826 0.2704376293651149 0.7673670786420139 0.863827670164609
Ni 0.3919836612732769 0.2552505926475716 0.6595146127678172 -0.30035935662521174 -0.183263091130136 -0.6797477395601326
Ni 8.5329370416192 0.3229810504154714 6.468047302784528 -0.3279359806918997 -0.3266838534523535 0.8709768796148807
Ni 8.963937372172571 2.7058521954745 1.385610434693836 0.06335429588692959 -0.04793256201522068 -0.9878294045302665
Ni 7.117526856463192 1.4910056124595532 4.882216297857075 2.022044081193292 -0.6589266890497232 -0.5846745153033672
Ni 0.8312002480482605 8.03752192267068 2.7789794440001527 0.9078655251111138 -0.7454237416017032 -0.6958027361404662
Ni 7.737506583299293 4.0783742202238855 3.443862414399706 1.5801948607199883 0.5302661157558158 -0.10013572638133722
Ni 8.033954023954218 3.9592944540649517 12.776427927815739 -0.05418625623441635 0.06438993624029557 -0.10387796703258884
Ni 8.286091647901618 7.8582648210909065 8.622361974538892 -0.13836751616902623 -1.445430745631504 -0.3463070269999197
Ni 6.845330120708845 1.1502942149777768 0.23498144258713663 0.5884936319391414 -0.9923725438162586 0.5184704086724684
Ni 2.351245254148405 6.7696704895723565 9.227829800734412 -1.3949365935366944 -1.7148301635400918 0.29413960096774505
Ni 0.251592808564988 5.086777964395323 1.2902053733342123 0.15460660373570795 0.4045805659298322 -0.015501695180024914
Ni 6.2019985426333815 2.4937777632841844 7.0203956291949865 0.965376217733073 -0.41209255803616124 1.3160420359223206
Ni 3.6131715906636064 4.924369782975294 0.19774780546765808 0.12877164495047502 -0.1122582206764841 0.5003744704027061
Ni 6.344109140866958 6.021237236967491 4.40253203517746 1.036633056296531 -0.0009348531094435511 0.5709129427429006
Ni 5.060270953365568 2.8839169401567406 9.62506258394967 2.9747725282553668 -2.21804827403918 0.2626263608508122
P 0.6112232412201473 5.887647404563203 12.507139625693759 -0.1936801726984019 -2.6068090993279363 -1.1566894328611952
P 4.626766673327376 6.410560107964044 12.184289734537016 -0.2274798948566663 -0.8325874812034049 0.8162900295949619
P 2.5212478318081013 8.685907259596453 1.4027262593591048 0.6274335035374484 0.5091876978189618 -0.30904865686909355
P 6.8577214604670464 8.102184354421468 5.717061489221331 -0.8182610372784037 0.8362569596351921 -0.31118935736118025
P 4.830760594542877 1.1820109084521349 12.7360345449178 -0.0808442251415769 -1.3178775464691626 -1.142793134495077
P 4.369584462505803 6.162072930518321 8.134100079777951 0.695032690743661 0.2543947169696393 -0.4146307510769827
P 5.1549165751012245 1.2443161423362632 3.857284652690613 -1.0408967166688912 0.4973881340808724 -0.7441800990025894
P 0.3930723748404852 5.785820125513949 3.5580617720572785 -0.06116808686888821 0.3242726729076996 -1.4534435886336516
Ni 1.0345255322035292 0.5599298818835363 4.67995496293345 -1.4657136642502564 1.0349122169506821 -0.31187224236081773
Ni 2.033628892574215 6.594549949229407 4.7779777062819635 0.6414272467133791 1.303491967171452 -0.3893544930086972
Ni 6.326425570878941 5.691862401988406 9.128599108128936 -0.13087480733640686 0.24527964204224856 -0.11619380828546441
Ni 9.040138149901018 2.816869794610888 9.954692399865305 -0.4885777348780941 -0.644240033571826 1.435024976917148
Ni 2.634576768930475 5.524226194171505 6.921594185072623 -0.10177171932286344 0.1612091966538901 0.2145531594926692
Ni 0.5676948768793117 0.2574812172435704 9.303300489162524 0.2933862677414883 0.7183327989221823 -0.6968828565785223
Ni 1.4949954220782187 0.9442090832035278 11.306433478285932 0.20782406829895173 1.1532968622398783 0.7581324474176234
Ni 4.67870757417911 7.162020112693414 1.4219626449067542 -0.7617975549740365 0.4831056560199293 -0.6648857348466356
Ni 5.885675429694207 8.026781538616754 7.8445288696313344 -0.26140791506267885 0.3386790781410167 0.19503051607870928
Ni 5.663695263278241 3.2527496164680083 4.926676534973213 -1.0796815507465727 1.1310069404934264 -1.436075015448217
Ni 0.9150853073824956 7.479985009360728 7.0018975877261935 0.41808271418132514 3.862519942460367 -2.2728999317717373
Ni 5.690890172518111 4.812691801557196 6.9150160437886985 -1.1711441748339444 -0.22591049348701742 -0.2650997620919692
Ni 1.1189260565965435 7.618674460496001 11.116066362013997 -0.9929083617150706 0.11791567607257758 0.14235169762775485
Ni 4.826614861329919 0.403440376663335 10.317505508239261 0.4317836087071854 1.6199636559774941 -0.04497965003448382
Ni 8.671525601016986 7.512582212544034 4.682062683049242 -0.26274386026528296 0.17935604276624595 0.4306327829321938
Ni 7.369728684243534 6.365608252927077 6.799434469327602 1.5323049790172447 0.1948410257757225 0.14398203414232624
Ni 2.535161719604689 5.781949551585035 2.3985809057828225 -0.3548248346629438 -0.37026816580120747 0.40284224308248684
Ni 2.6633676020178116 5.76017528024087 11.537878206875464 -0.6529367900148755 -0.5714629017090996 -0.3350044575029069
Ni 1.5152654893362671 3.455092581979233 3.812690504722906 -1.14184722564204 0.506748749360166 0.5381082375080539
Ni 1.7103442497486798 1.2534330866143175 2.4269727579082923 -0.12555879444013213 1.0758513783672052 -0.1810722541264043
Ni 1.4361021633162598 3.503355520400885 8.220578056765513 -0.351110361925834 0.5711785376994614 -0.856067566603216
Ni 3.9363920296561976 3.366748107848227 7.738034889124661 -0.11950641759846514 0.17999161946771583 -1.8029099871981595
Ni 4.5136303477038355 6.743007554948308 5.760488961824682 0.08372540334411387 2.141570039175783 1.3795233443054178
Ni 8.47532785951612 7.335462181403684 -0.3865446794253028 -0.11488948765174407 2.036348927851738 1.0541057591599974
P 0.6520256942537012 5.858709819857709 7.951921703799225 -1.387757816400068 -3.430993958289943 2.2208669744348977
P 8.79232052671314 1.977991685340133 7.987294346960939 0.15799557481259888 -0.9657770527159174 -0.6224928717027214
P 2.212253127800683 3.6815211568206094 10.310766857372977 -0.8906897846627756 -0.5743391948156301 1.0086602252326886
P 4.303793877690427 6.6470595126015 3.5274548876952387 -1.1646405693874717 0.3116552412540052 0.11429402015959025
P 6.935609881804308 3.8358396552896887 10.164738908132202 1.3973868548494 0.44254676076096044 -0.23718580929052058
P 6.890969873955926 8.063845494177738 10.173048718510389 -1.4159214233184776 -0.06269995013238235 -1.717413350886236
P 2.41412832252903 8.643009927213697 5.729761007377663 1.3630227755472333 -0.5671390775227653 1.0319971001864163
P 6.812705401597136 4.226923545704135 1.397047888934011 0.8541340970259289 -0.6778011573567231 -0.8907998278780788
Ni 2.7272962756778103 1.5603182361107168 -0.05433570382054514 0.13193024518411473 -0.827195363653556 1.7045200398633353
Ni 1.740043108473368 1.003083998013217 7.225355359497487 -0.159779406185899 0.2281239561985684 -0.7441788134510087
Ni 7.009159958429779 0.9065535351818456 8.930311073266935 0.012526671712101006 0.17948794035841992 0.34267071579891306
Ni 2.9122766903657387 1.867084149917363 9.215963098011125 -0.1282849351220436 -1.6417362717678952 0.7387370736101471
Ni 6.578893385967194 2.1761338857815904 2.5695630504937217 0.0905370269493086 0.4658252716729268 -1.2500598154942406
Ni 4.500358498236687 7.33234370951783 10.141112814806407 0.45843360719454596 -1.4775134850986618 -0.15606441922815706
Ni 7.713613585467973 6.194165675014209 10.99590705426399 0.33686465064009724 -0.3950507720625261 0.8601800461096929
Ni 8.056994028004995 4.172533727224394 7.9598288644250905 0.09732936728079367 0.005275646576642527 0.19311658688544805
Ni 3.181510877828523 8.523893473150224 12.055096030294166 1.2368767411450634 -0.18649033981818205 0.3997057543360342
Ni 0.5634390799527351 5.160841671684347 9.989634877346294 -0.09562241189201597 0.3661669991486403 0.9474162908205426
Ni 0.17797761090895972 2.8515123484722675 6.000914889445474 -0.26689104966443716 -0.7010727262901538 -0.3209721477795569
Ni 3.8584944363428013 2.8286282680157826 11.667931325282147 -1.2953803938079111 0.4066320491422223 -0.8034908209477646
Ni 1.3675966735649638 3.3989509160577334 12.576998899122561 -0.2435839995073805 0.6652109793965383 -0.40680945526035095
Ni 3.388935118118462 8.084005497722167 7.780455278748405 0.5033754620125589 2.2136326614699877 -1.968561021673487
Ni 5.6802965400823435 8.255145400422586 3.6627699688104944 0.6676280734784631 0.7059387961332035 0.07160136638707025
Ni 3.2591149679056035 -0.20764069892672188 3.693053999612587 0.37065383127540036 -0.6788231708633341 -0.35398614081173224
Ni 3.9547543258781945 4.746460961887346 9.744349636769252 0.12756116958214161 2.0052439789168175 0.27875309120934577
Ni 5.6988055879224975 4.436182181221048 11.83512819544219 0.07224157107423043 1.2712613892725202 -0.3503847966137192
Ni 7.8389302953986135 -0.10625459192955373 2.823493795775486 -0.022494067337458033 0.6005623901782173 -0.6579509554000152
Ni 4.704691782569178 0.8372968605851043 1.6163837746302971 -0.6075411354888955 -0.9766088532240987 -0.053374301856082274
Ni 6.712446530466943 6.087385528852127 13.679977640813416 -1.8404776610392886 -1.3567608537979214 -1.1354827168765929
Ni 8.294153814924162 9.072469365776412 11.417973880062005 0.4711256008399176 -0.308641651238662 -0.09720158345367777
Ni 0.23026062647052237 5.279086788015007 5.757548426275845 0.3593389204832134 -0.5889199208432826 0.01162575716438643
Ni 7.693609505517836 6.679895187164312 2.333768970821036 0.5754745939716541 -0.5353700126412845 0.9090595454192151
P 8.788404092903553 1.825278282694655 3.2851221062360088 0.0641852764286572 -0.07287123423842934 1.469090036921657
P 2.119359353506785 3.6537300691319725 1.5518011390718824 -0.16757730496376302 -0.30095559544831396 -0.9434094836539947
P 4.814168489714908 1.1039298756160416 8.038037387729458 0.3182442073254325 0.09684420011425901 0.5099348603976315
P 8.927625518654647 1.652991882977378 12.442341448696173 -0.15341361186887129 1.876007221404466 1.1169987991397925
P 6.650939258506548 8.168406022115182 1.007651642128379 0.4480211536119703 0.748024412449344 0.7627414069445444
P 2.43123405802055 3.517030936817967 6.180649850981873 -0.804197617206802 -0.7455546107526128 -1.622500820577051
P 7.427833153057895 4.430348804399274 5.594338614141629 -0.5671483334941458 -0.7460881146585795 0.9654150413908082
P 2.6983678629484507 8.858413786740966 9.78393772016255 -0.4640913197009555 0.2010217006651377 0.8497246551043236
