# total energy = -340869.2232896411 ev
CRYSTAL
PRIMVEC
9.20467001533318 0.00000000000000 0.00000000000000
0.00000000000000 9.20467001533318 0.00000000000000
0.00000000000000 0.00000000000000 13.47196498974225
PRIMCOORD
 96 1
Ni 5.689470812055171 2.1229742383814076 10.03336710021336 0.419516104193742 -0.8149237453750546 -1.2919603123827685
Ni 1.514766479243657 5.724779925258943 0.7747091895132413 0.7645992860888897 -0.5469883136065031 1.1362159954981916
Ni 1.681794416729486 6.902388555821434 8.952039315352497 0.06360266445230982 -1.2039118561832685 -0.15014805374372206
Ni 8.74785120557393 5.838153842707028 8.241339399358292 -0.22109610281750952 -0.11190983619812984 -0.27649334864089153
Ni 2.6343488716318593 3.324266484239339 10.901607700570576 -0.8749654319489834 0.0648229100126561 -0.17792419541572582
Ni 3.3302034962352804 5.6488506043992155 10.297215277048823 1.356985825324534 -0.5957140609469805 -0.7702130327312413
Ni 7.903921058522887 7.816117713671277 9.320120252096245 0.4104966743039511 0.002235831309054214 -0.7843944664379459
Ni 5.1748561350487945 8.52863279054238 10.626658692003165 -0.9047714595668225 1.6230518079845142 -0.9109896725623925
Ni 2.424353535700982 1.5257292409291867 12.9815850855637 2.0677683227032837 -2.179850165702904 -3.0981474276703027
Ni 8.245984996186746 5.80118788894625 10.700768249651114 0.1868803761677491 0.2877516951635302 0.2768533030834716
Ni 1.195253982494617 1.1920599620874979 1.415391944035305 -2.4082366315342396 1.7481688869015375 0.8536810686489105
Ni 6.275799071170668 0.9090099236633011 12.342676991371583 0.4044548389852454 0.738702877938102 0.26399264507071957
Ni 5.435265447261489 2.2334578895244914 2.2882670956172597 1.9075965661749728 0.8433143807026057 -0.07611596642797214
Ni 7.661221530930645 4.835516779634237 1.7857758891532935 1.0372097547356072 0.7637497936044008 0.08743421965426877
Ni 7.575894242244784 1.7466597245363105 8.351634354771273 1.7851498350012611 0.34130366024805736 -0.07749844859779556
Ni 5.276807057323292 6.694583931293711 12.013556660325856 -1.8723022617490528 -2.1976293440631958 0.9381942580016424
Ni 6.680638856605569 1.306556849246443 4.28861120063877 -0.1744408648528157 -0.07174123439904419 -2.1348337488932136
Ni 1.4284727002328754 2.4715550822361596 4.1168980862445155 1.3111212015819353 -1.368686915811546 -0.02559173242617528
Ni 0.4614512658669024 8.294107009698038 1.4192440983303465 0.6205732860825054 -1.788375283917094 1.284301253175614
Ni 2.8138307273045244 7.969439897882754 10.856086006266809 -0.3079942474626502 1.2603771382598488 0.7482167309658082
Ni 7.484814034958204 5.831038632981659 4.448968513948692 1.4306088501273233 -0.4843760380919206 -1.2866514985753454
Ni 3.044619412225839 8.083430528204836 5.190532608119009 -0.11714151691071438 -0.8616856841209418 -0.07974327876791427
Ni 4.084765504575317 5.4960346770246025 4.110067300814766 -0.5560943896728294 -0.0967603821512011 0.12153964597841005
Ni 0.7247397987808861 2.0757726918462303 6.495197897729535 -0.24499347826039738 1.4324590159621846 -0.7606282172562836
P 2.876818282480074 1.243293153978059 10.504845012851083 0.022344943354103454 -0.7319992406656813 -0.5378755526719574
P 7.3931815474859555 1.3506196033930684 6.12730565671589 0.7164039573305855 -0.12164788942150016 2.1134673674022957
P 5.2748924860129724 4.316032832324211 10.287636897695368 -0.011003550199355243 0.6046753839053265 0.9825825543090303
P 8.386448256741895 2.107777328605749 12.114449045577821 1.5895361927255722 -1.9536391102563322 -0.43251945843194545
P 1.9629694639233364 3.1489727533079974 0.49827362677940706 -0.6720334016350102 3.7690027498368126 1.466598637958371
P 4.644547496099657 1.6997987507822954 0.22532111108319197 -0.12119743214764288 -0.5903090878813253 1.2334101227527015
P 5.826261409375622 5.0482551071539365 2.791997250631076 -0.07154557344847033 -0.11270507840591558 -0.04249390749815262
P 0.7340116626312926 4.503780481442389 10.27978255298818 0.9408764328194957 0.19375807712418888 -0.19824902301600697
Ni 2.7834184984136843 7.191866215139843 2.796914385217483 -0.6881786439363051 0.3440853367582526 0.5760029556712983
Ni 7.378352824500742 3.8375740981396325 11.977478957197029 -2.8636437931976357 1.2129958207624076 -1.5625743194247477
Ni 4.427068763652965 8.771893802990054 12.886971205555815 -0.9771662683894654 0.04013286346514378 0.45825697240736557
Ni 3.686313759954653 6.0568291822226685 7.157021937759009 -1.0258871306339363 0.6418062273193528 0.7973078320655043
Ni 7.177562158331015 7.216148133969757 2.386005961009055 0.18057757387817286 -1.058337280742842 1.7714283716501105
Ni 0.4172449188720032 4.113474869560344 12.663175308252043 -0.2863352744319778 -1.2078024494869262 0.3520902093406001
Ni 1.9029642217503993 5.142814679610232 3.3028407744363095 -1.432549775903778 -0.29578099322590995 1.2409077166813276
Ni 9.187144069924816 0.35337187446543084 5.152568868156122 2.2399584438487103 1.978269507210503 0.18519938892090043
Ni 8.698164398203241 8.904192521467063 7.242608798132134 -0.33852584039260414 -0.5931493855435979 0.6672488357621734
Ni 5.716053898325372 2.3502467394539632 7.286944930970665 -1.3550577550638856 0.6283315898716856 -0.9952130985888473
Ni 6.991370098402473 4.281975554207956 8.880355188186613 -0.1513770410548167 -0.7199014289608827 0.24222002928031833
Ni 8.98956583350173 6.965256450290089 13.168414108639714 -2.1773150579858758 -1.7712545650764075 -1.0396260774865838
Ni 7.892995115516403 0.8267560742106882 10.50068266118509 0.5244425670955032 -1.0123222474653082 0.19048686257208486
Ni 7.115679163526804 7.914018581250869 11.500976215336694 1.8650543219373878 -0.5844251182967226 0.8701649252365464
Ni 2.965974713786573 9.007367664819794 1.380862466360303 0.9888187650267294 -0.2900644024571069 -0.12599922441166042
Ni 0.5442767253116828 7.178749560730203 4.898190455570931 0.819183549092673 -0.04324981182757068 -1.1634876867299513
Ni 5.480846971918705 7.6975155437988585 7.485117789060322 0.48521910281850633 0.21458169873775945 0.651926089362174
Ni 6.532544924818426 7.668428787353625 0.38868651047105907 1.4571845437333224 0.8475142777165663 -3.1921392459374314
Ni 8.346656469364444 2.0535802330520974 2.8707947465883774 -0.14947545315672967 -0.7729180903672301 0.22101665572982582
Ni 3.2037589477263624 2.1990600386270738 2.0823485079235957 -1.0673045172384585 -0.9013655192090669 0.10893686961273495
Ni 0.48001984617607035 4.982690244445265 5.99649257193833 -1.1146675799034542 -1.1320119847191732 -0.9901847921363206
Ni 2.914539019161267 3.6224057378029886 6.064916405074816 0.5798611530751239 0.4846814851474814 -0.0221510821757425
Ni 0.48926041414928895 3.6725251646524506 2.1280717844951327 0.860926180247098 0.6070246008637932 -1.8651610227185815
Ni 3.831351741381095 4.40918409030705 2.1210265302599485 -0.5979696897503767 0.330865752744185 -1.1661703757684367
P 5.006364655070943 4.478228318185437 6.824762814324728 1.326381984395748 -1.8577220499420328 0.19226272352558502
P 8.931834144759797 3.671613902346097 4.21283191589615 -1.223947177567589 1.5394755286237551 0.7435023562092744
P 1.737685171519189 0.3370271423705567 7.169793417052605 1.2289412883480706 -0.8639775654789121 -2.343163296073674
P 6.313252872428787 0.0594133819072952 8.948267241684377 -0.03943480895685467 0.4165572786757342 -0.5673866747571971
P 7.237429330457536 0.7142998623377897 1.5466220003530453 2.0108698097440274 0.3743459354150069 -0.18479238329046885
P 3.8932899642038734 7.495114060420931 8.968879258680522 -0.6339473933965662 -0.8069291572053522 -0.016351187664513774
P 9.046367850597786 3.4890853009824916 7.782093572366163 -0.7041048282482584 1.2946789968655121 1.056018659911994
P 2.3306776115417582 5.7820974038616235 5.459621003449493 0.3160286877313525 1.419543593452097 -0.46062264442606476
Ni 4.819878045710043 2.9069083479292734 11.981372532505995 0.18686237844562012 0.628024343043912 0.2766157331513688
Ni 5.667913475474558 4.243739356020139 0.621225923580945 0.22107450555095476 0.19685239977879646 -1.0698519662506607
Ni 5.800727655458192 3.4429422914698464 4.820066741440146 -0.8313556656788328 1.0439905251028665 -0.44651911514514714
Ni 5.455911521535749 9.0190944140955 1.8634016306500003 -1.737036267323486 0.4743739325738863 1.135580933017354
Ni 4.493259543905395 0.5968022528367094 4.054980113695211 -1.2179981590730056 -0.24048556308771488 -4.84358348902171
Ni 7.750350348227861 2.760158297927258 0.577310444150498 -0.056561441334812265 -1.2232259831308483 0.8845672167048056
Ni 1.6434293531650126 5.843004703671154 11.865230770860732 -0.5278456792397812 1.8082720228410212 -0.9858866789815989
Ni 4.035382451306747 3.502883100954455 8.76468470563312 0.0008029555172695849 0.7191655792361227 -1.2503511214824143
Ni 7.181345277602849 8.374749121475475 5.24782891598124 1.3551174046572274 -2.3278858010893138 0.12541789798689368
Ni 5.361885819925602 0.11949410237227377 5.909436646271326 -0.3940022761933537 0.71312554368963 2.838695350782414
Ni 1.101338736921603 9.06359899239066 9.06277885631494 -0.36602481714382124 1.8687186581628528 1.396273567180563
Ni 3.380009964312863 1.2429065578480907 5.7529600217327035 -2.711979045699071 1.035505627560307 2.805685214404981
Ni 2.2116704361998494 2.094835562921572 8.347579697741487 0.10207845193000484 0.2612215100834856 0.4891636892885511
Ni 1.5147756839134183 8.39176855586384 12.966334788703426 1.1021931015855277 0.6844140346875502 -2.2067349059088897
Ni 8.610158550616886 8.748918947266223 3.2937603677169354 -0.962932898398903 0.2555735677690889 -1.3432785030407706
Ni 0.3875699840290316 2.3207365681997163 9.833308205289644 0.06316763379742024 1.1633591315718868 0.41030461289780307
Ni 5.544966701474877 6.18073324187751 5.576692436740632 1.151592735064578 1.303992046736322 1.185119920287746
Ni 1.720150275624198 4.727343500601201 7.958253462722028 0.43061787053385836 -1.0594084023198336 1.8547359707305155
Ni 4.038732951099806 0.49406709269856147 8.643073529215782 0.18501452660360396 0.31138193298796046 -0.058865921098272815
Ni 5.743898024352851 6.390397209696985 9.631606276813564 0.6508485400272791 -0.5613412398940655 0.009426692630538604
Ni 7.374634137917238 4.454047650722895 6.3862505059695875 -0.5133973650249352 -0.623235920516333 0.9412019344797147
Ni 8.47109439986543 0.08886280234111865 13.188851236910395 -0.5070336275904365 1.9711886891043213 -0.2968600852227017
Ni 4.750889045850223 6.877094123317795 1.504737991538884 -1.0216980322532532 -2.0261203081451944 0.3308431270363657
Ni 3.368807881213544 4.582839390020907 12.87666565729123 0.1804284498948183 0.6646620488716037 1.042258372903108
P 5.585448839084414 7.81957866950147 3.904849188489926 -1.2020699178785232 0.18444734124622428 -0.1826614529903951
P 3.780302642885757 2.820494908211597 4.131111016822707 0.06377004326810953 0.06575699179115127 -0.32571866132560673
P 0.44627368589774213 7.999235413899596 10.794788428459405 -0.6229207032687594 -0.9469619768919434 1.6620230470413893
P 1.7039684661840964 0.12141235555049744 3.3634645704171966 0.15816681028314053 -0.48089810684564915 0.5018788228623743
P 7.104329805711306 5.800479129374641 12.81850687187238 0.23348367784858498 0.3581636692281896 0.5654987137058648
P 0.17778819643661312 6.360776582405605 2.402778710247823 -0.5723098230904273 -0.3878462838942869 0.5327125204137793
P 8.219917371423168 6.855435535369809 6.352165613844049 -0.19756408113384039 -1.1876252032081032 1.1389192533619676
P 3.1160384449026024 7.081382563996759 0.00901413309709424 0.8230425178274471 -0.9513536782017358 -0.14058252154247403
