# total energy = -340889.1196220834 ev
CRYSTAL
PRIMVEC
9.08078705916716 0.00000000000000 0.00000000000000
0.00000000000000 9.08078705916716 0.00000000000000
0.00000000000000 0.00000000000000 13.29064976111302
PRIMCOORD
 96 1
Ni 6.4558313290891585 1.8912646434203055 11.79280705485451 -1.9244653169058534 0.45371897532769606 -0.23512507010674988
Ni 4.393484653691099 0.4933255729210718 6.073760837441007 0.45404524831886317 -0.5005423634391379 -0.6727553674026995
Ni 2.8592674845453834 1.8412749095541947 4.8079989820616555 -0.001072150018256218 0.47986966558113486 -0.6108401179551415
Ni 3.496747830982232 4.331944158430312 5.00083313184193 -1.8452324021154545 1.525767435009043 -0.1124968190498514
Ni 5.108760104584074 4.651860293598903 2.732996413459383 0.46473820925633513 0.0617103325256034 -0.29927717930462655
Ni 7.341435106617308 5.956397110578307 2.6859070830441056 -0.2912000587234469 0.5284331763121352 0.25191900173563714
Ni 4.777347692744367 4.3302732935744785 11.329295522665358 2.2801453004802408 0.7559040723077369 -0.07955867356093396
Ni 5.70712950029225 8.106573160354753 12.448461688913454 0.6550268397746849 -0.31741425522496947 0.32938428310265205
Ni 1.657942895562748 6.6825331830342005 0.34741457514921775 1.0674914364382841 -0.38177488088922634 -0.7262173438765815
Ni 2.6835905742140884 1.8534522452698086 0.35391914306353117 1.4495434822482973 -1.6808226962463957 0.14199071474391028
Ni 0.8435769860103028 0.27450584231767955 4.615390943884154 0.17827283700439622 -1.2893547564391215 0.6483013481253932
Ni 8.875770325997404 2.568473434119504 1.3625312648151757 -0.5934504617237844 0.48610587629883384 0.27112848478455237
Ni 6.89688516630569 0.5713168223820128 5.1002868219918005 -0.8011066369863041 -0.022926269778870193 -0.9422699707329127
Ni 0.5220599080477811 7.319477763022711 2.3429956702971046 0.5265637272035641 2.103403041187758 0.015975806602966033
Ni 7.7301836092164375 3.623606429003952 3.8431508064306894 -0.6025189996839558 -0.25685269159182866 -1.7644159448880192
Ni 7.731109849516954 3.9396359872252766 12.705356252419156 0.28034948916218816 0.09723603623603899 0.3865962135372697
Ni 8.0411460881467 8.721133599747448 7.005939972825521 -0.7382866163362897 0.5872939552040853 0.4177862659868289
Ni 7.000832938070516 0.6667649772715117 0.6038314892450457 0.1826365132897306 -0.7518502139533374 -0.29499654965140165
Ni 1.7410411797786938 6.47649012010558 9.478413140190119 0.5275680000983625 -0.7330719049045697 -0.8788197726980671
Ni 0.1148583376576755 5.235936530159893 1.2107849531500676 -0.7241013259748432 -1.8763226957623556 0.25665317398651283
Ni 6.275850125596639 1.8907652001210076 7.125635645856581 0.37264566489444856 0.6074758294685989 -0.8733759759746765
Ni 3.5634552941939397 4.738972285783753 0.7209191601750429 -0.3389001930128873 0.6389286486612415 -0.4331730328555443
Ni 6.0690624381127005 5.568447717258055 4.779477137356829 -0.08228687112537442 0.12237679716772473 0.38455527184784094
Ni 5.381083833723183 2.7797924344461644 9.229718527580166 -0.5691676779170198 0.376235696238552 0.5515926451477339
P 0.43786375665210564 5.335325746720216 12.289665054019709 -0.4238684676251668 2.0619486306977133 0.1741950673905968
P 4.3310088373425355 6.126171509190625 12.639514188233324 0.7020944826864489 0.8429896503733354 -0.754214857530772
P 2.441387816416284 8.43809454164158 1.5758988907476845 -0.015689899931431044 0.6039022531847278 0.31183856090940487
P 6.45787450622265 7.529461887622157 5.717026650326887 0.13968700631139813 1.415256021820337 -0.03263964041189217
P 4.581420626823349 0.916233272956014 12.497875700867283 0.7458418029757284 0.29993872414802536 1.1093343406159992
P 4.004935928411689 6.192361367528515 8.237744224246232 -0.11180982028515583 -1.2671440246700372 0.33857263447013947
P 4.696328908810954 1.1252366725313834 3.6580516712384537 1.4590442226498808 -0.5914964233212071 1.2940717022988166
P 0.22850439021614558 5.656413303445342 3.491507308654506 1.3510157237840281 -1.2047600631161766 0.48756394890159893
Ni 1.5061302941506425 1.3992403473135868 2.453799436443205 0.9583578774337108 -1.2398414802003421 0.348402990297
Ni 1.980474297462208 6.60053367407671 4.876737817383417 -0.16721143698391203 -0.18706549559536167 -0.501452276847917
Ni 6.067073745702769 5.699083922779921 9.134318500863145 -0.045232903695870484 -1.7254015112980352 1.0156603106996056
Ni 8.479085215333065 2.3261344645128004 10.740918625258047 1.3128636381943388 0.6409176540668122 -1.8614771461090909
Ni 2.230023412153324 5.311288902843088 7.1000777701134075 0.22697338753389296 -0.20524165228375618 -0.10124181496132241
Ni 0.784298514855973 8.763513633889708 9.0520620056262 -1.0257632034615625 1.2707584814941726 -0.19194622072643072
Ni 1.4228594749767574 1.232399042986238 11.550425405547685 0.4407138213172797 -1.4369036819970995 -1.111721609901253
Ni 4.124393684816538 6.942198294732918 1.6630453899241229 -0.2141744359970118 0.5412642666385323 -0.42682266515748424
Ni 5.657784502321597 7.5883144698539935 7.948765423193618 0.5020829684533804 2.3783429292986007 -0.36640354063947866
Ni 5.17061842739896 3.0033432552119983 5.097841365982691 1.3919597702965576 -2.2003747680188166 -1.0022149838279772
Ni 0.7631212108870071 7.348990321617599 6.872582255361843 0.6122917628000035 -0.2914191167127884 0.39608924062936945
Ni 5.084705099132425 4.607064770045492 6.980528297757234 0.5409505920528555 0.16617219708612024 0.7759198533080315
Ni 8.240514772439248 7.067794663325503 8.9689827910635 0.19504722824925766 0.2002413708556874 0.5063764536224118
Ni 4.675388613389474 0.15225029535803603 10.30457317623581 0.2885471944816321 -0.11287374277329593 -0.26311769866493395
Ni 8.526368874595704 7.245360377406871 4.804277675442521 -0.9331296989945413 0.6466003062738864 -0.09634643454223407
Ni 7.448888062264482 6.053234625918582 6.964260975459731 -1.0413703138712003 -0.7363045529092546 -0.4825281862499045
Ni 2.4952459656551405 5.222142814312005 2.7979612735959036 -1.669299011877512 0.7123950932815086 -0.20437801873188027
Ni 2.6206243953534867 5.1839671846711095 11.602418361083345 -1.3838006315245328 0.4959884255198684 -0.26678512021419215
Ni 1.1629582628092805 3.4047776176133002 3.8411303312653473 -0.29381512774879076 0.18648982559754979 -0.16088678031746484
Ni 3.8427984718850032 2.7120225191250404 2.6530128392736056 -0.08274041372302525 0.4872114506581867 -0.598426574782137
Ni 1.006895852959511 3.074854454884228 8.256789359366557 -0.41195603245829693 1.126311849010602 0.7655094566079849
Ni 3.431447889795819 2.8909321897208837 7.118950370275794 0.988678382794123 -0.2461165361212471 0.6399817725161042
Ni 4.253586045164069 6.992932653154346 6.04947881230786 -0.4739288746166676 -0.2863103347313134 -0.5544869359763934
Ni 0.2884666446511508 7.410993937028645 11.182353855539498 0.856079650788074 -1.2011065255239894 0.9976361062080431
P 0.19771870524741003 5.469866690763868 7.900334860500044 0.6365372656109296 -0.904586854359842 1.2602069312305717
P 8.461114337345592 1.6182144513003984 7.8434900403313845 0.06922592417635819 -0.44309800527874005 0.8459284212866851
P 1.6760409045718598 3.1922599533683242 10.416400347106107 0.7379780839569354 -0.526493536087261 -0.4481075426781896
P 3.9680043666254092 6.212484392096599 3.892020879227647 0.3611124674438684 0.19817163281085226 0.5087788924163172
P 6.905965953565656 3.829022917611635 10.65870299356377 -1.4972163628442279 1.0507838938756162 -1.282965565083326
P 6.6450204508632815 7.8361109926039365 10.116271247376982 -1.6400743106844398 -0.08312170832184394 0.336092291250447
P 2.439153942750333 8.476960311114233 6.024093471522625 -0.4258734138703375 0.15396588482791548 -0.6553086326811617
P 7.012002306400274 3.942614485446545 1.61888098108528 -0.5102251379445407 0.0462906555364235 -0.37773490649189784
Ni 5.078975122371387 3.208360189180243 0.27884555054921717 1.6713245269479733 -1.7677172413471103 0.25124228738358667
Ni 1.6666241281832752 1.354744489739755 6.7827369462117435 -1.2866478990309196 -2.039849227695513 0.759145204952854
Ni 6.875163923179851 0.8059071562197873 9.179506314426186 0.3389760405561453 -0.6665649223212714 0.18285968504413025
Ni 2.658464035865763 1.2723999108663866 9.098672778552876 0.05554971224084627 1.846051298472324 1.0166072479939072
Ni 6.452416953079411 1.8665649020731991 2.5126774448793707 -0.15101837216381733 1.0932724020571303 0.8494734583254661
Ni 4.109401305050334 6.7955163381226935 10.492462837353031 0.3053832922023644 0.24857656762596547 -0.29406683874828066
Ni 8.130092399358064 7.326878604639583 0.1802327412996202 -0.3300615116753348 -0.02098354423020257 -0.04945491219701805
Ni 7.56302447733499 3.8166821277253415 8.31468391854247 0.23657851472382485 -0.32768298414082925 -0.37711424218876344
Ni 3.3350825753930633 8.13395173394355 12.681858807305268 -1.069908530520209 0.7442477190157312 -0.5710823784412293
Ni 8.991495878838405 4.735485263475925 10.218981307838277 -0.01495225043445812 0.5285285642394189 -0.16731788065478928
Ni 8.632977317027702 2.379529493601398 5.733493749944109 0.18973969999341517 -0.2762074419693566 0.3221625685432323
Ni 3.7120896200650577 2.321112789158039 11.318928895929382 -1.1677714017069696 0.8239670865242456 -1.1605016075184338
Ni 1.3971336046692746 3.3997286998967593 12.585846735526927 -1.2521382952898241 0.4249254481347714 0.7708498949842918
Ni 3.111840501394068 8.234575937571229 8.208983554836468 0.7192290854842065 -0.8681093282590985 -1.303875832873432
Ni 5.445375807523741 7.716426216517589 3.5467956818868065 1.0355799324416681 0.8340193285539249 1.5176656318375152
Ni 3.2177224808452674 8.674476514805745 3.849570014944759 -0.7689125687522628 -0.7569327706825674 -0.6392567214246216
Ni 3.33329366030285 4.331054241278836 9.293580072064602 -0.05447987621543521 -0.21819615556189517 -0.16485990603259995
Ni 6.739133730025566 6.156183511084811 11.482137885352744 0.5616266323449682 -1.0494446062389025 -0.08155153562124665
Ni 0.8531799185377165 8.99583649514867 0.20450840988168636 -0.43089195013085146 0.3078209551095796 0.11587987658947138
Ni 4.651960182258762 0.4654475560329772 1.3295698232189523 -0.5586019865860316 -0.7432426747899844 0.9479109710687739
Ni 6.147565843975104 5.794123442242721 0.5994391124474003 -0.2686391427037954 -0.2375395930855135 -0.66528656982948
Ni 7.873796259732795 0.03244020440750128 11.35765754551441 0.47403814650102233 -0.6762872918153578 0.21502110026802324
Ni 8.931362905602914 4.9328289322095 5.425336326198448 1.0552277885795827 -0.4000248282383498 1.7110706964976594
Ni 7.697420128782481 8.844042055311084 2.948158402954461 0.44004944826040343 -1.6496046187723783 -0.14056658070287406
P 8.606098186738203 1.48566219966668 3.548231354352607 -0.2907256901901896 2.7615337166987475 -0.18560870854417713
P 2.1450181626127858 3.5078354722266503 1.6332613157901614 -2.9655988321758993 -1.6467391242991254 -0.2967022194885987
P 4.5707961057291895 0.8643955988825001 8.12711299305807 1.2183462864410437 1.360567372028205 1.1069766390171
P 8.552494299542627 1.5584901134916043 12.73139268565093 0.8466480730615289 0.6252706915581747 0.43314732182393145
P 6.381795670558658 7.8170867432943085 1.630483502967338 -0.1169977922439985 -0.4101048381821711 -2.1267139479995567
P 1.5806018304696206 3.440483273119485 6.098507798881865 0.7068497379832471 0.0731327154299321 -1.3964545728431177
P 6.96834188125436 3.8812283635691776 5.872034780775774 -0.2646361921919894 0.1825902334328275 1.6188033171208056
P 2.5068966157096764 8.428069352506578 10.325027649538882 -0.9403056479176902 0.2509183283852646 1.6980853399815854
