# total energy = -340874.13101646554 ev
CRYSTAL
PRIMVEC
9.11769103003266 0.00000000000000 0.00000000000000

0.00000000000000 9.11769103003266 0.00000000000000

0.00000000000000 0.00000000000000 13.34466245278553

PRIMCOORD
 96 1
Ni 3.3900304628094498 7.497012323604137 4.5231597791772495 0.140600519264603 -0.3214478018643948 -0.1844041467131147
Ni 0.42220015330135247 0.5530937255862212 8.725581070725063 -0.9338460083352755 1.0458221789949664 -0.6966170045116455
Ni 7.800704376102354 0.7573910929667844 4.66059711830726 1.0471383267032288 -1.249340935050345 -0.3258564724550517
Ni 6.596385040018545 4.722353063124749 1.9073525787268315 -0.5056694002530582 -0.12333401887467146 -0.47874223684491096
Ni 2.075961479916434 5.434982675566449 8.42383108641413 -0.6250526620100978 -0.8861916396821059 1.6597260234770965
Ni 6.460950857605656 8.178614433504364 2.419908138268489 1.5714615946120485 1.787736621891831 -1.7945634150056773
Ni 8.904966170931347 4.38787056805158 2.722618215443839 -0.8318482890445351 0.7590241059939573 2.286505438370314
Ni 6.243694515978193 3.9743559272159956 9.261929244983728 0.5508639945118254 -0.2582999655613164 -0.36526891281440316
Ni 5.801814738379011 1.1346601766900786 3.4145926106485556 1.0672821486409556 1.2043299175572937 0.21091890517419157
Ni 8.961969975189149 4.937539688890643 9.63428571678538 -2.3592244633015946 -0.5687951250689495 -0.16914619211277965
Ni 6.975051865775224 2.2871363216334752 12.4420832252774 -1.3938145641171091 -0.41305415061848216 0.03210999316066728
Ni 4.6872590703883 5.50014681328726 10.351240761847025 -0.14923325523893655 0.008471527806120894 1.0738626300719507
Ni 6.591197073828097 2.6692587522867806 5.549031313691643 0.41036246271893195 -1.91179337786514 0.22545952199252783
Ni 3.539232358662723 0.42724041289727577 11.198574229650905 -0.8112239279259641 1.6929076524353877 -0.24708044269641316
Ni 1.1569346958522362 5.165208433663086 12.177951922346391 1.8071831606522168 -0.048545513008871236 -0.1097159138706046
Ni 0.28407442849932313 7.211965949242069 8.53073601362506 0.060491372516837755 -0.5332514236363849 -0.3213331306634014
Ni 6.37364896608799 0.19607776892592352 6.539618295727267 -1.5337537956486296 3.892041606068568 -0.12287250585722066
Ni 0.3413882342518088 2.7530047443065992 4.951030224524016 -0.3765223742410354 -0.6919982747927114 -1.1345625190551685
Ni 0.1272273487256777 2.9825243803561254 12.179246634471248 1.7882341303535396 -0.8320421502228961 -1.7675704313566012
Ni 4.4722274453697475 7.924103206368683 6.69078687753358 -0.6651760123935447 -0.7536242751346246 0.45005926708792166
Ni 4.4989969862048245 0.6109044454993035 8.295775851343826 1.593264549419753 0.6170117939834922 -0.16476168989183884
Ni 0.6081919324208173 4.3355441392871015 6.8214041837805395 1.2564850022942942 -0.024150114883642278 -0.23183920026662652
Ni 4.543473083000979 7.739743493941821 0.16666409769501056 2.176341381218697 -0.7166669811839851 1.7300300112089817
Ni 7.450612394002738 8.641455782758808 8.306785463250623 -0.806024900223528 -0.8413490294461187 1.4788478876393691
P 5.039767240608249 7.703263612170312 8.99727823366457 1.5728525614223041 0.22807639079008463 0.7152603306444455
P 1.3347205530535913 4.661693064767878 4.6476527323659935 -0.5191661491879124 0.34742365710286616 -0.06665250702222715
P 7.275917434057204 4.10566891328779 11.208862632198011 0.22853276160121289 0.5521809135510362 -0.21542553479529347
P 8.233366168080195 8.218850803976162 10.281408366323914 -0.7692007894166429 0.2696184758979292 0.39777202764843106
P 4.662987776892736 1.9511949959970871 6.368740001242756 0.10155934620174123 0.16799973721316228 0.31158813546149566
P 5.308730008010823 6.267081393444806 5.34029363078428 -1.2311305826899055 -3.1687560911268005 1.1255749708445777
P 8.594837028572924 7.738822607148788 4.124982006406612 -0.027775884561687645 0.8146998022897065 0.6036415433241733
P 1.4076620812145657 1.7042149816440275 10.894875794768973 -0.6664096276903297 1.0240526485283588 0.5798742657012464
Ni 2.1643939651205955 8.638538121632367 2.415437734361323 0.8312335382786716 0.28916991566729555 -0.8315328146866453
Ni 6.807687529409868 6.421535079325669 9.753120230927037 0.8847690483029665 0.6915997538027122 -1.0377198616028063
Ni 3.0060297878059994 5.173779063221999 6.146498106165491 -0.49186000517379164 2.1965895899447716 -0.5402211700859987
Ni 5.046769627311702 7.951374220209868 11.242184145800147 0.21238546241738906 -2.013644801386003 -1.1382183706402011
Ni 3.2184811062658576 5.304262339410963 3.81090216852917 1.7793674239915291 0.13207679806430803 -1.348196252057362
Ni 4.555444611310399 2.387175627506252 10.123727929591029 2.2319813391805043 -2.246314467973725 -0.21651491120473038
Ni 5.434344437195041 2.4906340675115737 1.0934801251976984 1.861145473801285 -1.3781750578076395 0.25573863259204344
Ni 6.997773151797368 8.390345454373632 12.873302598535858 -0.31235380998292656 0.5486667297501906 0.12605758845342163
Ni 8.969273245696266 8.99200364940943 1.6864983962228288 -0.585705784781359 0.24485978089601054 0.005305728483629571
Ni 2.8275874568511954 5.905902299064721 0.8714880548543847 0.4053305567219794 -1.2590687038610704 0.8303169400016733
Ni 1.2715440719751674 3.238494438055025 9.231583745730559 0.26849207560296984 -0.6717364392198818 -0.030152355213664203
Ni 8.663930891123407 0.7569716791798587 11.98642935185412 1.4066392266856032 -1.6573901762550682 0.6639480535237147
Ni 6.573472282484979 6.198261061624927 12.124706430327082 -0.29653612622437964 -1.115896567214549 -1.3029574348242208
Ni 8.292612924328946 4.603230429946858 -0.13084707206066606 -3.0768478948615785 2.551363259654806 1.6151731765673862
Ni 3.326206625668597 3.1590246431236433 0.2486977873412505 -1.125155881029288 0.5972675214770294 1.5215431125150507
Ni 1.4357992757026619 8.755910158134396 4.675862868382249 -1.0482909522504333 0.28069993052307146 0.24951964826552508
Ni 3.273688725392695 0.5497502682891424 0.42336904129013203 0.9125984118104089 1.4848974362675587 0.15190360298224806
Ni 4.430103712856784 5.927802992895053 8.100329938405597 0.0381356305294569 -1.4090630056357476 -0.9495384793698679
Ni 2.7469688328512785 7.590286302739983 12.210099077345136 -1.8690536729047682 -1.0115051508806516 -0.30663567655222673
Ni 1.1256610156532183 2.0785053157110482 0.8001102107033612 1.1269682516476784 -1.1440550319266363 0.36237924997143395
Ni 7.711487769470462 4.68497964763327 5.320223769310788 0.6613370982634288 -0.04201156854509539 1.0264661430658581
Ni 5.534237860011496 4.179567799005877 12.935301985703585 -0.49262336570237736 1.0693356887358747 -1.2701100492768964
Ni 2.010697047594402 3.553656545856555 2.7128768743579412 0.6490266563271919 -0.6869059478714686 0.22596525798435277
Ni 8.052261471347515 2.664098139169391 1.3482247652234938 -0.7116862401399421 0.17462804116295733 0.4760551769310511
P 8.07066097182612 5.596502571987907 7.601520209845876 -0.6503327767331252 -0.5163885864427752 -0.3475416707379692
P 1.1421093302535184 6.322708426358569 10.415815896727937 2.051390138455577 1.2018012375981688 -0.08745118893513326
P 1.0310740890104748 1.7562131735317825 6.737706515523127 -0.5198976280372981 0.2722728828016408 1.3532613252850951
P 6.823433781801618 6.645429100015781 0.7609497277719379 -1.5828330696737836 -0.8378865248188151 0.5321088253915094
P 1.9856963388172282 1.4562867274248754 3.6216079617222174 -0.8169006665957673 0.31334034226591195 0.42556590993224774
P 6.628069016313468 1.4747956401957227 8.889173418315394 -1.2823590418475788 2.0437141099675573 -2.897261481252081
P 3.512526641664786 3.9066023652454707 9.216290642582507 0.09061493137509555 1.4286352713407204 -0.7681018999255094
P 0.9771885350815549 4.287028905369033 0.9938729978792757 0.7607763127983737 0.2871559705610603 -1.7734132632906232
Ni 9.154526491843102 8.869926884341018 6.62864069554043 -0.07412978923587878 0.33801933306983073 -1.1098202791134821
Ni 0.5374760326378545 6.514161702399087 5.7730475114414235 0.11603902787515501 0.2070751059480692 -0.2968734549591403
Ni 4.841539520139781 6.5620842864008475 2.3402003716014823 -0.48576623357122783 -1.0791048523074964 0.16245078237047506
Ni 8.222023760451163 2.1133531307899536 10.04213827149747 0.5485407456952877 2.168299741861143 0.5054943081277746
Ni 6.512566106470565 0.4883161779646637 10.662838764228791 -0.1938974309155306 -0.4549147954080101 1.3001071098596189
Ni 9.102965949124313 7.331507996206886 12.038940869746309 -1.0449570027811939 -0.14078383892000268 -0.10892041455250275
Ni 2.451291230759748 0.03574590764438756 7.020146142022542 0.040584349180265586 0.8095794503440058 -0.26873041686602106
Ni 1.3935570132064374 6.53989182645787 3.3910789972767637 -1.6844782907211118 0.3162698572078811 -0.6981023308079203
Ni 8.09677403890775 3.1092876386088792 7.719446601961927 -1.1172700505233082 -1.0810252092586607 0.25282480137935814
Ni 0.6497348680157983 6.713866488812815 0.6772712066656681 1.5912722015800724 0.3082626706326885 0.6850267285708848
Ni 3.8044112842919455 1.9566838459912004 2.6123242424807316 -1.1300867426720023 -0.23226934582550965 -0.529266727957024
Ni 5.432530016682036 4.245944589632364 4.0830935103219685 2.0202900746166623 1.106374743767043 -1.8659894321571477
Ni 8.252248906182867 6.730697746435959 2.1883643748124957 2.0940262279585484 -0.9071229905181346 0.39853795928017816
Ni 7.356919001079966 7.390390044814833 6.213595194382567 0.8090325767016002 -2.674594691513342 -0.08286562644697987
Ni 2.481279316524929 1.2451027680168143 9.14172069480534 1.541216422574262 0.06611463224088612 -0.20806215245168683
Ni 2.909728735251473 3.2264590859084645 7.220663314706163 0.3035704073633417 -2.365118460188527 0.8434773886430312
Ni 5.69098920402943 8.082942501630225 4.684190055590927 0.34783117695393 3.3554084104441433 -1.8894471489594558
Ni 2.931437957570383 7.696507403124403 9.225632628801725 -0.45100697571317167 0.1334032301852154 0.09268724052309198
Ni 5.293740523973742 4.334987960134874 6.379442346962175 -0.2905243728126609 0.3938333547156572 1.3554429063174462
Ni 6.95904120034389 6.2755426107114785 3.8719806689038645 -0.7599530455661299 -0.8288346990291919 0.944186213919019
Ni 3.2698866482373043 3.7533522145792637 11.371387298169884 -1.399426510987248 0.6309906247610875 0.6962714482467687
Ni 3.6408854958460606 3.2229396571746975 4.740704239840948 -1.836967591003501 -2.3264035601168325 1.0895147347869105
Ni 3.797974194431739 0.7254326741721555 4.800915647799629 -0.3247439561171633 -0.29328599471819816 0.20135954362053066
Ni 1.2586151861086345 8.670331510219532 10.616279275034538 0.6501330020174932 -0.15811667377149544 0.152687275225808
P 4.423821623743921 8.756056041190718 2.648114826811118 -1.537077974925856 -0.15281197372913038 -0.1040666860046272
P 2.172299003235041 7.0256094624818 7.136178789713715 0.8851328594002886 1.4989968517834185 -1.0523188424629037
P 7.117114609559742 0.8452582813276983 0.9464062984285216 -0.665274228534306 -0.2111312782953138 0.3172306784592537
P 4.2996933781959825 4.218007984346711 2.0973935244283326 0.08143223643456299 0.33087038072987535 0.09254994361427932
P 7.453621232039378 2.7027206783306275 3.5500404695979753 0.3140070293156334 0.7435985154675064 -0.02839526331324142
P 4.042401255299165 5.80257150673368 12.408521004632332 0.2013546585245242 -0.5013766864149751 -0.3101040947168014
P 4.615229311329338 1.864485754395729 12.382779027575223 0.43298868475888014 0.7338838592829038 -0.03832769193560495
P 1.3704983726165494 8.904291461795857 0.10028913060672782 -1.4592272851949644 -0.620874362262692 0.04088105448507798
