# total energy = -340872.1101215454 ev
CRYSTAL
PRIMVEC
9.26085890396859 0.00000000000000 0.00000000000000

0.00000000000000 9.26085890396859 0.00000000000000

0.00000000000000 0.00000000000000 13.55420310792184

PRIMCOORD
 96 1
Ni 8.993182991128432 8.46609194850951 11.09392547476606 0.162302686828385 0.03245117855016992 1.1041900774108981
Ni 3.6386840529095705 5.891063839446949 5.294149625401192 -1.8762800154498784 1.6285354568069053 0.1474363112395138
Ni 5.928181361739742 5.030665225760177 11.939233518947814 -0.03168139026368092 -0.02958928362134259 0.12944193154462222
Ni 2.827293904286038 0.6962943425957632 0.21107256894838422 -0.6145324792050643 1.926396215379979 0.9277918317213956
Ni 8.604375092939648 8.266826048515986 8.755337279228835 0.3528803093420632 -0.20087411934367988 0.8163211399432135
Ni 8.555968583702015 6.348818831814837 6.725894147919605 2.2828920099874423 0.7470250246505522 -0.6268136105652624
Ni 2.2083999678326682 2.4890595563070708 11.319752444043006 0.8308026213888402 -0.08865626498682795 -0.2387806645814662
Ni 0.5002956736064559 2.0897868876115853 1.4805659182327715 -1.3804450847887386 1.6861492506656315 0.04718668498813164
Ni 4.8984572047392385 0.3109944577414371 7.108542648883605 -0.1414160731873629 -0.7038816564938587 -0.2179994661700568
Ni 8.708078190403397 1.173637903614779 3.631415204793899 -2.1002524113739183 0.44541662610958777 0.6125187912091451
Ni 7.462770500106 1.2187938513941357 7.142224392541013 -0.9332019469933734 -0.8287953611508243 -0.5992390433811036
Ni 6.9959213443420225 4.632263077797107 0.6153674014012006 -0.6682513088847588 0.7334370015534724 -1.2182843228548565
Ni 6.9007011935899 7.63585595211506 11.880489112969801 -0.1334335692025186 -1.2161641911880603 0.47314468815247546
Ni 0.42644217640571463 5.653078288578633 9.43060762005087 -0.058740194153685935 -0.32077622971866687 -0.7067234968180279
Ni 4.30989258103759 3.860064883849998 10.508099287027978 -0.590252523611777 -0.5086318253154917 -0.7217515947957441
Ni 2.9663271782834713 7.924776226688558 3.8209164552101957 -0.4536266727242058 -0.5254535248585208 -0.7831410536468191
Ni 0.8309963129064846 1.2638479297260823 9.72564191364076 -0.8259802602995322 -0.2722335449232731 -1.1184519866465512
Ni 1.8226944573604718 7.894289479336292 10.20737234349962 0.1214864241429714 -0.029310576038659195 -0.1844349999510501
Ni 0.31788175847226313 1.0316689373601564 12.909497405580776 -1.363038459276517 -0.048823449260606236 0.978330978121528
Ni 0.024003220067537898 3.581563075488924 10.775686247141975 -0.11382068006759753 -0.6635713869105863 -0.38854485262320826
Ni 3.770197509516348 8.521073667534537 12.320417878126761 -1.4130500153079535 -1.5265536783557645 0.377899199983904
Ni 2.8460286217506896 6.426184046693579 0.8304101005409323 -0.18244008100820838 0.6987924148964094 0.27883433806924235
Ni 1.9555044342070174 6.9876699191017835 7.857235856969602 -0.38797355350077056 0.23958541987094867 -1.5520448806483333
Ni 0.265139315118491 8.752539573768592 6.762273579761617 0.20327604391695314 0.11374020453864929 -0.803605749259074
P 4.972507032147716 5.374909871136356 9.213144132406313 -0.3852661818719365 0.46473692370475445 -0.350330546337016
P 4.702895648287909 1.6973024284571718 9.86624027278477 0.8544405725227542 1.6144676658599293 0.754632661794481
P 7.540459845044684 3.400170633086492 12.244378818236125 0.3420549365917851 0.3097305134274666 -0.015101374417812704
P 4.622687349740533 7.979313424488523 5.492312557105027 1.321101709833415 -0.3507416657325056 0.29118000411878886
P 7.675816558076489 2.9210601001978485 2.662926624803534 0.15081731189660477 -2.2257703252737864 1.3753350172556829
P 4.815526213688348 2.339265164319561 6.478759794587953 -0.7621559667547196 0.16315372197477065 0.2351386969535047
P 1.9281849005833294 9.188059244024455 8.086681969887273 0.5412709515067516 0.39190888399943474 0.9136589918644394
P 1.6717424580160265 0.3363608762325027 11.546879637903263 1.8589818904910629 -0.506656703866992 -0.024181739452526097
Ni 1.4064373735240223 4.472374349657117 6.080279855410498 -0.7009791381350831 0.6176270589699879 0.5304556060588026
Ni 7.351028977155688 7.264375120844893 4.545158217660049 0.3457200441481981 0.07096707523718102 -0.7030067100880731
Ni 4.860709944044272 5.574685118366931 1.7058511272666723 0.3959879391648148 0.0648121113793787 -0.7591994552295571
Ni 3.8004527353972253 9.134327740944917 9.682295537681764 -0.3350998454301906 -0.7457600418951995 -0.7366573082629829
Ni 2.747511605246014 5.793676647722642 9.748128205027768 1.3058378416958092 -1.394283790444044 0.44896500558247837
Ni 8.425659038746451 2.995100666747471 8.29914366766398 0.9093025146679565 1.0085352696190502 0.6729517996842217
Ni 6.076429190298385 5.881756676297184 5.952003068973713 -0.49158695401806307 -0.9133604867874141 0.20011101592541022
Ni 8.788758792752404 2.5981617344835684 5.653946031053392 -2.0351775332514563 1.0254171329760535 -0.1858377938358477
Ni 7.372393778535298 2.2447488388404566 0.6909767574409423 0.6116908959912111 -0.7162584328916568 -2.240984056899747
Ni 1.5680115779757116 0.9080198020934593 2.8551385286068327 2.8492124482636543 -2.5221822672154754 1.436293044996294
Ni 6.25151498782023 3.254441758136541 5.29152046757212 0.8894759668603326 1.5538279406906854 0.24297387672720736
Ni 6.765288915404963 6.169306343760069 8.299645606213948 0.8244265426591671 -0.5262953040335258 1.7006821541744839
Ni 2.166411233781888 5.335254873517159 3.3611574129859796 -0.5648271415601369 0.17323861701459842 -0.18780443064391528
Ni 8.27253999842982 4.966487473891649 4.373290568590485 0.9262905645855208 -0.34258792627711965 1.3935911352523935
Ni 4.531449368296271 7.206957795940871 8.01216076476305 -0.5141352716322243 0.4230140900446715 -0.30159142926009996
Ni 2.8708384626245405 4.813803693941227 12.298338138443508 1.6396169114320474 -1.13151807580189 0.5659306590369608
Ni 8.476510414721933 5.574194292847591 11.941347773024521 -0.43265932644391936 -0.33743286443874143 -0.23350553222545592
Ni 1.171720905831693 8.159974259041372 13.465030397916673 0.22435163364032973 -1.4698983917555652 -0.4170514447033334
Ni 5.0801830380604684 3.259664882531036 0.9026920299938973 -0.6515658778092779 -0.7543470122332622 0.7485630585616334
Ni 0.8617868164292093 3.165824599748382 3.8807175251836203 -0.014354983170091404 1.6635330559280126 -1.8965248817418434
Ni 0.8436503504466227 3.2484314607393303 13.134985427423612 0.062417385894957024 1.183870107041045 -0.6628607339968068
Ni 6.345216357720053 4.434136263442809 3.24644871085837 -0.4154375632489942 0.3162066080701135 -0.8955391423352771
Ni 8.899639055829155 8.927458675831039 1.759240904654443 -0.2674039847451137 0.1354313163588377 -0.3364586734509302
Ni 6.427628740675035 0.8019866725416702 2.3026282806013674 0.10533166875997989 0.06727857064200025 0.8237446861007943
P 1.6711312413315644 6.306505967704115 11.804396340097803 -2.178806812040054 2.4400020968712943 -1.1025947078993206
P 7.987916762365271 6.646435052853637 10.167007964092091 -1.2475568465667288 0.9151186071291013 -0.36116260395551353
P 6.944532838552923 6.407412285793506 2.470388738768522 0.5357875597946773 0.30007987771157996 -0.9598971968963728
P 4.2329626265250555 1.2360746140184753 2.2068950782686514 0.4710754643282725 0.31388927279084655 -0.21332597195378744
P 7.891714960574467 4.417577847809198 6.6908158667467905 -0.6138146272024332 -1.1525815813404086 -0.7225085275664266
P 7.689698585500864 1.0707775443068799 9.312510369668036 0.9849916779711554 -1.1824318319326217 -0.21440352128868234
P 1.640292581342791 1.723223572393681 5.099403024529147 -0.14181253729483317 -0.5978074531408994 0.24249333754636307
P 7.898225344349875 -0.11513655380673317 5.345452005202937 -0.2132938331642714 1.4625422085008102 0.11168949265720764
Ni 5.4434309658081075 2.4608602410921114 11.989885786457902 -0.29260953747646384 0.8190120565118153 0.745813006620322
Ni 4.438516649681454 8.447736926257933 1.9982145891626395 -0.1251024236290039 -0.8919637662791929 -0.8549470798455276
Ni 4.836326102677773 7.000922208123986 10.847903350582952 -0.2536969195716663 -0.5156506798354861 -0.8106883671374683
Ni 0.7343064638539969 5.5265749566126745 0.09407458251169808 0.3521218339094839 1.5468522807038005 -0.4403050159146353
Ni 3.369544972851395 3.3475411722107564 5.044616709625968 -0.1374624878562536 -0.4914188038713149 1.6182692989942065
Ni 3.5100599842657054 0.9980242371381707 4.540699114121132 1.984014637224396 0.025275486737337115 -1.342833702193868
Ni 6.816640377758641 2.8153937006567373 10.120326752859237 -0.9418966465538939 1.18864747382503 -0.7784994411097496
Ni 7.540737670810349 1.021796861820207 11.54480613160552 1.7324411917536355 1.4969021740379187 0.675405660541353
Ni 1.0362345407759117 1.9795826672312846 7.119697353375041 0.7783989109761433 -0.5411202848615003 1.524439460226239
Ni 2.6788330759737193 8.694316554144141 5.9560287643181935 -1.6255138963717617 -0.3756415142979789 2.5345024793437254
Ni 3.1412740629224842 1.981379273849249 8.039038555419333 1.3021099992222607 0.10199771929074049 0.9764211626933249
Ni 9.157072410293994 6.649204049651428 2.7671714825103284 -0.017514611844995642 -0.161674823436399 -0.009532622080783582
Ni 6.154683447627255 1.039827754011841 4.7754165078993465 -0.10778218718300148 -1.0769998901493516 0.2096678063759099
Ni 6.010917874754667 3.9533772976778896 7.770420861714721 -0.4380216191970972 -1.0798533004377469 0.024038271896126343
Ni 5.5535425775998535 0.19443265775684437 11.491551562757039 -1.6992731896420992 -0.5620696334196578 -1.9653358298679702
Ni 5.3294390541559125 0.889993540331253 0.13089760949288723 0.0057708410455061905 -0.9698797620303811 1.0242202844544748
Ni 3.0435720019970924 2.9514634998204143 2.6475971251400456 0.008396194483495217 0.7889332348485638 -0.5572048491281888
Ni 8.789305183424876 4.528272893708839 1.9296166293623878 0.5270270399932278 -0.2004498873220677 0.6968350340597225
Ni 8.00733678338523 6.857554852182185 0.4954059401307585 -0.10991748835844942 0.6870399023461716 0.6145625611120512
Ni 6.908961879688995 7.991167323823547 6.966711669425929 -0.7860633694999365 1.2036514034330303 -1.8567938817008087
Ni 5.143138356560073 6.721874009090437 3.7302924687080523 0.8261571521970287 1.2042885227963969 0.001195562969997941
Ni 6.239837044803461 8.532297828467389 9.105632043695303 -0.0009729054362305824 0.8055266204308706 1.507118195338972
Ni 0.3540602296771103 8.249341546996826 4.375947508996125 1.0344866993774893 0.6404186029432067 -0.4830722316788325
Ni 3.6696894083577427 5.128895155640333 7.2831339165425675 -0.17151417812432398 -2.09644152226826 2.510624130064231
P 4.2718119294238255 4.682716236841803 3.7339931079067052 0.4376166704491947 -0.6465123745457705 -1.5178924031363406
P 7.657396709812924 9.058138655140821 13.466575109173768 -0.3859233558399612 0.16172341728614728 0.13919849671075382
P 1.5825974306731043 4.252790125334654 1.49225034385074 0.9597496155749149 -1.1384173740248844 0.8984198063171817
P 1.565187016024788 3.712650532588349 8.76029832131772 -0.4930499117168347 -0.3846668577250407 0.3115860785789666
P 3.4787490204753024 2.884072229929032 13.063975013891504 0.37608348693140387 -1.3171815488434024 -0.030956596282514428
P 1.5830049084627458 7.849531748487722 2.158141286823938 0.36561652596180905 0.7058866027390295 -1.0727102616350623
P 4.715971980991859 6.369600199086552 13.191533157681103 -0.3785165218529287 0.5450589577942742 -0.9649854100525574
P 1.2899913342751232 6.542139260423138 5.260508629522749 0.4053665521662373 -0.5689609612228523 0.7722966547331475
