# total energy = -340865.01170716016 ev
CRYSTAL
PRIMVEC
9.31203150016303 0.00000000000000 0.00000000000000
0.00000000000000 9.31203150016303 0.00000000000000
0.00000000000000 0.00000000000000 13.62909937505779
PRIMCOORD
 96 1
Ni 7.799608466165969 6.518626809612449 3.637565324629337 0.5980691914427184 -0.46760498928116884 0.07081897969509093
Ni 1.0457969927807065 9.152721117555734 5.640811412758673 -1.7571685192969866 -0.6338088109361729 1.5517833994568306
Ni 3.3139843408614267 5.262815573797681 6.289256578214507 -0.28032917744721403 -0.2315160125992529 0.5801635148068912
Ni 3.3230542593962196 0.6818483531110247 1.7847169236289346 -0.036183391899092525 -0.4110666878748082 -0.9959947139498783
Ni 7.639031797568471 6.838234349603362 8.01712634406177 0.8370136352955584 0.6308767248910425 -0.6654467495564282
Ni 7.661473793121705 4.101996369783138 11.833805798096831 0.44686467141002395 1.563140733451179 0.46185368861968845
Ni 9.31069041737526 1.784539063830152 5.376311543093272 -0.38161058739722015 -0.2831710177713833 0.5747310309374102
Ni 3.088577310005998 5.900997018299669 12.510299733181668 1.9877627914129186 -0.12066007158693413 -0.3016911880627578
Ni 5.0783814808817676 6.551228231368413 7.940708089992036 -1.2394159626271495 0.4584150952517847 0.7331109856726213
Ni 0.46546188702423397 0.7001371826822078 8.180907282646766 0.8849649663638565 -0.9239606309007635 -0.8690315829630517
Ni 0.4484041079975061 8.113759155785846 3.152751174053763 1.0621911072712933 -0.3123903196478169 0.6774309185014978
Ni 5.694353730614267 8.070988995795803 -0.22728061156302656 0.02964970454563281 0.12895085084081662 1.5250385272628186
Ni 1.9511033685856278 5.902840800506946 1.928381080888762 0.35609290274209 -0.54651034552882 0.8123649835089428
Ni 2.657095025377511 1.2155925724145942 3.8864740602056176 -0.14288160198929586 -0.7710941497846139 1.2815476016898768
Ni 1.2453817607028912 2.8668485315337757 3.290159508652734 0.352753811066528 0.9878309471921631 1.1613405584799612
Ni 3.3784515338967127 8.494332565024486 12.201996068046387 0.38297944272028883 -1.0946811094791986 1.7982460060635868
Ni 7.6329510410969945 0.297536163285404 6.79319298516708 1.5754115803987319 0.37113976977288343 0.6497167404156811
Ni 8.381973594756717 4.381962592317571 6.917394996905639 -0.4938006738399302 0.4241322628095147 0.03905120036519081
Ni 7.2438105630164555 3.549411117449337 0.6563054511182772 -1.6498172490038168 0.15054194674803104 -0.1909188079031809
Ni 8.949299792717394 2.6588549993026405 9.057462761658902 -1.0452917604127934 0.8141195043062044 -0.5435276087514124
Ni 1.4478718824062418 6.967690209429527 -0.18441640005634954 -1.6657354628959702 0.11344272790288848 1.079220294839438
Ni 8.545660481825077 7.903651792438286 1.189535646291333 -1.7262867421164658 -2.4790754087236726 -0.7000296297376202
Ni 0.7647179824999625 5.825942045619558 6.918730342201213 1.6432971884971121 0.08184001339594292 0.560060573409429
Ni 4.263187632449728 2.077076528686935 7.7436180152684875 -0.787895537612669 -3.2755959690011904 1.7695265266417073
P 5.999844231078747 1.4963968777705166 6.0138262461506065 -0.45122551948188094 -2.26068847730721 -0.5983496987976147
P 0.5563165832957022 2.861103008190894 7.007387399074107 0.16150230241427668 0.29174050460794915 2.711946392688923
P 8.435219790015386 5.752488742331629 0.16770875340837751 -0.5819182927144688 0.4182845457794861 0.1812938832189071
P 6.047009669865938 7.231071704129807 4.787057373709875 0.8159480728745109 -0.14348606834251418 -0.5051382103399366
P 5.561014753715198 0.301666980392215 1.9009320060786925 -0.5477691576365856 -1.2865838785622037 0.5798560108688013
P 7.723007696281777 0.8794701448246526 9.7719553718701 -0.7694604708359329 1.1373177132028027 -0.18744987551797393
P 0.3259918686843967 7.778684331722767 7.705961091692669 -1.9013791245103513 1.2943799775678546 -1.1192009489974337
P 8.929120620782182 0.7276197808051371 3.6808103982182243 1.4302962039829108 -0.8777841323447012 -2.714691559534228
Ni 5.206105302876854 4.56261600050543 2.924558914621582 -1.7633054854326597 1.0781738558527947 0.6001371297153407
Ni 8.53862989815591 7.456180749982038 5.753019528118573 -0.27876671805610054 0.18459132302325632 -0.02104962158144762
Ni 4.873609911497694 1.35264704982227 9.872278541618137 0.32760533682535836 0.47185913657183254 0.7210311716899518
Ni 6.589873161470455 3.2217952304975195 9.827453216309173 0.633311045364148 -0.09104919069903675 0.9117180660879847
Ni 6.126134000245951 5.54306115727261 13.192777579611946 -0.9127791603626473 -0.047289529114583076 -1.9823683598702246
Ni 2.681762596423369 3.6790532179025 11.111695946241422 -0.14112965229519567 -0.48255543994341416 0.6979048700851335
Ni 1.7268696536802852 4.379392471665001 13.571816366084123 -0.3377722500560312 -1.1982770264949942 -0.5559205830991265
Ni 3.276149557486825 3.5291202011379275 1.7873475724852785 -1.6602204466150117 -0.24706218786396805 1.6070893711179872
Ni 7.034923075775731 3.2719218952539753 5.105964648943275 -2.4420708064748653 -0.8198972873302461 0.6734899315758789
Ni 7.45777310734287 1.3786276172884624 2.0896542894312313 0.35115767022400174 0.1010518104377034 -0.2733074947137422
Ni 0.4692667830337988 0.4358021359717004 1.25308653544179 0.9938087620421531 -2.721392882813803 1.8606801041290923
Ni 6.330682080877627 8.97076402497889 11.37645469037835 -0.2928964725892633 1.0155947475689928 -1.3101295270926276
Ni 2.266771919315537 2.8067952413583375 8.852399725693578 -0.5931663548244623 -0.4980044275086326 -0.7481149152806214
Ni 7.687379864337099 7.191411762610627 12.030677971286794 1.2599958436610301 -1.66335256448609 0.3758472025508817
Ni 9.22899596634268 4.067458045506398 1.4385784751190518 1.1496615794801361 -0.06796094142100555 -0.04882216370902559
Ni 0.8486799131662425 4.450601575397607 9.896102442623695 0.8839074716336196 -0.10831543397865218 -0.6503348336156541
Ni 3.3954459911102615 6.107984851145015 10.138386599097663 0.06413462569637987 -0.2081320864576738 -0.616271573383358
Ni 4.867808515966713 7.414257984844835 2.128129740562705 -1.121563021471707 0.6070837362365029 -0.8368372576186943
Ni 4.213629001605615 8.424995179593207 9.89603446479484 -0.1190374483818466 -1.0407393651554206 -0.1284415153045659
Ni 1.6628680622124938 6.605675678671218 4.807392056568629 -2.502908763697844 -1.07738452718228 -0.14796467293915808
Ni 1.1505107853102154 6.741966569508203 10.951294343833304 0.19153432999999273 0.5282146325434258 0.7922682127590679
Ni 8.9994543935679 1.9604433360295672 13.488896451725896 -0.6666564535938131 1.3291081250776593 -0.28126248789476077
Ni 5.84608396942937 5.514882950407844 6.0009607436376 0.33817282792855957 -0.977743223938858 -0.8102147699351594
Ni 7.299626878927694 1.861577499187789 11.953033322688277 -0.6797109727849262 -1.203488652602921 -0.7261674644752527
P 4.3110142254627615 5.4252453366338065 0.9986166547433556 0.23330935705424982 0.9070607698216313 0.40641504803540973
P 6.617455398328828 4.990559713220958 8.023410102816676 -1.3834077669614884 -1.6164517861694936 1.31608060246974
P 1.8206697454677236 9.004464266434141 11.070385912767042 -0.8232440923152919 -0.6784971549824831 -1.678355979873458
P 8.64676120619083 5.609465252828673 10.558681409262393 -2.710148934468868 2.4418610044569045 0.16460099594425845
P 7.769055691306981 -0.08751447062626289 13.316419938266376 -2.443448917769315 1.1367009055544102 -0.08711360309005643
P 5.171045504844519 2.47409498528948 11.755847334041823 0.08286639777792824 0.6252285254663297 -0.5888384168730698
P 2.5155055887024393 7.916418587418985 1.4628381791917842 -0.3819358319471229 1.047888574605692 -0.13049685517169782
P 2.6382381618939847 8.4341209703161 4.7374335586463125 2.9332926638440258 -0.22992681373526208 -1.6569991114642364
Ni 1.8412307106882801 1.647736011268923 12.457610397397724 2.115583385304034 -0.04260986425072662 2.392898972735905
Ni 6.836763048650079 2.712464363783955 7.538050267203999 -0.2320348612172004 -0.09673389978863985 0.6213073360350526
Ni 7.054860134895845 0.27557839336236417 4.389006212830627 -1.0909620087563985 -0.36568928818127344 0.5791052487457058
Ni 3.7350743985034365 6.355684885052081 4.047188546867092 1.6031046754386262 -0.5755681821267249 0.017620284184924492
Ni 3.65969350472608 0.5933980233340977 6.075852755769087 -0.16208697127315314 0.3187476293244123 0.1960108777141076
Ni 2.0437115203602803 7.580235631625269 8.805611424176057 0.3487853133370832 0.5422999069918983 1.0572946984109404
Ni 9.873360599660993 1.30708328042726 10.741951498259569 -2.1656527911565995 0.35264582473375394 -1.7196440399889674
Ni 5.266605570557087 2.345998682040398 1.420833468178702 0.21252558753967915 -0.10560343436412782 0.4078381536351815
Ni 8.729442732546499 8.322069297082876 9.857259166253899 0.48747987382822494 -0.9360885245125491 0.1470951258500112
Ni 2.495447473174777 2.9961926469837428 6.215727847472643 -0.575876200285447 -0.5095887899121223 -1.3291600613615173
Ni -0.33065905879696145 3.84024448056909 4.677370956439525 1.7515961674155316 2.957250203100888 0.1126981364273801
Ni 6.338075833769439 6.429929711004751 9.984418679149181 0.5637441929086033 -0.5107020775809591 0.9183751663931861
Ni 6.2967490386386284 8.748076107277628 8.776704085256593 0.8133741414997475 0.6711877658052634 0.6877927213517961
Ni 6.561704266637039 6.033497912377248 1.6467219310549202 1.806156262049599 -0.32711991254850764 0.6165340830161253
Ni 3.1070058200474295 7.575346815166577 6.769832823322747 0.44503276040760775 0.4498206687145543 -0.645569551016527
Ni 0.28174854533480104 8.742293335809347 12.569395746534338 1.2421536732732865 0.15473927265883028 -0.7217227984403376
Ni 4.156881482559387 1.108532147984913 13.091962734608636 0.9308866685966355 0.7778101283522089 0.4085770886837351
Ni 4.801879334009494 3.192844125030712 6.130300203071892 0.35702621318963673 3.7503918196038444 -2.2867890310490036
Ni 4.258643361150981 3.689901734425122 13.387318951355029 0.08107613864672489 -0.4710795780933307 -1.548240676410895
Ni 5.642904757406127 8.530658799320404 6.568557921710558 -0.8466622141289161 -0.7143470748015569 -0.9776164685530065
Ni 4.784633451949499 4.641209545098499 11.233839067848521 2.152615241246351 -0.12766864169428335 0.2888696108180574
Ni 4.928560208493392 2.171686767201814 4.029129724470252 0.47403686094944164 -0.4748614137332661 -0.9297808371269666
Ni 4.778133654067275 8.736715429030763 4.120499376075369 -1.13558119012767 1.2589193227673996 -0.7307255161595803
Ni 4.552894239776145 3.779986325703954 9.008930316669549 -0.7165564237480497 2.5380554868023064 0.13994025997278478
P 3.510421642187349 3.893332371294811 4.219895998704091 -0.6602844886291983 0.31494651041076727 0.4922101894243588
P 3.1864095113679385 0.2853597510922883 8.505702555302701 -0.38603134217273516 1.18060094937147 -1.8004337577435248
P 2.431231704985938 5.165607278536184 8.476959108134997 0.5474351713359347 -0.41942277314898735 -1.1839631809754834
P 4.886264962102194 7.131581961187585 11.522299725380321 1.3820962472389167 -1.466468797248726 0.956526737762243
P 6.8420988426135665 3.429174168659562 3.0096457386749282 2.0347443023687792 -1.6290856728834202 -1.5646240028649248
P 0.3427581811298731 5.111578872644124 3.1890597154901172 0.42258805825084633 2.0659803775649257 0.9929813810448512
P 1.332998663674003 2.20826442634418 1.356277810845592 2.2596415240999344 2.3006174522916636 -1.498550251164303
P 0.47256137972538975 3.336612577041659 11.878059364680912 0.6448301017473411 -0.10474725701141961 -0.3527394128888247
