# total energy = -381172.69065206544 ev
CRYSTAL
PRIMVEC
9.17026514282088 0.00000000000000 0.00000000000000

0.00000000000000 9.17026514282088 0.00000000000000

0.00000000000000 0.00000000000000 13.42160998112006

PRIMCOORD
 96 1
Ni 8.389426384497842 6.0179040739849965 4.62650980655693 0.4998911030083842 0.03853980794641104 0.2897892944188493
Ni 2.7256412755287536 7.322190908307885 6.608559028223698 1.8965667907233723 0.7388028938510761 0.9102929036056838
Ni 4.3043574693675435 4.79442561752932 1.72209971106738 0.2016444218508011 1.3772941978645827 -0.48545564430934457
Ni 6.185655737208427 9.282509352281515 8.024888164042451 -0.02168931204797555 -0.33309361363343926 -1.302244467917596
Ni 3.867972054300938 7.34286068630524 1.637516852000653 -1.4300411505493114 -0.35336881894270755 -1.9279244790990475
Ni 4.072138841050321 8.192513277604673 8.430462404710958 -0.3035704073633417 -0.7882470074148167 -0.47588008480576754
Ni 6.051604798980684 6.755193404502892 2.2724935325112323 -0.42723764120771585 0.6861446442254118 3.0142119651979122
Ni 8.961568407138913 0.05956820936788732 8.039665129554846 -1.9635921077039857 -1.2625502346517676 0.8680571348649244
Ni 6.612430714235447 5.054182552557303 1.1229888551909861 -1.2449875431776558 -1.8023240327877026 -3.228858712845652
Ni 5.485863621522469 2.7385805198740365 13.30327178196086 1.3637354853435415 0.3004161780050762 -1.3434803346389312
Ni 3.110819929132524 3.721990600911456 13.444024350073459 -0.7291345175233765 -0.5946812488070919 -0.5567677615907702
Ni 3.01447712183873 -0.20484446935541892 11.445492493547578 -0.08078380421728668 1.833021204761243 -0.06859754656373993
Ni 7.802960407450443 5.703969211535375 10.076206818743211 0.07607200056391415 -0.28791573154522027 0.32713019696115275
Ni 0.4252261192170128 2.9124212392599533 3.1927599177383645 -0.48742536644120565 0.27625217916436295 1.826282857596145
Ni 3.6795047617536274 4.836214516523971 6.183430113818917 -0.9934297814361795 0.2187710542287587 -2.2912992602145317
Ni 7.266096395437512 1.7704481008346622 3.754171812946113 -0.8697131824111087 1.4239550922562314 0.6233788738521007
Ni 6.023039422555768 1.9063147515927856 9.26723260731 0.9067239553075028 0.9280921365706338 1.0998359142072607
Ni 2.9912580100865998 3.2906488317625726 7.7369271610425665 -1.2512556355745548 0.842107247768382 0.4025115992159455
Ni 8.834358486828659 8.129146744347477 3.665159715737096 -0.3233961838400172 -0.1461435605700193 -1.4558218590578413
Ni 2.602878933891402 1.2958043389158098 9.25924714028245 2.2306644201412937 -2.0448315114014526 -0.31020411062977543
Ni 3.3531717006117145 5.542224072086686 3.7849206295401374 0.6138606499490202 -0.845114667136138 0.2866749171595837
Ni 0.9348993775742395 5.257753272061865 10.190196884589847 -0.8080815256422406 0.5108815405816168 0.002312964403892791
Ni 0.32530874250735015 7.815624543836577 10.44014713790072 -0.7329785738598151 0.3773597825406662 -0.013218812683119169
Ni 2.7232111552229417 3.149582640576543 2.46330841297661 0.3586925451484661 0.3473467811183437 0.04657347688416495
P 5.239339379329527 6.242025358037949 4.416032043224681 0.8792391196236727 0.8055101653706385 0.3569552507423852
Ni 7.4305467631511615 2.1349753169716874 7.2953834717419275 -0.41239620531950916 1.1224770486455444 1.0332111750991755
P 1.5505818198832062 4.454144582858579 4.448821243849056 -0.23678008921166963 0.15877821861489427 -0.5765763116762651
Ni 7.138684729290552 1.5616503301062796 11.62508755441235 -1.147371755004695 0.6581152488920213 -1.6477796497484976
P 4.596613824636266 2.5801091651392136 5.4942168161887475 -1.368488683757811 0.49202352733484944 -0.6387921230833773
P 1.197939267581395 4.550643284662557 8.126181080547855 0.38493065290938866 -0.14741908484833322 0.09124459453929448
P 7.6729443859568764 3.0910121560738344 1.3233371434673886 0.2510746514574708 -1.077544706909228 -0.38159258967509124
Ni 1.3550167419898653 1.352916751235032 7.284981639806524 2.4283521713371923 -0.1896078024012412 -2.7112560514901176
Ni 8.910820158941325 2.1165155729128253 12.927252389343671 -1.4032106606200285 0.5037187042845906 0.8101870020210176
Ni 0.7371508595117899 1.382692602680201 10.653470434557095 -0.9573371494786802 0.0017210964561647781 0.48484037932284885
Ni 4.209527755849066 8.134538860346787 3.6715220458056694 -0.18511788495068765 -0.05272586963880597 -0.8956975222900122
Ni 7.647102578327531 4.529991847195812 2.9868856275892 0.06474397714560462 -1.3749994882931351 1.8751263614614093
Ni 5.628828057626624 2.900609937547179 2.12347305319969 1.1622425014689404 0.31108137102840616 1.1036606872699897
Ni 5.030303181703216 0.04520573984727629 10.173473071753213 0.5871605149500145 -0.7011514020468893 0.48109428201685533
Ni 8.365748759480464 0.8383924225314873 5.789116041918357 0.8907108677086983 -1.0784340514927169 -1.388313431793222
Ni 7.994829868425889 6.055758929163826 7.143853090816421 0.0964690761630274 -0.9709334001058763 -1.6780106807188975
Ni 5.600867918711834 4.118237764738299 4.419387443299762 0.4613214702653023 -0.029393108450136474 -0.5222345037005909
Ni 1.5605774090656006 1.810347925176495 0.7883099355950391 1.528094026259691 -0.6750793875501857 0.8786544507647964
Ni 0.7630421865737829 3.4073771388292675 6.25192007430199 -0.24421906198821808 -0.3883988139636472 0.34936406865868863
Ni 4.854298279705332 8.053226117887805 5.7150423068911005 0.09584635497736398 0.3982880480529012 2.4765999505999865
Ni 4.589717785126944 1.4880406105034545 3.5602161166137907 -0.4802630443648116 -0.505597152254226 0.6422895947136745
Ni 4.121199760431798 1.5028322484403371 7.209041755789711 0.5192443107240154 -2.187104276162156 0.5242916433399357
Ni 2.4610516106850615 0.30413093181210105 2.7786894262648225 -0.179906001732445 0.8759031132719044 -0.6468605019138085
Ni 1.27777559732628 5.775240513485438 6.197159835033487 -0.7668307465225696 -2.730485846254007 -1.214558280153521
Ni 2.1582861313768675 3.2741056731524445 9.987677994515764 0.1980047682156848 1.3372076142563423 0.8092930294518386
Ni 0.5958645819584417 3.839745977692305 1.1215151935564809 -1.2710179058031466 0.21067490748418555 -0.7660463029480613
Ni 7.789718544350097 9.324509167378181 13.329659220375849 -0.26345014230368824 -0.8331513241266747 0.7951761304344821
Ni 3.934749926251576 1.6359936709335008 1.0222544078426525 -0.9484709573373021 -0.6895762956147802 0.33047751616683085
Ni 5.7427135824487845 4.1628877865080955 11.4516127286121 -1.0617599332711458 1.1673142595648927 -0.6839826035770865
Ni 8.64311260389395 1.0306644581538214 2.164342174584256 1.0230288352495347 0.027800052931403734 -1.8105003979509076
Ni 8.471995453303602 6.459241432316275 12.282035273567057 0.3044654083737853 -0.44982478247961244 0.3275575143065585
Ni 7.3424847054277365 7.429739779804326 8.752849500692152 -0.02697164349283742 1.4998509722535975 0.5915344756479942
P 2.44433421703414 2.0885829447939503 11.995953257928155 -1.0537591744538561 -0.07291828542628087 0.09020561175181883
Ni 8.257411245167797 3.5056365315717954 10.435892134799223 -0.06285370210142725 -0.9968894578500057 0.8505273535112771
P 0.869165998841835 5.785309464790273 0.20545245794513703 -0.138183168072362 -0.2980960145123318 -0.7661275498079579
Ni 0.18355936655610194 2.5359910187571044 8.717940134729272 -0.29637131851174126 1.173095127912728 -0.9366338554930579
P 4.343037648423818 5.4116578346748225 12.89308031271131 1.7777185755341964 0.3409056534786903 0.7216178974313572
P 2.8156474294968272 8.979477935279478 0.46864732543594606 0.05541267244234972 -0.6854193360236132 -0.07258738444942338
P 7.475334338900532 8.436680761614245 1.9198674866869696 0.5006377513664216 -1.1950117254801613 -0.5613456107694398
Ni 5.621849485729558 6.1297262891135444 6.668258372385445 0.0672870552824325 0.04863935827425817 0.491366867587457
Ni 5.60334389034417 6.1865911042695325 9.738197258788507 -1.7744429901067182 0.19059407757391045 0.12894545152417794
Ni 4.660613106199504 7.370261439036427 11.859737220061913 -0.011383045025961042 -1.7413624055026655 -0.14240363391161281
Ni 2.3000584329913782 2.3371980074764216 4.613974053885065 0.9054952251067244 -0.4048392189078576 0.9780967506235348
Ni 5.463148874362111 3.8244316346330405 7.130095858805936 1.443644600265359 -0.8329674902506429 0.041804080519979615
Ni 4.725254306334089 3.737717605909443 9.342715812114626 -0.8399822310055792 1.1093178855557668 0.5008053872925375
Ni 1.8964108650634408 7.282144359721173 3.7493271617855086 -0.042884715178668084 0.28676053489485454 0.3563883224953217
Ni 3.4476162629873834 5.670020889376454 8.32762613255473 -0.028381122245854346 0.051002973410428296 0.5680543902481829
Ni 8.50656735350326 6.260475931831507 1.6630184427871852 -0.2476967361241734 0.8831037447854017 0.47755207319155174
Ni 0.9499844640008805 0.2193930952617204 12.684629178011456 -0.2999433521337157 -0.3958326445338731 0.10540751630323783
Ni 0.760685428390411 6.785005937009281 8.240693851516875 -0.10385174178034372 0.2901078541005327 0.8137502938922437
Ni 7.042910478445665 8.087339504822214 11.287507162873917 -0.8829335377561246 -0.38891097771337535 -0.5276978408080073
Ni 6.533603113674106 8.53995628947858 3.9412287186895223 0.08338010418955318 -0.2470573027679616 0.4169699407331206
Ni 5.2935814986083 0.3168950240900595 12.551755701848867 0.04230416008484972 0.10319611047421583 1.2451037570405459
Ni 0.9726992111612389 3.8037801971662955 12.132169295794398 0.8393325132367223 1.4638925518811174 -0.5998851616055345
Ni 7.765188084659358 3.8728781462390853 5.646981514824301 -0.7490016887609487 0.15900550413435197 -0.4669912669565699
Ni 4.382341405520829 2.096139243405229 11.185530144576763 0.05341081152097253 0.44207136378643863 -0.4105858915836478
Ni 7.625634987248645 4.081180722641001 12.600207715614095 0.8212484020415017 0.15051109351009562 1.078530210750949
Ni 5.90530238630553 0.9167239117398306 5.593228170686282 0.842988879042387 0.9206539351250337 0.6975842535209212
Ni 0.7239511796318465 7.890976613847343 5.700922849401071 -1.7940530510281618 1.51407174383867 1.0759447094119599
Ni 1.7709616356917393 5.477857979911249 2.125889418107544 0.5845991819807416 -0.03190430490776441 0.8630982481977522
Ni 1.216802503313675 7.696860437872183 1.537619649874661 0.3830380638723661 1.2267573933228744 -1.047026226605397
Ni 6.583947870198275 7.310645544288954 0.10540761454773558 -0.724732531800939 -0.23679860115443088 -0.30523571088090656
Ni 3.090287705114743 5.1389433147709465 11.201877059509364 1.1865448256597306 -0.39449592800032063 0.15637963647573067
Ni 5.531476521149285 9.310753769420756 1.6208471437293166 0.14860847717074405 -0.6217372244836196 0.45061179715728206
P 1.9176308589790925 8.62445111399838 8.308701456044908 0.5682333390282085 -0.5212037484432314 -0.06618636601908602
Ni 1.6996536526804564 7.319338955798045 12.41717747336609 0.8532771483422724 -2.073320619980081 -0.18933577968677714
P 7.051805635791465 8.106312783738154 6.396202277530464 0.6993061213080344 -0.5255512267786497 -0.11240991576299994
Ni 2.672316182780475 -0.014856746820547776 5.202054914652665 0.10552552993834084 1.0197285672317085 0.16509619041312212
P 7.016004920040945 3.934245561659804 8.710410429887379 -0.3191464074247278 0.3188275906327283 0.09205552047636405
P 0.6957902119068788 0.745420604763793 4.116273493909979 0.5737198160640765 1.0047855727686308 0.46658297577455776
P 8.055436151826298 0.2894933543323416 10.054235780099084 -0.401268985058096 0.5266418887396672 -0.6843623555140085
Ni 2.502849679945019 7.009925034143763 10.06555005343233 0.8332845072704295 1.5108928318900559 -0.5803203520997297
