# total energy = -340852.69717443903 ev
CRYSTAL
PRIMVEC
9.47595199358866 0.00000000000000 0.00000000000000
0.00000000000000 9.47595199358866 0.00000000000000
0.00000000000000 0.00000000000000 13.86901358651777
PRIMCOORD
 96 1
Ni 4.396348945015323 1.370990200871136 11.295118646275698 -0.6111735900351603 1.0323033185729253 -0.8473047328089214
Ni 6.449181266853845 7.101316278527469 12.693282086895096 0.24101983832463006 -1.5215868212687924 -1.1254019356018232
Ni 8.390443730694036 6.809655954140627 11.272248436297867 0.8477855291000819 -1.809047210444149 0.17822604292686078
Ni 7.875776353637519 4.926083085637098 7.1706963557575 1.3346164564903982 -0.4205874828810499 0.8818212785285522
Ni 1.9693018055946556 5.153837590222619 6.427178106477412 0.3781318848200004 -0.9155166138984685 -0.9486241950857148
Ni 8.42518257046148 6.3528582155074 13.594545560322665 0.6680659323468301 -0.6985281054914292 1.062848538349634
Ni 2.955293555589772 9.15451816249118 11.296602580347596 -1.2122882531724217 -0.7469121532217717 1.028125275935836
Ni 6.531261962452755 8.846379157701831 0.6274975366612522 0.24868326840715882 -0.17155634421616905 0.9830353255757329
Ni 8.414266273840614 0.19470427945161706 4.762452347747238 0.16883663129216084 0.0046184726086178525 -0.9919706803921498
Ni 9.725738020653017 6.764540947012204 6.3727558193654685 -0.8420460555131435 -1.4604236194959108 1.3833000377390305
Ni 2.803024484061387 9.100419952935166 2.81076349400085 4.028679284030681 -2.071925796515083 0.7399542338466998
Ni 4.884000383125581 5.60733769758496 10.284899729986686 -0.2209174111478002 1.6271997687146167 0.35358222050509425
Ni 6.8712780695273405 1.5483705450082845 11.285285450960183 0.4858721630214729 0.23103624474935694 0.703006452977757
Ni 1.677035020284432 1.9365718676359125 12.036597670700916 2.9299674561255347 1.5446961535927461 -0.8931459595127521
Ni 4.703995200304423 3.6605223259150566 0.8430138493319739 0.3610553889536879 1.227910533090711 0.025097052177943877
Ni 2.7663525501006645 8.728128753594374 13.933504151162103 -4.276983314721551 -1.0326182787101827 -0.0021854376870930102
Ni 5.384008462549738 3.5165731401793114 11.047445690737868 -0.8831829347627693 -1.4837404398449803 -1.3170051711665383
Ni 8.062196755913822 5.621921187601898 4.965439556778976 0.27356614769176757 -1.0275084682874434 -1.1494700322946203
Ni 7.025177004787312 7.365174159958043 8.823146966360358 -0.43450306452087756 -1.0350950223854496 -3.003892842660091
Ni 9.407715598002937 8.656177850606321 0.5108220357642019 -2.2261217950759336 -0.909491233639995 -1.1704360930233262
Ni 7.752266796210114 1.8413101229053843 6.646406149518267 0.5620202682389611 -0.07139130725879318 0.049072074936302584
Ni 4.547717801110563 5.109907077085174 8.084677504267418 -1.0159282196490116 -2.1374033093926026 -1.1469354387982247
Ni 4.265827183161319 0.0024580619300804715 9.1053266008434 -1.717699514668087 -1.3524465426932837 0.3066816992988137
Ni 1.6984790994971233 1.956101804559181 7.686956640333087 1.4861647330157566 -1.3634097265730067 -2.1036717214681127
P 3.67000775379482 3.4299155597992574 2.6659159880223453 -0.10185116641054716 -0.8729478872983224 0.78830588567721
P 3.1289214227634976 3.396692872340267 10.437056985282322 -0.43203660525825593 -0.46492949933153477 0.7359898498823131
P 5.648169574442002 8.407168785846666 6.825871203079539 0.8513861019671467 0.7584471504445648 -1.4266560361271623
P 6.17141268799321 5.3999280617885015 2.5573765394505346 0.5335774395172359 -0.6806458258943696 0.9166982929113955
P 6.944318706987095 5.384359072771067 9.392442258685653 -1.0051195590692819 -1.7353815053288824 -0.49634529463865484
P 7.793667230182826 3.381645060678865 10.33070932439142 0.6708980024789866 -0.8984239200822398 -0.6760018993644551
P 4.18269465689842 0.4526074726907387 13.43827005631919 2.90463797622181 3.2463640687192665 -1.6796664711547653
P 8.018626328949635 1.4968403184247163 13.310550333450248 -1.5609645517354664 -0.5274386736093497 0.7438188590084286
Ni 7.316619382279814 3.2936039913173474 0.6265935308473367 0.6126532599044804 0.05457012193639635 0.37425517547341347
Ni 2.716850177229653 1.7102577077434225 1.5874749558288825 1.2798956679087505 -0.00327558542747823 -0.6614661676421253
Ni 4.399665528190065 7.302035892262876 7.925725043844332 -0.8630511970099009 0.5249745283395733 1.1787582397357763
Ni 3.3748697550504625 0.5664600875084868 6.436415264416666 0.6422661976749069 -0.8058690913719541 0.3330486193281167
Ni 0.5885276843580296 3.442603859430629 4.333040110185454 -0.30896638156793244 0.6394721798695374 -0.02106967618610565
Ni 2.0814117928528746 4.854255370024107 2.387397861364218 -0.1044307542122653 -0.592450045483728 -1.0623258330769445
Ni 5.272078518378147 2.2616633504241572 5.926284973143196 -1.0242056291664552 2.251097234074349 1.1190698227362081
Ni 3.7289292228821 6.482508189784042 5.585925836608823 0.6000736234672569 0.4359004590890364 4.537124190146348
Ni 0.9891946217467248 8.72696321150725 5.705171215668702 0.2605813053963254 1.7399680962583002 -0.030610268686689222
Ni 0.46470352532662046 3.958711581180178 10.698875641858026 1.6043069232768434 -0.4180888848289122 -0.871843084269918
Ni 7.958814120381139 6.778773826807812 2.138907131175015 0.3708875445527613 -1.107294684478151 -0.2070951605527272
Ni 4.29808332352367 2.400580805686223 8.728310691871389 -2.124082681024297 1.0949127658740303 -0.009162897446190671
Ni 5.221334795804589 7.425251695180518 4.243377705449085 0.6427840178515897 0.4903343125578846 -0.681440039660891
Ni 2.125522349076948 6.4791157989938775 8.341989398106243 -0.40149678479818596 -0.055542770262310796 0.3610304492530234
Ni 6.26596373632915 3.319928185772874 7.881246820685458 0.7385866640752119 0.3681680887390691 0.5227656936137126
Ni 1.3234588260011144 6.8257082167063805 12.864883047951457 -1.0586010759271898 1.803016687979353 0.1289552217161908
Ni 6.109894808077703 1.188976116241276 9.244917796287535 2.4966717816491966 -0.35807496616912526 -0.9767831740184338
Ni 3.8676097793459694 7.255101502364308 12.03460108762972 1.3912501458240427 -1.0901845071604257 0.4328534447325965
Ni 6.1428521688827145 0.40202673649033954 5.320417244352421 -0.17320210734970817 -2.118152174472475 -0.845734302998008
Ni 6.309657350668399 2.9018681386206366 3.661808212591664 0.695782167315176 0.5974346431825129 -0.17703485083223705
Ni 7.178668474114389 4.4829591456357365 12.091158306711007 0.18388349832295428 1.7956846730943141 0.7375983320200135
Ni 5.8754313295272755 9.137935246617467 12.36270023755986 -1.2491753560067582 1.5710054809112364 -1.2017459588802013
Ni 9.399282000787164 2.728401362629684 8.570967248085648 -2.784482869295753 0.21173163088347408 1.2168409055401108
Ni 2.5202052228232152 3.5302374628592497 13.688397283406331 1.0050257138038947 -0.4418471635907746 -0.32370137378526187
P 6.620136915583922 4.019869374922426 5.554844714285522 -0.31666040777808047 -0.8583818165586894 0.3848041546338534
P 6.018916193618557 0.6118726395274446 2.3977304393463297 -1.9895353099323092 3.70267934401923 -0.2609661995395699
P 8.490974104696441 0.2241110010692683 8.918177497863846 -0.719358154862903 0.9907982573506033 -0.2709405371434624
P 0.901990278940435 6.3811913117716275 10.701067429538934 0.49324557266740854 -0.4898923399244595 -0.6390903710500864
P 0.7021784613997148 4.2136146880389465 0.3233242177537036 -1.6026349348910591 1.6567409727068434 0.27737343725299973
P 0.47904158818862796 6.009203342892525 3.306872219206702 -0.8306460412063179 -1.3246292633706993 0.893525711449674
P 5.146152593209144 5.095645769433783 12.478256628534234 -1.2247079669930132 0.9471931190661431 1.635609332934551
P 3.3830854053718955 3.3804416147840293 6.922676580379112 1.3122992810504368 1.7701402489663063 3.67880665116669
Ni 9.173195263740942 1.3386393009895063 11.155513236903673 -1.0753960359973416 -1.1522951604482414 -0.7385522112928508
Ni 4.474108606535139 1.645508528220524 3.76316299441179 -1.565604364500323 -1.4622763564339332 -0.9502959263611829
Ni 5.585846238612629 2.2587068534226726 13.118894467733815 -0.06296991596431736 -0.8666584547451849 0.8501748552678648
Ni 3.2767083690300165 6.0242701064577835 0.27501107684963544 -1.2826904570450681 -0.8145200821787327 -0.28806768374205227
Ni 2.3979180631945005 5.2121810262423 11.725210309590707 1.337465238793103 -1.3378717302029024 -0.9376540692274561
Ni 1.9192403515599017 4.13760807762578 8.60343470217599 0.90406697730063 -0.3206075653512866 0.8870341901880593
Ni 0.6437639557405742 1.2655891875778242 -0.008621221063944537 0.09797908504965062 0.8580647995389028 0.8824095469318545
Ni 0.5711203606665962 2.6651020037517448 1.7577312793066844 -0.7202205028631984 1.406766496292087 1.9024679866991556
Ni 1.3333232919579907 1.1970685791876472 3.757115441891446 -0.12353302225935499 0.38476918763085993 0.20500562501355016
Ni 9.011440764332795 3.3028809482546975 12.547837595945136 0.614272026454826 -0.3219334832515617 2.1934867826497317
Ni 0.17311521817442993 7.82521267415059 8.970214687875552 -0.6633147908150899 0.10475831275501313 -0.029084061850149914
Ni 7.794358974673558 8.51129054562972 6.779673094645763 0.5847943287106832 0.14686912588213416 0.46326136760049247
Ni 1.6427699781133795 0.954199931277229 9.975121385513821 0.23695698110916608 -0.08026624115091983 -2.4313709035588578
Ni 4.2155193543764415 4.598840561761234 4.441080176090669 0.828181381715909 -0.7730011369993397 -0.6228386850779144
Ni 2.650698556821435 6.7134655661211715 3.816613996451131 -1.7019741335130303 -0.30098310625213975 -2.8020015949058066
Ni 0.9824003642144669 7.052714121089602 1.5789598654265298 1.6148667010705606 -0.853010524944447 -0.17168309960202047
Ni 8.20566266810125 1.0549577281259015 1.932327588767435 -0.11459303945724782 0.18064082301594053 -0.5712808676052806
Ni 6.101195884207951 6.013799179577526 6.35890103005178 -1.4030124285662933 1.365285603439481 -0.30410802503436657
Ni 5.521466621214916 6.156497539658797 0.688581417978464 0.915427653729088 0.08703389889205657 0.420257867455773
Ni 8.099778381259616 4.173313464489863 2.9307584208582207 0.4422338575062319 0.7798274158925538 -0.6024421236994334
Ni 7.376706393454218 8.561664706078092 10.546122349186128 1.0723904164017983 4.312639887582895 1.5857978087290625
Ni 7.025139100979602 8.605964781340722 3.0197006532480755 1.734508872915942 -2.7157539393604715 2.456157366474918
Ni 9.085135242475568 5.409138687062357 9.13872269822267 0.5984021493021049 0.41628551307158623 -0.6789874643553403
Ni 2.731509474862014 2.652764314341703 5.300334859431759 -1.459438372764506 -1.117146123350934 -3.397692515924335
P 2.9450784794115656 8.529029527638627 4.9212664592721795 0.9537340055084542 0.23550790736746535 0.30593119428603444
P 3.935381787533847 7.7236494213880516 1.3681682623870266 1.5332339185894175 -1.5415874327604353 1.9335587945666894
P 5.466401864562266 7.784750359418734 10.376671481622191 -2.3374467053048713 0.4735308678473006 0.1348492186031226
P 0.8715876347751683 9.189806607470437 12.383933003044563 0.5014797876517428 -0.5720061758070794 -1.2975246938444234
P 0.3230276204583624 1.5763151272434708 5.5911537192874095 0.37130200638236055 1.2359249187547554 1.8690562440079295
P 1.1131590248666658 0.08871765232916501 1.9781646634327599 -3.389248756032356 1.0528343486467415 -1.7720359233271223
P 8.726451510103148 7.512932678368779 4.492367818304884 0.09167962519418404 2.265193564266415 0.3061080861835309
P 2.1292937779442265 8.597929174105918 8.587443085702576 1.4773630755637268 1.6782240822812837 -0.2721967781480667
