# total energy = -340868.97170869634 ev
CRYSTAL
PRIMVEC
9.19346217471923 0.00000000000000 0.00000000000000

0.00000000000000 9.19346217471923 0.00000000000000

0.00000000000000 0.00000000000000 13.45556118209712

PRIMCOORD
 96 1
Ni 7.660526023384055 2.5511490191333075 1.5016941506782269 1.6454723417715595 0.022031525878742703 -0.22304679878597716
Ni 2.64654957759738 3.324264039223674 8.847933390637694 1.9030909649951353 2.636210692418505 -2.9818047525118003
Ni 5.549431271518869 6.1673882280843095 9.318326083552096 0.8542721652656902 -1.4422060680466193 0.7021173655045843
Ni 7.93331443725569 7.430220598879526 1.0055156346569512 0.12446838958943081 -1.0351305036090752 1.4959621787221526
Ni 7.113119696639688 1.3163750953297408 7.201402676577897 1.1856264276105193 -1.0316142629257008 2.2803332481213308
Ni 7.0820641809326785 4.070083669694706 11.560950781441145 0.9608970989157968 -0.8260764195577645 0.05425361913724205
Ni 6.706557212592595 -0.09139496693253217 11.19956129383513 1.0270685525365473 1.7272493631400514 -3.1103902495933977
Ni -0.16910086847497044 6.624689430659226 3.6737176547034576 0.33859963105333296 0.2966016893549924 -1.9791133432680368
Ni 1.7778593232589168 0.9356002730819847 12.31255218036337 -0.31960020713269477 0.023333789629934005 0.5513938988733665
Ni 0.16916338401872644 4.806627096687831 11.63305970312496 0.34661324538642885 1.0689999026630106 -0.08819063820431908
Ni 8.31404329219186 5.727766053545088 7.912313811284842 -0.42156758740613204 -0.09530462354128102 -1.364342522799921
Ni 4.774992392854847 6.76312458622943 5.19259530579849 0.24577869316585413 1.1910329433380713 0.05118063663887314
Ni 8.34116400602717 0.8384281344294156 9.312553508563218 -0.12769718093937363 -0.6617520743136602 -1.3084410836466112
Ni 1.3294573922069088 2.275905950823018 5.518569737866748 -1.0711760843787228 0.11010157934479749 0.6882668327747372
Ni 2.4633606474677556 5.204529339232258 7.51094839148558 0.8113257436111512 0.19354544689275055 -0.4674005865798466
Ni 8.548779965533209 8.341081264866316 7.166862838652724 -1.3308811578176822 0.5332305977007784 0.3244410801647638
Ni 3.485921880606757 8.852237769694538 11.275612372160499 -1.1680135996247625 -1.6991875719068286 0.7760419807081925
Ni 7.361370759587106 1.7128523512150258 12.587273979360285 0.280869109111084 0.455428501819635 0.20571447815511668
Ni 0.7269592425275953 2.965194981506483 9.89437188410655 -2.9569537549063916 -0.9036340035282695 1.2373912188876368
Ni 6.2154240686909175 7.575357788478862 3.0223608495401586 0.8966511444525331 -0.9506648796648272 0.7520399613666403
Ni 4.301630211612037 4.295452204934976 1.705519645670943 -1.466923111177325 0.7157876639028253 -1.1820477091203256
Ni 5.3713998737491115 1.8825544721255314 1.0366796332193018 0.14428850963915152 -1.0192256594533609 0.2633694096644238
Ni 7.287629998342013 6.871653408882255 11.611812692364015 2.723403742596245 -1.9220500225961414 1.4017186494555343
Ni 1.599211963513917 7.29491122049712 11.114307559730388 -0.20278522032346363 -0.7331557228676278 0.6252938314866263
P 2.7486245897036343 4.017037392125302 5.713096965071998 0.16086878259533585 0.6806602240720729 -1.013057582969436
P 5.442952590962745 3.6897777140251193 13.24608484377025 0.012920821826726134 -0.5809127342680898 0.0557739124365104
P 0.16473857060552818 4.050639496894136 2.879328962811427 0.394318778992508 -0.2613459514764918 -0.4875143266105862
P 3.1476300477261088 6.462755785406631 1.4655528116174228 0.1392100666749796 -1.1142711157959844 -0.023562103590656195
P 2.232586356385058 3.8234046888035045 11.17360539167539 0.46962150549056536 0.2781051732127017 0.766831260743202
P 5.396056739683452 7.43704214791878 11.098133501475996 -3.0368171041919374 1.1598094665474155 -0.10147141447362523
P 0.3928504350012069 3.7805079936321286 7.922553489613578 0.4910737618270704 1.1795694227831621 -0.3170072495945379
P 0.08199465171334412 6.507960039619587 12.985680023639686 -0.1494209457697104 0.29317672283384344 -1.5930182377369015
Ni 3.367022832460293 2.5487862993178245 13.45919481635696 -0.35856990352767276 0.563823639996287 -1.3337361107679742
Ni 7.292842691475783 8.633212723453035 5.1586466075003035 -0.4914884807669857 -0.05519901376964687 -1.1486524214893314
Ni 1.4492206258111757 9.000647831878746 9.407267315392206 -0.059893333921522664 0.10498302717130953 -0.3009465965872494
Ni 7.432702833705131 3.501118673816848 9.268849627400403 0.8152500183662218 -0.2269389347515317 -1.7171693531962298
Ni 0.9479470929737885 5.5533292995413 9.39334105867433 0.37684144814335097 -0.7982781663985735 0.7425361356412631
Ni 0.22529039081057478 3.022893151008316 13.193272080143702 0.3186422140947996 0.039267944361687214 -0.6335992660285282
Ni 5.7378972490184825 1.6557333698391672 5.322454799719346 3.414134206420126 1.4292438514589965 -1.0084141706601535
Ni 8.350329887957274 8.82617430402569 2.9368110859488095 0.4262032864059305 -0.34941754760444343 -0.8053296739287161
Ni 6.141784435531313 8.300151970630791 13.151964015260713 -1.4547846760425784 0.8567764197447825 1.1709644547229705
Ni 0.5520002998641977 4.55482735728603 5.06122900340387 -1.0811722763594862 -0.3097048023958537 1.4183827403747766
Ni 4.572487998397091 0.2877434190227882 9.519970889283204 0.8056022108638126 0.5355163084111616 -2.115603697019008
Ni 2.6033954654811273 2.773520485658217 3.794360702651466 2.224372930705627 1.4578699998361215 -0.6964475688133167
Ni 7.052553166894934 6.022186684248754 4.766107830871645 -0.2749964523803909 -0.9994307362146206 0.3777534184346591
Ni 1.807508239231417 3.383405582309284 1.5885365150713535 -0.9060035322017107 0.7458878257223154 0.1809151597232497
Ni 2.4200134726428444 6.582684501332605 5.51344346327876 -0.6373589901812765 0.4922392428900812 0.055977800917200365
Ni 1.93801863028432 5.3272988350142025 3.4884758244384346 2.2097515812480264 -0.04893220692432863 -1.5916534961788908
Ni 8.049676089802647 2.6526632300382214 4.011331929411338 0.1331875146299835 0.2509957185904193 1.3822314872652002
Ni 5.862772047671031 6.320119217557533 0.7943179022321889 -2.416197024031897 -0.4814218405596032 0.5967489299693981
Ni 0.46799044121095534 1.1410189950942464 1.0542216786664733 -0.157975777318257 -0.6519970518094255 0.11645168993254139
Ni 0.7391828700243508 5.903103766855948 1.4137219097663338 0.3385993739430168 -1.3630376879455688 0.7780528404906343
Ni 5.285891480738189 5.420042482868646 11.97892143287747 -1.0490363150568902 0.12608484214693125 -0.12489982069989457
Ni 2.695881696390694 4.938976180204144 13.155287451888327 -0.3557059517163164 -0.09145285389535864 -0.37003599518574337
Ni 2.7718564689788305 1.2520852133465799 1.960811981406993 0.8189110121575768 -1.4840733977043665 0.6094558360131052
Ni 5.252905337944599 2.228430911417749 8.052359661452995 -1.9834137704156038 1.1951477368373933 0.33609486235360825
P 6.3071840160774375 3.8821692999341155 5.18754993367889 -0.4395676235279785 -0.28263648542415193 -1.048248786158588
P 1.2330731332749114 8.412220276275683 3.1075888419504105 1.2126793179632533 0.20495343161937604 0.12372251256234176
P 4.524047645448531 1.5781773217324968 3.5309817974613353 -0.7903979923195484 0.28402153869713664 -1.4553253790373968
P 4.6430570151428 4.295387850698757 8.32315309400183 -1.0660161374443382 0.7019399593864557 0.481337508375913
P 7.074939247636961 5.546535330888997 2.374947120364644 0.19830841549903266 0.492028669541172 0.7635970700766204
P 7.633524824558865 5.532340625071464 9.941372540856257 0.9772264322034397 0.240695879326308 0.5078859482884027
P 3.726266565961508 8.784252115859921 5.615153494931027 -1.2655815652789237 -1.9868297380756879 -0.7677393743797681
P 6.3527376218584415 7.310190754868065 6.596225551979394 1.0786675076597618 0.9584393814039236 0.7595306133167307
Ni 6.373790650564496 8.257788496273806 8.656581585316756 2.069947332632474 -0.09368148611556125 0.5866987448222477
Ni 2.7050291913961626 1.6508608348111284 10.010560699561942 0.8489787780772345 -2.0172484595768614 3.134739882082356
Ni 4.756007893170129 1.476010375003072 11.667343962797718 0.9689387382733505 0.35921807863463295 1.0191379848355608
Ni 0.7715604056125526 1.347568512971506 3.424736630848065 0.023546934082004606 -0.07512146372518676 -0.3502678114198806
Ni 1.129775390680489 8.994285955955343 5.414356326425548 0.6818714707713547 -1.0580426323205587 -0.16770354612898214
Ni 4.391064213032341 7.275604949631306 7.654667029849395 -1.4919934238823918 -0.6687238776458032 -1.466574983809287
Ni 6.085750282708867 5.257198684846664 6.926506201796961 -0.6215392495402005 -0.951810049012864 0.4649253855664767
Ni 3.4940213209080815 5.418764591606576 10.196261283596588 -1.1271250889405169 -0.43396724662206554 0.16780047671816262
Ni 8.82501592777374 8.740950908346596 12.825410395066479 -0.007802526763554304 0.9871884285121579 -1.85294185494457
Ni 1.680077658054727 7.795862982153411 0.22277689821309213 0.6401044141368976 0.8434750746501861 0.3758587725151076
Ni 0.5226446553396116 1.5760536319372573 7.541896343683479 -0.046230234612133284 0.19490350358254174 1.3507699263218091
Ni 6.112852609619543 3.5407057225540837 2.805632330185456 0.29250155114368975 -0.009106847397274638 1.322665197665793
Ni 8.466259447775329 7.624882969980835 9.623780707728688 1.0539309241450303 -0.467349421626937 0.03442372889550846
Ni 1.1227331985456255 7.2069941403591296 7.739625653813758 1.6242581695877898 -0.18468002608232065 -0.24485592424126865
Ni 3.4709273435676415 7.5545162094061 3.3150604640980705 -1.8012446836805949 -0.39439128410165625 1.884033434143052
Ni 5.199684384591171 3.4074556797306985 10.420269186413933 -1.0933117399354977 0.3701835765072012 -1.2662068575677483
Ni 4.573683148498308 4.73924821136614 4.092105689328978 -1.1957339483581664 -0.15125877030939758 1.0839161576532106
Ni 3.8216947048125323 7.151208211019244 12.8730435620236 0.44870969503856273 0.2350710769403629 0.33806407026483715
Ni 7.777430090207717 3.3500976683345964 6.671106302551801 1.2384502562797703 1.131813752665438 -0.36487296292756516
Ni 3.724354325799561 1.8035090831234981 5.885772251695838 -3.0422693855557608 0.18690608719936197 0.8131982780435155
Ni 4.671087881747498 8.408791114831423 1.71326973440422 -0.05082402463040279 1.5547939041483803 -2.123699072432633
Ni 5.332925233952239 0.12032127676691191 6.973533519587389 -2.2608998219870675 -0.9020466044364917 -0.8294990720860682
Ni 6.603581241179269 0.9041236968008541 3.2517653147376153 -1.5322566422778126 0.6120261678434428 -1.1843570739797924
Ni 7.433245247981837 4.748487640994779 0.2559046203263657 1.3706093296452397 -0.43602464337172653 0.6833303147050683
P 7.204677387855232 0.43966538381211095 0.9954635029594839 0.8679121246466278 0.17174532029852357 0.8413150908843897
P 8.525998565911548 1.0919350997834936 5.7759342800090625 1.2820011442875276 0.36004905917636054 -2.167670078696944
P 6.482935435192565 1.6305984438643406 9.723338549852532 -2.2738412126390837 -0.47798658962580903 1.0443209118590917
P 0.027154729645883363 1.1251970464465961 11.089172633755561 0.26289067025579244 -0.054185227793151845 2.5963182270989416
P 3.5701248019686576 0.2771690986657124 0.138070175116217 0.13379583763794375 0.16676997857111925 -1.1781270339096808
P 3.0562562257569064 7.3856690804910805 9.240889550455547 -2.101943683033412 0.17742360163022347 0.8686212348985105
P 9.152955922085384 6.6089042558608435 5.712975611369411 0.8518159904157137 0.7362793560982739 2.3607082469359733
P 2.6364919298225225 1.1251326922103768 7.761329579651859 0.5219318848585075 0.4488709032067753 0.9503787158829761
