# total energy = -340897.3247325663 ev
CRYSTAL
PRIMVEC
8.97303615789292 0.00000000000000 0.00000000000000

0.00000000000000 8.97303615789292 0.00000000000000

0.00000000000000 0.00000000000000 13.13294542547777

PRIMCOORD
 96 1
Ni 6.295607818182126 1.9416124913723258 11.352078818945342 0.3540146800568226 -0.3373727006247674 0.8714756736281702
Ni 4.562636364457811 0.4409152580311535 5.9484491234604855 -0.13431571469715578 -1.3512579217018212 -0.6940531004392112
Ni 2.609161519233314 1.6471264164295238 4.744211135721791 0.4178554286618675 -0.882900370525344 0.2120015967154091
Ni 3.2861950463543206 4.302436260822984 4.857009379144533 0.7282798828325651 0.011010749288206842 -0.8490677382466152
Ni 4.7998924145374176 4.56011494128651 2.709418149963788 0.9304441817425783 0.03942735275768693 -0.32714279536664304
Ni 7.180062050028377 6.150244631793955 2.494248331178986 0.07228039473196583 -1.2536063951949186 0.593307765498333
Ni 5.186396975678411 4.62170586174135 11.389284616231757 0.0034108254537618676 -0.23226497495013548 -0.16580195823089508
Ni 5.661833298565896 7.7397551828038225 12.349866984475284 -0.537008576685972 0.5664682767079857 -0.5654503769664327
Ni 1.862506204261331 6.395208519966614 0.40423169145139287 0.24728304562552247 0.17397703784251972 -0.22218959299200444
Ni 2.828175386724826 1.6926197099473033 0.3572210575127343 -0.551266886377199 -1.1946180895861682 0.21218620192238938
Ni 0.528560286387024 -0.05030732743736313 4.66329857642438 0.25115384143483843 -0.08034748801081647 1.3445234311914651
Ni 8.511346565366715 2.512503973321377 1.3507757445650266 0.017683790433008256 -1.0275647754466755 0.6812690613006654
Ni 6.772749017947004 0.5909246825620282 4.6771673011701544 -0.34197728927631427 1.4054598616655214 -0.3696400452989053
Ni 0.9099645737537558 7.273749520959174 2.409252143108411 -0.578237758539088 -0.0362695238549956 0.685837140287322
Ni 7.313060392537357 3.7813989679833577 3.857224713060802 1.5248156126187353 -0.07041968737414324 -0.8526019766521188
Ni 7.406990135445468 3.835174373910784 12.682341305460863 0.24994979382440824 -0.21227721897429894 -0.7365688623142347
Ni 7.95760255558975 8.800798767003112 6.747273670880666 -0.1351017009335609 -0.014136953622014364 0.42319560992785826
Ni 6.807026016218782 0.6475301841059258 0.49611378749939267 -0.29627618769477365 -0.19489373339052887 -0.48762411271557315
Ni 1.9163354484059385 6.59216666448639 9.087236925781003 0.13784969599234323 -0.7745995918347112 0.3153740848664891
Ni 0.04908430260373919 4.855677780572928 1.3578285510157118 -0.2623926475734513 0.3460910543343717 0.41278649877939233
Ni 6.312100258711846 1.9694199305462115 6.963810083078243 0.547089872181374 0.39434114759001115 -0.43455448658410323
Ni 3.348539701849692 4.237157422491259 0.560200109320563 0.6467077783860281 1.1892689094591131 -1.037010751350924
Ni 5.954228656074844 5.57434619564709 4.773497331260908 -0.10235021753415276 0.37176583339265656 -0.034680839211637046
Ni 5.3712415213325055 2.789295220884088 9.334241282384815 -1.1740281812499584 0.4910714478342253 -0.6297958331220379
P 0.1723154952125016 5.602315149472517 12.388793810104247 -0.3366023981176461 -0.25101680163634194 -0.31033600822194946
P 3.9515008151661086 6.142249656542606 12.508815347665413 -0.20549027795945257 -1.042771565094101 -0.01076906559104597
P 2.4465072920939077 8.475292905927969 1.3823078910642037 0.3245539515935443 0.0024713443586280017 0.3708698039409484
P 6.420718861874119 7.753403170859156 5.639496719561201 -2.0066300606310667 -1.3628268574863434 0.6968126654622192
P 4.617560319018427 0.9822423803189855 12.430805565577668 0.8903321442130409 0.35260622974507017 0.5218025583694949
P 4.0824802245308085 6.151671344549246 8.07452929296664 -0.08583139394352315 -0.3081379721293661 0.5535723945819241
P 4.531733227796029 1.1303782348919682 3.6970820387528804 0.7171390357243972 0.1108896224637316 0.7768318235993396
P 0.12515321696211715 5.456610987708867 3.6050465037859154 0.2361594249085352 -1.305058026106991 -1.4138863951663199
Ni 1.3001570527716344 0.8525236825399362 2.730457227934427 0.5224090816052422 1.5992112539214909 -1.5845821911544065
Ni 1.6888689808170405 6.366225613050949 4.763293194497908 1.6706514121403484 0.9816950094977543 -0.5446154424989523
Ni 6.2594913474900045 5.617129632233436 9.214665704722629 -1.8115545502470347 0.04621789331695911 -1.0508975366353448
Ni 8.408183568212097 2.2275741819281674 10.117069598176961 1.1204258225434702 -0.4853276033719125 0.021219057279776358
Ni 2.426192338144351 5.316209890337527 6.8524430389288895 -0.8331222706609523 -0.48616141212711755 1.3478270416434013
Ni 0.6849899183167096 -0.1760976299694531 9.01788163710507 0.5493676124719571 1.3537464924516298 0.25501898081719954
Ni 1.5811746003830387 1.198923258399329 11.25285947119922 -0.6400362799031235 -0.028175691103267602 0.4833748505209159
Ni 4.019659998117007 6.843456543177794 1.525234000821324 0.09168425317987436 0.1281131854308697 0.25694910796037684
Ni 5.704015541727057 7.694279835358436 7.814260096953097 -0.6862510878962891 0.5646566774205437 0.18504615117248777
Ni 5.271569035258444 2.926717270238091 4.791266634841434 -0.41144566848078173 -0.5401064988850053 0.26332133003530783
Ni 0.7401606313727387 7.317125177934509 6.832546228466104 0.6244481956568795 -0.15927726973849987 0.2211845487662578
Ni 5.153986368935567 4.327596654318813 7.3261870471896575 -0.29942861728082626 0.6783279763944705 -0.6543758364542472
Ni 8.134191907942787 7.127318543263584 8.993519843830757 0.256959392373022 0.056113040943484 0.13041432276022055
Ni 4.685916908765655 0.22694962070396205 10.396880272419896 -0.5037179329536421 -0.040179914652995315 -0.6687259345283322
Ni 8.1307911272242 7.010821614320521 4.613826638656939 -0.048088885087426855 0.5782423865247783 0.36327296543029697
Ni 7.364718161922339 6.135205823128117 6.906983844843904 -0.2854389878699536 -0.5773430146389605 -0.3428823175890869
Ni 2.2060119759472556 5.1065907917440665 2.578627174359221 -0.16116445945888375 -0.14342796141106912 0.3951975820530355
Ni 2.2137557061850943 5.320068295902151 11.334375018529053 0.7202914653104497 -0.8726786927973358 -0.29237839530226417
Ni 0.9535286644892232 3.1660550647153562 3.8849092216387913 -0.3180562596843426 0.8592032840187203 -1.0233962458912826
Ni 3.4308673089553383 2.755637362109889 2.629333801907342 -0.32808690444746724 -0.9736194315784716 0.16593205605085617
Ni 1.1184889619312073 3.382825673157667 8.187131026896672 -0.3987683301234294 0.08450059094724156 -0.15274589637788533
Ni 3.7174212199001686 2.4745839223536974 6.8618198617545465 -0.4826875946459042 0.8097650839922506 0.3440498555346268
Ni 4.151635414499552 6.675095465017222 5.895865336739993 0.10512983716181896 1.3813382860269694 -0.12462291288942408
Ni 0.9164341328516492 7.394221504937421 11.367194795722474 -0.1053712637486637 0.5230042919870799 -0.10096490715085192
P 0.268986500678734 5.48195981496483 8.011608568547434 0.42222578981542125 0.12108353227759791 -0.14536297365025289
P 8.427116674587346 1.499986568874386 7.972525612088648 0.41514162927513026 1.0700054611093894 0.3216043820469171
P 1.8680066754499698 3.277850122691296 10.374698926941404 -0.4882730591534816 -0.34020605630850437 -0.02148696622918235
P 3.8608282843974373 6.16232233851485 3.7080605485396663 -0.4520377309705311 0.24001787942267697 0.7112956895697427
P 6.9726951835203135 3.8495402048618623 10.314431529325592 -0.6205236637914927 0.5281737520031613 0.8098044218706182
P 6.34375713041416 7.64406672480114 10.151491062331509 -0.6321568771550468 0.31168249494751477 -0.37160899609981807
P 2.4281125678904663 8.331742272851551 5.736575998174387 -0.6255254878814582 0.7770912479083133 0.4112029563423563
P 6.61362119403294 4.007142612622469 1.6768540853495244 1.2263717278486814 -0.4471256383808945 0.02056959662123554
Ni 5.198304194711565 2.7457401031848176 0.4901870970914058 0.08764505011349422 0.22958125747038524 -0.24499579225324258
Ni 1.4022971237998167 1.2131186016626676 6.972320110607288 0.6239761411164673 -0.6781042904194386 -0.16492058406720628
Ni 6.712324592197748 0.6909426305296673 9.056479152305608 0.6002332889735726 -0.8773030789432246 0.4972459520760533
Ni 2.8423258648071803 1.6971421201904908 9.124035347224082 0.29816132053262845 -0.6678450745852758 0.12224001447954431
Ni 6.266418531433934 1.9098389701994547 2.5198448142339798 0.6298907068286893 0.4295269514625248 0.7746556418836271
Ni 4.22831898183741 6.687792311235695 10.327918900033001 -0.31466266062176135 0.4400160239193067 -0.38402099661092576
Ni 8.039634052500901 7.291587916918414 0.301506578463179 0.5238216456820527 -0.09981253871396359 -0.1123456381839678
Ni 7.535017415901421 3.94670024080082 8.122950488195436 1.2393743107559365 -1.2288764965484062 0.06848518935559172
Ni 3.1505047929863004 8.223446698992364 12.405655939725275 0.09072291770786955 0.5913935791947557 -0.19827756226109722
Ni 9.003723980593758 4.687074430435043 10.154498824064675 0.7722475466627667 0.2561631217239717 0.10169818577245067
Ni 8.500004647613958 2.187985146227883 5.760320446558361 -0.08792221503428084 0.7746178466671563 -0.3078888322330375
Ni 3.712503996064322 2.867360635796254 11.53792296083176 -0.4768262507691207 -0.47864016404940796 -0.7717762634533031
Ni 0.9015927309821408 3.4590516156494893 12.488761509069183 0.22380733110108553 -0.5559192975475459 -0.7941111795050775
Ni 3.043465444194665 8.346341402743747 7.856443237417877 0.8294851881289973 0.15694605050216195 0.06574747870945451
Ni 5.427161482910968 7.819112714928327 3.510462626539059 0.4147050559583439 -0.14555709193892996 0.4737542967120163
Ni 3.0858361211159577 8.36111102032368 3.6226964659850225 -0.31479121577982555 -0.4738232022767388 -0.0375555896562708
Ni 3.323397254426256 4.293059437997327 9.076204577777036 0.6669824694746642 0.18819189589032104 0.3533253672992818
Ni 7.272995785918643 6.027197386427227 11.256431636909165 0.8086533389853104 0.14893115061748544 1.6300606352021796
Ni 0.7220018980212731 9.190991246020989 0.41775674891083053 -1.109519717153928 -0.2888626688395219 -0.7897770709060978
Ni 4.58715069934747 0.3972506692902819 1.6291157381753054 -0.6798266724271841 -0.6037091633373152 -0.5167829936677164
Ni 5.935941608305764 5.583265393626709 0.38680336324634684 -0.546806279502684 0.47490100872194985 0.11654399253603154
Ni 7.9997040414251375 8.691372590583127 11.018252261404909 -0.036764975434175395 1.0518190200083497 0.8296967899191711
Ni 9.147113099018634 4.799973171863189 5.7696308689161615 -0.80108632527133 -0.800692175156705 0.49944424527895276
Ni 7.915653611369707 8.61527227059806 2.6004810040165287 -0.48781051769476635 0.10983804127076567 -0.4528833668002781
P 8.349096124856164 1.5821795804370804 3.4767105508847926 -0.367955972728263 0.5966324589961918 0.5278181684359554
P 1.6959038411953324 3.1845484923169622 1.3897940951631946 -1.0058728922955387 0.2598040609106687 1.3924163982180018
P 4.7733053082862975 0.9698057521502197 8.149899207805285 -0.8560562537493063 -0.0641942752897217 -0.16584798097748213
P 8.311220939069468 1.5512495246667084 12.387454135800064 0.7740447477725055 0.4319314471389593 -0.8035211599650678
P 6.12759668843323 7.646606094044834 1.3914487230378847 0.873510701780328 0.6537533723788999 0.127803881720567
P 1.8002243600193373 3.2820943688123827 5.994730249556344 -0.5337232210664808 -0.8780929218343716 0.5156617355790797
P 6.912001566685154 4.007860455518213 6.045764392925648 -0.25407538595700757 -0.27679725303455555 -0.8964994493660173
P 2.5651218575794164 8.45150538697025 10.218469393718907 -0.7264243176810651 0.20311329308684373 -0.6147026862343413
