# total energy = -340862.8144292743 ev
CRYSTAL
PRIMVEC
9.28505493809678 0.00000000000000 0.00000000000000

0.00000000000000 9.28505493809678 0.00000000000000

0.00000000000000 0.00000000000000 13.58961644964219

PRIMCOORD
 96 1
Ni 2.8181441693575855 5.998684033576122 11.197219171422361 -0.6569973332374943 -1.7054870317622952 0.8004072969264344
Ni 8.669381530261612 5.360884323719766 12.962469678164798 1.2466762437339884 0.17793216583552582 0.13949905867030812
Ni 8.502064839987609 0.77406717636364 4.76079586455974 0.35144177712332375 0.15413454919529584 -0.38453830256697646
Ni 2.8277634862900975 5.8044685390999105 8.267283868922158 0.3543628074248607 0.3869217151974885 2.1773199430818826
Ni 2.975005887753202 1.7608921019469528 10.950540330938649 -1.1738785430459717 0.3310927811533266 0.017143858769138216
Ni 7.490903785369437 5.274412606931653 11.013079818582408 2.4138308377925655 1.1195645029844397 0.2807464674902907
Ni 4.231348103490981 9.25844398666357 4.938058705700642 1.686882015066598 0.03973665646798962 1.764726791260219
Ni 0.40137714107500977 2.5437058000774133 0.5516706115960516 1.000214922678813 0.6649474413225064 -0.18525029676349386
Ni 3.580716447687973 4.132657254383191 4.787567463509077 1.2688579220373501 -2.3904314850320185 0.4180212648157704
Ni 4.893688213591187 3.951004439259961 1.1733941773047707 0.5171414054483997 2.2157857032572483 1.3325672872708534
Ni 3.916343329116074 1.9907064971174213 3.6327758938049692 -1.076668989172494 -0.6391183960745446 1.694291677267108
Ni 2.1947920050099063 0.49250531292263466 6.4736990884816015 -0.9444975745118508 -3.028338120186649 1.1341699116024404
Ni 8.622724129116946 4.648562762801305 8.768360216072981 2.8698746045986963 -0.39132395803024217 -0.2749103204244878
Ni 8.273624632950357 8.27225044481714 10.035524163359835 -0.7095164861821329 -0.7970080414368984 -0.11945242443207817
Ni 9.233337198067515 6.150875369329794 3.757080495509311 -0.22534896455659253 0.043601538740034584 -0.28267788018504864
Ni 4.390298959251283 2.8636502236879346 12.743703569884286 -1.477815846830429 -0.6960418487344657 1.265382304783924
Ni 8.48587170414755 0.943166597188842 1.6659914122714516 -0.3253293963069881 0.08124685989663427 -0.16392916668821444
Ni 0.8228332134883953 0.40841892675224634 10.219839932243918 1.2694582746255103 -0.5602837451638286 -0.1161228458382129
Ni 2.7463521244520033 8.878889510247328 3.3631174708152 -1.7914598363796888 -0.28618795022083615 -0.5142021203144177
Ni 5.058590789577107 5.368507353837134 7.973082260172053 -0.7076532077211489 0.5814835191698953 -0.26244638362952216
Ni 3.47041927988748 7.4871154829481394 1.6774482415793923 0.2916867685518783 -0.21033346498436678 0.09237408015804736
Ni 7.845982856926508 2.1486174267228577 12.502283784526611 0.8106132909251589 1.007705060408271 -1.85294185494457
Ni 5.183799755633984 0.04840856250902004 2.498328808010927 -1.2013009009229827 -1.094787810260392 1.6562115825659347
Ni 4.273446542653152 0.3234439608227448 13.809904573259741 0.3100285042838596 0.9927206711842969 0.2016480213952269
P 8.362779730620222 3.266157355950866 10.616588473424278 -0.30440344478759834 0.3177356431201302 2.179404593525053
P 3.468766540105639 1.9452654381717513 5.83509622137171 1.8897243138802422 2.180074108788252 0.48514608348872573
P 5.521534344536681 5.236343881619589 10.52120310388017 -2.11956242455644 -0.9117309216037911 -0.23780158849764854
P 4.587745652851543 2.003622008558661 1.7801446633944078 0.3501407989237131 -1.489690229670512 -3.1889809028141074
P 4.699741985708647 1.6600285499798888 9.373560097985274 1.0105332738856856 -0.37324961702703463 0.5502405019952137
P 9.00879671411101 6.514998084412219 8.19640083089659 0.35921782152431686 3.1126397077492074 -0.5555616570978109
P 1.7389700872001759 4.013557854486152 9.2684040651129 -3.5669698342983405 0.6810716005778787 -0.2869050308925188
P 1.381207634761352 7.094691920365428 2.2185459610991396 -0.6564730853029082 0.20319762527053392 -0.5730143053566197
Ni 1.540511322609913 6.5938003458081935 13.591247100122194 -0.42928141111062196 0.6329582900104196 -0.0007988417522115274
Ni 4.675498707223329 5.911497367556539 3.112932593580795 0.09929806097139028 0.21806965728635994 -0.10126109823503204
Ni 7.385806248343275 7.492120127568432 4.412819860042603 -0.257289264908615 0.6307543403805653 -0.04071958920654922
Ni 2.581217422092229 3.7544769661001642 7.23239392786313 -0.5219989906510171 2.1395640644893477 -3.355631067977911
Ni 8.590941386008849 7.678044067970577 0.6097718429717216 1.0877005643963074 -0.47986169516133487 0.6299020196825991
Ni 3.726176118599878 6.041460281749948 5.946897568074777 1.2071607021378694 1.945583072721075 1.0251988463176602
Ni 1.6088400420175926 7.746809184961102 8.107945826370267 -1.8006461308646475 1.09075272095907 -0.78465054831281
Ni 6.776688073240327 3.768311697981866 9.34335024318641 -2.8960273517346637 -0.8679602042757439 -2.6024433661600725
Ni 2.3160362526013563 5.784607806552958 3.9617398197979634 0.49695516030851183 3.1554182363673138 -1.7723287719771927
Ni 0.011294340846242899 0.37367239410278064 12.584310745508166 0.49981217014133283 -0.004936260959352789 0.29500323451962096
Ni 1.0276513122167639 3.476825967805852 11.495238794769621 0.19322174500474465 0.40480348057391574 -0.4205975101833789
Ni 4.577959204929855 7.15091292811288 10.634472417771489 2.5566052247800357 -0.718827993391046 -0.19408435011535607
Ni 4.678042812280769 0.2971458996760712 11.271146778967402 0.8008500408908079 -0.3782624968605937 1.5048013742803374
Ni 0.7116660360386976 4.793409620086235 1.8609487826384998 -0.5343024906087185 0.5487340926530163 -0.6151325746829083
Ni 5.836864095834983 8.922594263916569 9.37718869746136 0.6105362135614775 -0.6993711702180149 -0.50370944831321
Ni 6.324199490159141 4.304347205540604 12.774144622551509 -0.2983371839888604 1.2505930622898913 -0.06968743719380902
Ni 1.9132319985798918 9.130858046538426 0.5272388464951646 -0.8495863297542465 0.4766997524935855 0.24049533327972777
Ni 2.8559900533507503 2.1337799089061065 8.488509588260028 -1.4635711639859568 -3.645599311176786 0.5790160314660093
Ni 5.848377563978144 3.1194070624003323 4.884733706593393 -0.16983756175284945 0.3726240676278938 1.620801064277125
Ni 6.28984478682874 7.2179881651017475 6.51514757379698 -0.9774557746054263 -0.638875683936119 -0.027665584236068484
Ni 3.61354840200589 3.884588441172839 9.754368056820327 4.013772027901545 1.3353253096319646 1.5460840350792084
Ni 1.2604276399176102 2.2743834960769846 5.414198180761071 0.4029579427247447 -0.7221148916724338 -1.713644370762107
Ni 7.538591827614014 1.9716999896262513 6.598452158340229 -0.27318356754136824 -0.31294182127591263 0.47056278635791216
Ni 8.210161282338657 3.0355908713291098 4.363136459488377 1.2979856926412419 1.109557512370399 -0.37425517547341347
P 3.0831396377493747 4.615340836175313 2.220244197650256 -0.20598830064179366 -0.0652877654642166 0.2977162625754099
P 5.737291166506547 5.698786043611637 5.079757929356111 -0.0013488007184105804 -1.1125860147840776 -0.39347802825876754
P 6.37258391152528 7.276168319444528 2.549466248170976 -0.1340030685527434 -0.5830542060911249 -1.022817233459361
P 2.056583962017202 7.698313342935512 5.42694563270764 1.3420207193742695 0.8638796064484671 -0.6879187054066991
P 8.172361823620264 3.4236783132482276 2.121815187092173 0.045688760286366474 0.029486182384575024 0.051115073508260354
P 2.6382183744558305 8.393373986694186 11.462855308605988 -0.7056999406495201 0.6693229446823827 -0.18067244758482431
P 3.96581410191185 5.153149789230295 13.262596080481154 3.148850610452125 2.609493588138635 -2.454808822866824
P 6.47796928525502 0.5297690239701738 5.252060694140498 -1.0290385317787245 -0.648227043244032 0.030807729409475973
Ni 5.5743198819510935 6.509324915835226 0.44861485815430996 0.04031592601022734 -0.44823429806404097 0.7371255061486531
Ni 9.296939824503525 8.628545858573206 3.145384789151087 0.5875821758684655 -1.4934607524565378 -0.3028939501216074
Ni 6.727235870554459 6.276446452529885 8.940119805142551 2.1111739433824286 2.7274516874133736 0.39437842858584976
Ni 0.006130921786233299 8.11738501323667 5.8200795019943445 0.14905996288586587 -0.2614547091402142 1.1367677542366035
Ni 9.394618602621312 3.5376059375357976 6.710947098648372 -0.8292098229804236 0.9943677198694164 1.2738016391958706
Ni 0.13263886703119784 2.3590724823138984 9.05189422518625 1.4742119315292546 -0.3645672587616883 -1.4802434824353152
Ni 4.576102193939023 0.7014014077868712 7.499402396168982 0.4898789701880208 -0.8693444862177802 -1.3651315943601199
Ni 6.679380697320707 2.584114359237927 0.6719547845052413 -0.21443951673294037 -0.7090994532493723 0.9043359146913006
Ni 1.43559020162788 5.920541011081893 6.455516165364865 -1.280624318544659 -0.25155390508673453 -0.16538286841560548
Ni 6.403568139907319 2.0358225791396953 2.877369820888205 1.334551664690734 0.07735549526202806 1.501646887811756
Ni 2.2721365127780775 4.356046391525379 0.1241699684075065 -2.6415796700399023 -1.9427548592436605 0.3395781929165184
Ni 1.8475123796143318 3.210632727324976 3.296854676134821 -0.5599569579520292 -0.5298300566596618 -1.1881659062029215
Ni 5.02948214229581 3.2911527238874707 7.371945518307701 0.04152434449603171 -2.6548064531428217 -0.8151134927883575
Ni 3.334913187886437 8.46797940325088 9.42348862399029 -1.2474802276925225 2.2435366481182717 -1.1996875336892758
Ni 6.61228689022193 8.715258986790127 0.8836568229766256 -0.06424004092599259 -0.053123619297856896 -0.7794720894356639
Ni 8.414813178583348 5.565777631393264 5.898396155016216 -1.9456172683931203 0.147646627478107 0.7443690750849439
Ni 7.479761719424443 5.571032972497319 1.3347173646058619 0.8371514464250035 -0.18886269670510056 -0.1807020152711791
Ni 7.192333558263398 9.105992669371181 7.390169295666237 1.195123054247045 0.18000781741763194 0.6662111385262784
Ni 0.7090188668712658 6.459445600621467 10.363645006362992 -0.7196687441247864 -0.21760685871732846 -0.44643092630671505
Ni 5.574552008324947 2.792118160321069 10.889985059538594 0.024782092040686352 -0.3853857381689363 1.0541391835010943
Ni 3.7403729676247917 7.426094101789385 12.988969225003977 -0.013631474740505556 0.12621185464309875 -1.0043302303987671
Ni 6.394478071107193 7.69694843985725 12.02846835872121 0.8965781251227527 0.6417368075339981 0.19514441594875423
Ni 6.781683432805666 4.79130191261164 3.31775533483664 -0.060841556767404895 -0.09439393880155356 1.1587632846710882
Ni 7.443410729278898 1.4285335598627167 10.116150938054304 -0.2780162130433212 -1.667159082716374 -0.13752316589085992
P 0.43849600526526394 0.4576687152401135 7.805604009941848 -0.9895998661671279 -0.06271511964103393 0.6882058976298148
P 7.1488330758031475 3.9618772386112853 7.090260163635807 -0.07490574816995488 1.0822935344481233 -0.24177265733025463
P 1.1403625943053388 4.446185705020386 4.883591644834031 -2.5972219698601333 -1.1444072730597323 1.770129450333029
P 9.14085805072406 7.58141450106261 12.143721888856234 -0.6012959259101321 -1.196030910773295 -1.081623762074608
P 1.1730274176340814 1.160362602676604 3.03015818567543 -0.39097403088999116 -0.11047361797223555 0.03389151054112228
P 4.533901619172355 7.615824914722735 7.821299466836363 0.32282822715168913 -0.2603275375143065 0.12226109752546686
P 2.264977735408418 2.288988887519882 12.923902345401695 -0.6647841762717647 -1.4985271112358514 0.3630598209782263
P 6.3342552046744975 0.6644041778165166 12.74124395882693 -0.6493030499170301 -0.13978162290773347 -0.8611002439311171
