# total energy = -340871.6239477229 ev
CRYSTAL
PRIMVEC
9.27646516677094 0.00000000000000 0.00000000000000

0.00000000000000 9.27646516677094 0.00000000000000

0.00000000000000 0.00000000000000 13.57704445103892

PRIMCOORD
 96 1
Ni 8.531917687817282 9.037540708168914 9.14420707263916 0.5507855758654062 -0.6865007420132498 -1.6152567374201277
Ni 6.01540744421162 8.556073603587944 8.8724762113826 -0.6686264328359904 0.9486159675555984 -0.9122163458806418
Ni 5.500090517569535 2.3916397435331325 10.013545457008606 -2.449780259303981 -1.877829362214869 -0.39637051931521416
Ni 2.377428198617367 5.607317180546905 11.828185345203249 0.18296767137690423 0.1357395916278759 -1.6933575954886129
Ni 4.776618984945168 4.582128612423019 11.119708291170165 -0.8858363132252163 0.28658312877672576 2.1900988400141057
Ni 1.0521923587569102 3.1328849837675556 1.5725065172828872 -1.9707408029336253 1.3039997600458058 -0.13750696794094383
Ni 3.9637223263495374 8.760730982133383 0.8687790135088564 0.19730851347960857 -0.8661200657432117 -0.3789633795823602
Ni 3.5967175277187153 7.751488657945658 8.42363258014351 0.35924121856308455 1.199310095745199 1.8787852983702353
Ni 6.080101513560542 3.5632665936676386 2.638725819295103 0.07525284709672846 -0.5677306883601771 0.6496982284729198
Ni 8.952716709011108 1.9436792317953369 4.087383175340465 -0.38728912583923625 0.23995848693965124 0.047574407344853555
Ni 0.34116334910611773 7.207312647600606 7.7191202874008935 0.15858615720874622 0.9343306612811779 1.5066692807270115
Ni 7.233129050668866 6.51125307008465 9.041116785561229 -0.06012524742667064 0.6409104549779607 1.0671777618526073
Ni 6.130398508686702 1.5611549066344395 4.693977738084151 3.1125967703264132 0.76619979780679 -0.6170493320896471
Ni 4.802880658350215 1.6051717347188428 12.353848313649873 -1.6559734984131997 1.62982486504229 1.57456363057614
Ni 0.4884569212219816 1.5089562361115865 7.603701577873189 -1.4651230818541092 0.03487084373525608 0.09559515819850632
Ni 5.077083697622476 7.166551858853953 10.519915232820889 -0.3197804414643009 -0.52875096466287 0.22815712342934902
Ni 3.1710947445430366 3.6019494541759554 13.30660345738357 0.10986220964048177 0.18815872865954048 -0.1395075433107404
Ni 4.103036282971575 4.138509486468891 8.925956889416783 -0.6842710813517828 -0.08256120783268361 -1.821781884401998
Ni 5.253995168306914 8.759135430093231 6.412465207635917 -1.1657304600175407 1.5098839310095675 1.0005018577916125
Ni 8.029328071635009 5.69932116388539 6.796844825866759 0.4107697254596797 0.26027225879633886 -0.42536459255471903
Ni 2.6808799331372835 5.852336459828959 4.386702244547083 0.41584354043816124 1.102351995760895 -0.1670126907095446
Ni 0.49114987911300423 4.026431232113619 6.442321511363979 -2.0477247737888473 0.0010929759538626338 1.0159655006448503
Ni 0.5134699823909564 7.251348028615709 4.628305929287371 0.36662054174629116 0.9707115139030572 0.7494444327253222
Ni 3.2083304764567977 0.6173014590503298 10.311969347308974 1.5065546095260183 -1.0854081688177049 0.6097502273250724
P 4.271738081821515 1.0627118704634884 5.156316771114008 -2.799731310814391 -0.8122431132190978 0.20923431838291706
P 3.5687026023625728 6.966402842468476 2.4995064826196325 0.6067039842995811 -0.5731428605146839 0.3104648204903298
P 7.143703924697602 7.104956128931838 13.29663775065837 -0.6262978472711085 -0.16472980821263886 1.2760207583343768
P 3.767450872480242 3.0041461976441943 2.0275412614963764 0.650424308005667 0.46650070047339653 -0.9032681355484186
P 7.507322813475778 7.932147820631381 7.383604450399683 -0.606872134446329 0.36770323328750865 0.8169652012851156
P 6.272393363794809 0.39940563680431096 2.0641860825673604 1.8384194929586792 -0.688518543774227 -0.7245975488849715
P 1.3997722389454266 6.1643503718666635 6.266865518092912 1.4721146826805938 -1.7331544157705763 -0.0757171883276567
P 1.502991468891719 8.66864351060675 0.9121056725712409 -0.5521145790894749 -0.07456661966298125 1.5787234183807841
Ni 1.1154856818380239 1.4037332896497556 9.990858005702803 -2.1193639353923888 -0.5804998151003873 1.0204250790781006
Ni 0.07354288964601509 6.670427939020431 12.71414251724671 0.2058754292130132 -0.6935694759345732 0.13882414409047059
Ni 2.616436328352805 1.4656722487898106 0.9497124630989904 -0.19118388863910946 -0.8903876800413246 -2.5079201008695065
Ni 4.000206664569972 3.144582606573547 4.250972714136174 -0.1141549234785647 0.9795951895459323 0.7258658740744338
Ni 8.480090075908418 4.60855726220436 8.942153597917388 -0.3475280438912144 1.0027214911507505 0.34912444184405683
Ni 5.82844956155344 7.391255679020129 2.071938424660118 0.0882168634565642 0.689723876936238 -1.3863717346858189
Ni 5.087556827002306 8.406240135259328 4.018465531317818 0.5896426579419201 -0.46230645988639096 0.5112471514511517
Ni 5.898273516240753 0.2162446114137694 11.085643255112936 1.601486423108913 -0.3826503415156442 -1.8016339486992132
Ni 2.7995073720294545 8.93311553772716 4.114618877607231 3.8262982411241717 -2.036512707123112 -0.4235563357013867
Ni 0.3519787800573519 2.493281974369973 12.93057358561401 -1.0696863872070737 -0.3538182477753003 0.7623750247440613
Ni 4.539800101032264 6.486169507779018 12.986972639647215 2.5067229952376118 0.8414158781283121 -1.5627098165613473
Ni 6.8168940504271 3.8480726328346258 7.41886336754742 -0.123962910707922 -0.3497769878263912 -0.8309514882618786
Ni 7.504799614900655 2.544181939743866 0.9395463847222364 -0.03133711955038474 -0.6437368686831623 0.2225616316194425
Ni 3.8292135787786523 6.701114486397292 6.516248446675473 -0.810961418293197 -0.9691359418858213 -2.7550995310376294
Ni 1.2426567453172832 7.889262721319644 10.588275361276018 -1.2058836351976585 -0.7121711501961605 -2.9659487593161504
Ni 7.172655773054066 2.639562556469648 11.733282466442978 0.46114534969875415 -0.7939695117208907 0.8579323877260966
Ni 5.322501864914569 5.834432881704007 3.8225762678209305 -0.5163988708554204 -0.6039981553326437 0.29617540045085117
Ni 0.7948511505508281 4.361608478129565 4.150910265348391 -0.0519347411960783 -0.16574307996850166 -0.680482817953944
Ni 0.04000104623451125 9.263033027889815 12.988873387397371 -1.1502197659764513 0.9145606777431023 -1.229944018580972
Ni 4.498556936087425 1.1708012447183815 2.7892142060774097 -0.4397920808339587 -0.017852197690072482 0.24403985609787648
Ni 2.531222717650312 2.545536303684924 7.986275995946975 0.7270858625244639 -0.25317498562992524 0.45697579170209685
Ni 2.616120928530915 4.702203179909746 2.2715076619612375 -0.2999011860418706 0.7167289447701721 1.0854197387819307
Ni 2.6930506556761116 6.181363409318043 0.4370179932112703 -1.547347218062348 1.139626049621005 2.245538251929333
Ni 7.932973426047506 4.42224873212066 13.181463939815897 1.101805636339122 0.5063402010678377 0.5435674608504122
P 2.1144125765568638 1.8815825727443365 12.082035819498234 1.8078069102791448 -0.6877456701639445 0.22499312387907056
P 3.2921711702875327 6.03273588148489 9.716873891012796 0.6915280200245123 -0.07648080596655861 1.284655551191239
P 6.160880973825869 4.2937696870270905 9.557262100559043 2.4205861542385283 1.6561817577692637 -0.7861132489012654
P 5.822679600105916 3.577181291692213 13.141072354390165 -1.0674212453219811 0.47116211050480794 0.64224074375361
P 1.0275911726494629 0.21629841491279778 4.3614489229255495 -4.973871570616711 1.6275630655913065 1.059801266882878
P 9.025314326837988 6.152244584585284 10.416376892466566 0.4851188297952161 0.7664957317806541 0.4933810698040083
P 5.203642514388655 4.905701000286469 5.815686072878766 -0.4875822037340442 -0.5644116512892732 -0.4945141549671871
P 7.835032504885202 2.385044176669484 5.924451701457653 0.2674638914487716 -0.05864737732956351 1.421685065275132
Ni 6.802367105689444 0.1105021828923544 13.319501454805815 -0.101650877474283 -0.05986299490421948 1.2763442031120664
Ni 6.797107349836155 1.4199299981503601 7.763272551879402 -0.5678523015397059 -1.2625466351073418 -1.6865850526514694
Ni 2.196555677228601 8.413763348657946 6.60489249426429 -0.6065630878463424 0.5253313974583598 -1.4981784696471812
Ni 7.59416908207982 5.881668643264762 1.5679174498743826 0.058185607201796566 -1.6355622817466993 -0.14022076732768107
Ni 2.7293587410549005 4.273426398515163 6.422376183215555 1.881743866777927 0.8025256288210179 -0.6087048167796937
Ni 6.616707928180224 7.158518439861099 5.680255244652118 -0.02611932279487115 -1.1593638943695646 -2.353787094336108
Ni 4.819225790296414 4.967918253387016 1.316514107138654 0.4019441567482497 0.09365114709825807 -0.8423077938149623
Ni 8.738430359432664 9.107754274400916 6.108557071020796 0.28919614091954066 0.9927512673119161 -0.5067477209189015
Ni 7.736785460366358 2.4223355673753435 9.493680279405554 2.0211223407099705 0.20352492670296563 -0.14702210652023068
Ni 1.6075465098483703 2.1639303485936487 5.6695158807167525 1.1826884280281178 -1.1940115663504212 -1.1965731564300102
Ni 9.127707951368155 0.9404016748274803 1.7854904511262313 1.0363088401878926 1.096867575607556 0.32043915809422235
Ni 5.367604039444888 5.763607068758923 7.776863501263271 1.1164292997895675 0.7216400089185443 0.7528007507920648
Ni 2.693134143864259 3.1713266561767792 10.48226577055253 -0.11123363606671165 0.6473428408668658 0.5816416420143145
Ni 6.88520594126241 5.666269117844351 11.551064857578503 -0.4253602216793449 -0.6692442689256475 -0.6035083601804188
Ni 7.620319437900671 8.880833379016158 3.830477961005819 0.14999790131910296 -0.5647731483937498 -0.8907949427820724
Ni 4.875886440652481 2.6675403759643914 6.658712690930275 -1.210797013338876 -0.25673904883209975 0.20879903061771135
Ni 0.46062566987976306 4.126181064019118 11.248051899869628 -0.8108043238900422 0.7394837219681845 -0.2289271688261541
Ni 8.441240239023806 8.170330344950694 1.3735625137463385 -0.7161782144730247 -1.53870548322695 -0.012309670605288477
Ni 7.298917742929054 4.363936870932344 4.6485768613695715 0.3207389487228282 0.039171270882822865 1.1418724224530206
Ni 2.071972747581912 8.219486334838841 12.502625192575158 2.947619621989659 0.12247681308069874 1.3936950078201094
Ni 7.727351295105697 7.7828987696197975 11.362601404594065 0.25967679130418503 1.938658834797416 -1.4358739551810045
Ni 1.691953068065438 5.21782622990837 8.580895569570714 -0.450563717528166 -0.31318453341433805 -0.1739505554799585
Ni 0.9881012596557209 6.596540892509942 2.420908847004557 0.08938105896799446 0.2925095215634898 -1.3299524753558258
Ni 2.119496079568508 1.7933262814071365 3.0960824627856263 -0.8336403479479514 0.11578731687566511 2.2662124924492324
P 8.166916605702 6.556151162377278 3.4990085181901547 -1.3320445819981641 0.5487281791157453 0.10560934790139877
P 8.117927592190147 0.751538406186468 10.869184357349587 -0.15339741391895517 0.3349414654754554 2.570987975864269
P 0.9050657630173412 4.980376546351685 0.29189047575456517 0.037922486077386304 -0.8795833903369691 0.03067660314825039
P 4.2514133462402866 8.605814010793122 12.038874281519073 -0.6894099452402449 -0.5802144226494845 1.1111104586798155
P 1.7097174992101445 9.156594864467172 8.525447353235856 -0.6897886687359024 -0.6100834422947752 0.9217301989083481
P 4.348899720600454 1.147192640403354 8.444038948619816 1.4421078519058583 0.1750317043592792 -0.4925441757250098
P 0.6767033049172375 3.294805686446852 9.180878795459659 1.9399796104913687 -1.2994350234932588 -0.875982560359588
P 8.391193708462088 3.798675454847387 2.8102170512757016 -0.3499250833684812 -0.6284030665395693 -1.616950837293099
