# total energy = -340890.0944964415 ev
CRYSTAL
PRIMVEC
9.08786136348610 0.00000000000000 0.00000000000000

0.00000000000000 9.08786136348610 0.00000000000000

0.00000000000000 0.00000000000000 13.30100372056352

PRIMCOORD
 96 1
Ni 6.797393090056583 1.5961737831651766 11.465744740784356 -0.7572976102211538 0.9293591762085156 0.9356077282213887
Ni 4.5330524804662975 0.3439846380998708 6.091659771371999 0.6715433493724693 -0.22271692625038417 0.23487670154136966
Ni 2.6731216987654802 1.4744327931784955 4.836537973464897 0.20142999184714985 1.197432933327144 0.051223574061666624
Ni 3.2148400230500482 4.044634462711431 4.904133485820893 0.35987859503676733 0.028285734318570642 -0.5398987537495734
Ni 5.267824242365608 4.887160996055357 2.7040404204833575 -0.11000310609372022 -0.007164636069239274 0.5630075718528949
Ni 7.4082973024248036 6.206982004921863 2.65949535953093 -0.6044840938301267 -1.2835785160769764 -0.6498278120722486
Ni 4.719426340024887 4.5097693798134255 11.610233556393288 0.7077560518476005 -0.0368873599446526 -0.20231445133463222
Ni 5.800436529626687 7.7555808341768975 12.375147027869248 -1.8053281097213487 1.337313543706587 -0.11210986802407788
Ni 1.8643474822930488 6.607229592335525 0.5075261549261114 1.2795136019789837 0.1931754651478415 -0.9397981121536525
Ni 2.684554228281996 1.5604039610848857 0.20115526596448152 0.23813788879114473 0.4601364488182656 1.653962638630758
Ni 0.4240605103803757 -0.05059666779268793 4.905609354496157 1.0394250172193713 0.657788461680222 -0.324837287161918
Ni 8.51825233026993 2.5666755793481917 1.4272904214662747 0.9821128137614634 -0.6348583352466098 0.23608666268907086
Ni 6.956712386522432 0.5826527779421533 4.613652722343864 -1.1840927645748123 0.5808620835358126 1.1900366408630731
Ni 0.5632329271282881 7.536717870467637 2.2276656365244265 0.10305804223445476 -0.22499389521001895 1.0954020468056231
Ni 7.719120334637739 3.86038716269725 3.8959970384186455 -0.6577254696527705 -0.40986546847785543 -0.5474202589375992
Ni 7.511480879635075 3.9452950508314366 12.729619057910343 0.9567378253317848 -0.16731633799289247 -0.18533180073370664
Ni 7.9421818902680075 8.803256748527042 7.080788956863441 -0.20908288040671735 0.3572316443322235 -0.6806622809546019
Ni 7.023390024887039 0.5651713679437672 0.33250394291846036 -0.26481539808233107 0.190211240313195 0.45606973494805975
Ni 1.8005416080995218 6.559263860389444 9.17864994406891 0.43798176709809733 0.07343533427201546 -0.9927260705009353
Ni 9.076228838421784 4.989372172106433 1.3166175377579437 0.6168325880931507 -0.9373743332035082 -0.2976676687256615
Ni 6.415848321200148 1.989214696567235 7.147267571065559 -0.21932178452590614 -0.9433909717112333 0.12990678699618274
Ni 3.5923770450727934 4.548692689765124 0.6332512633071015 0.8381395213698856 -0.05177816101355599 -0.9485496330940375
Ni 6.275413600517542 5.582909481528658 5.072191669713674 -0.6292255624408647 1.0809938418000933 -0.5703303307665532
Ni 5.619597177600338 2.5836789678421512 9.62898255268402 0.6303673893547918 0.21500515942842324 0.2817214298090503
P 0.17386260090565792 5.823646927389152 12.57814712967781 0.5592743300627078 -1.1326349630151527 -0.7877806093013594
P 3.8632498390070293 6.288463769345615 12.662023545554344 -0.008492610852043439 0.8462989172522263 -0.8736192023337342
P 2.291077097537495 8.687168408269514 1.5730033719924355 0.7738686272059575 0.43805195821440035 -0.5115047759879127
P 6.365201670170304 7.804709812369491 5.89811740681927 -0.4862753119971625 -0.2795622173742024 0.7358885484177584
P 4.923103487500364 0.750262021486671 12.82018595727659 -0.07677853971263551 0.11804525967190638 -0.4084179373980514
P 3.9561096057794916 5.848193240762847 8.163357714678343 -1.1566662929327434 0.7803956296911979 0.2862224030031974
P 4.832161259462389 1.300554742908626 4.0140438127865155 -0.37321336447246045 -0.1444422616081964 -0.9937807370176949
P 0.31292778089021983 5.708403758232605 3.393830904087797 -0.09938599269950625 0.7997902321677258 0.5098577273027929
Ni 1.880951004889769 1.6481018226384447 2.634941775868194 -1.141251758149886 -0.8873440081189944 -0.3669126190654132
Ni 1.8496524105695145 6.560208997964736 4.739705902517816 0.776832852040604 0.9196257509708357 -0.7900547500475168
Ni 5.7681110069794315 5.40750467056024 9.43542564755321 0.5671246793450619 0.6164430659642157 0.488851557364771
Ni 8.56458224718185 2.256652278929735 10.090686802144928 0.808364346989982 0.5561260142417133 0.7201284573700242
Ni 2.0883541754986106 5.4262165769787645 6.831794280224961 0.6298860788429991 -1.6301945896768828 1.28011086924335
Ni 0.6709013638905458 -0.026315719968978253 8.928258463148483 -0.7775900419216027 -0.1490404225018401 0.3775814116331691
Ni 1.4831844036112496 1.1784320627473077 11.316321216489044 -1.4926647389178036 0.5654439492085295 0.9394965217528336
Ni 4.006892574728848 7.094902405463719 2.080423198941326 -0.28570021195114026 -1.7080252248031165 -1.6170729646932605
Ni 5.379086928272366 7.552912439305818 8.152305057764204 0.09049768907094091 1.1860205777251447 -0.40120882124412194
Ni 5.542386707988003 3.09199940184596 5.1318334858591355 -0.6905800542889462 -0.4305049991050779 -1.2320209557146589
Ni 0.6376915923387148 7.294335521711682 6.886594992655439 0.2453955987948225 1.1446690113615512 0.013846933185421314
Ni 5.316780551193484 4.373578690358334 7.193063121732989 -0.3163485329646165 0.496909394672241 0.09397639164816074
Ni 8.392467242004352 7.097674203160489 9.52201569881419 -0.3944997846550625 0.6002556575710759 -0.8143735292985395
Ni 4.816775510279988 0.2870046565294399 10.426590513976052 0.16947066533173394 -0.4242700739389596 -0.40142556524061834
Ni 8.023136558736308 7.420993044662143 4.470839708358816 0.18564624665033191 -0.5566844578483444 1.1226706527135892
Ni 7.283393736705414 6.271333150793443 7.441059951200631 -0.25984339878903634 -0.5519374300816623 -1.2921469744722778
Ni 2.458693611371053 5.25627357065218 2.593828291342982 -0.42315344383601317 0.312760558503042 0.581900809212972
Ni 2.354401315082075 5.428234082187562 11.15685560545625 1.5945331317195313 -0.5086500801479369 1.701467883300573
Ni 0.9926307384506746 3.748015757711783 3.795401684106868 0.6108424319479867 -1.8235266350072465 0.06853918252197874
Ni 4.046006729767865 2.883469336435809 2.418162658755228 -0.5918795176922387 -0.6934707455731799 0.6947946065909261
Ni 0.8792405842133785 3.3014382533862 8.29580965799425 1.1676770422209504 1.366097814928131 -0.19135075323427692
Ni 3.6361169215139624 2.680182966996269 6.872109850527956 -0.47726462385811996 -0.48056206366246923 0.5025154280051088
Ni 4.125752712683148 6.824438565288023 6.043963040120423 0.2683252110078024 0.7580157193341011 0.7094835760616685
Ni 0.8731026426907594 7.461197743057268 11.310734908147387 0.8388596873653618 -0.11019953837524248 0.4432959802221591
P 0.07793386337188586 5.5352527368668065 8.100524241644012 1.104317604127698 -0.5397077207846899 0.6960377349694078
P 8.58579331545812 1.6881611152527543 7.9908173975919645 -0.4951314768362117 -1.1409164862976544 0.44015023550432586
P 2.2530716615771857 3.3017835921156333 10.572316187508033 -0.9092621483483243 0.35871517085628546 -0.5511046497677218
P 3.9632254011780863 5.923458908056793 4.153371631962673 0.42742430329722514 0.41953075948176133 -1.4127221996548895
P 6.985030162335996 3.9759756705832308 10.650286402325122 -0.11941411499497499 0.3046322729689528 -0.022204046900864985
P 6.371208746490191 7.693819728776069 10.146470821168162 -0.4563826382027882 -0.597574768304803 0.4922497844130426
P 2.407038207736812 8.488898538268064 5.733783428487592 -0.09595254153792507 0.19187628672044374 0.879691119559427
P 6.82983675490075 4.050005388740256 1.4773827129567634 0.043840908444350304 -0.15763047816369627 0.7582671732232747
Ni 5.3548405143216 2.757075361463073 0.2111691803319288 0.05726438093910784 0.40262729885820336 0.1428504916410443
Ni 1.490781855658791 1.1493509065844696 6.900453981139292 -0.4306705781486647 0.382042018507684 0.5611496927085498
Ni 7.077699084021139 0.4355920975850711 9.21707705679358 -0.2528739094497387 0.06927708912926779 0.05793389620230668
Ni 2.605789734387209 1.5569687495131506 9.257152707558232 0.611276948382244 0.3503356885433386 -1.0287896489927122
Ni 6.42018323104067 2.0271474296371372 2.4850402300684546 -0.2414538405382551 0.2325403400987092 0.8173495812077278
Ni 4.012845123880929 7.097492445934471 10.311057442044005 0.19878021292912862 -0.6324985767651816 0.22946272961464997
Ni 7.9891388696096906 7.133925681889727 0.3654692510012975 -0.3771101284237054 0.6492369725657852 0.4469695724190044
Ni 7.42413744467225 3.738809754213985 8.42973746998542 1.1315810678293416 0.836790720651475 -0.1958833509973078
Ni 2.9879706535347075 8.684905530805592 12.370039649818148 1.1144171544555452 -2.0022697267798417 0.17310389120894704
Ni 0.2620730178365867 5.0835587666288236 10.441992621308794 -1.4920821269414561 -1.7676997578456135 -0.29523154848034316
Ni 8.499376842347987 2.1859487180088353 5.832410352041597 0.44002322300815827 0.7682764778301607 -0.43185971336075946
Ni 3.918722144387643 2.207250664898114 11.438277588788555 0.0526389663519545 0.4377215714581752 0.33717575412261286
Ni 1.246945449094694 3.35687420732161 12.484055957699077 -0.8567890181502728 1.0269862772353862 0.9332680243446185
Ni 2.9553543193258243 8.385814927532104 8.009651990138051 0.5647034714980791 0.31994910583168124 -0.3338716294500444
Ni 5.625704220394534 7.791486974176701 3.7258768187966926 -0.16866179627719338 -0.30755253193954124 0.8819120384701455
Ni 3.301492780554005 8.604423431124939 3.6137762320779925 -0.9416703894757009 0.592034040992232 1.0821680646138523
Ni 3.7832039566688174 3.854834479442408 9.095598705998494 -1.2378694440756357 0.6949182766529839 -0.06929740084424194
Ni 7.280767344789458 6.178018990955937 11.524867640049537 -0.028166435131886974 -1.650106498109461 -0.6381583461541204
Ni 0.4387719402542514 8.936821046066179 0.16877885129394177 1.1370678019755256 0.5969147661233011 0.27502910539053926
Ni 4.7772433136211285 0.21377921409754352 1.7801793460687545 -0.17798050257495798 1.4618572666186436 -0.5921278862576189
Ni 5.778562047475451 5.85303707083622 0.4340662456726522 0.2749054353284814 -1.0863936726594259 0.37062143537556813
Ni 8.028761944881557 8.60279670395208 11.578590532129729 -0.6089249032102996 0.8571944811188075 -0.6784367340581928
Ni -0.06450927465821571 5.376196988378684 5.5457473990970705 -0.9956013351662013 -1.3006143885133408 0.5533214549133826
Ni 7.831000995112957 8.969991739814416 2.4607783667534764 0.24499193559850066 0.16704920037443488 -0.0028485251923886425
P 8.671228299547758 1.5574322304394959 3.6361487290285153 0.5475950939525667 1.286473064015952 -0.9133748849651173
P 1.9812173786224547 3.4457262272603817 1.4115556984099191 -0.8438160029293726 -0.9069273295675606 0.3218146982855103
P 4.640743636881808 1.2455004791478532 8.36118409704831 -0.6085361524123133 -1.0420989645071086 -1.7270249058340708
P 8.756381559937068 1.7393803015445528 12.637616276458553 -0.6101338359167363 -0.5940783251157704 -0.6475277031841623
P 6.231555581879461 7.653924017665176 1.6055106518657078 -0.7664947033393895 0.6317820103141313 -0.680814233151434
P 1.4301839965044771 3.374550097551835 5.992248565387726 0.9761895062984929 -0.706623223794738 0.207026769208637
P 7.226830887968694 4.027976412946906 6.1703751908157605 0.2207556887589553 -0.02471498624817679 0.05106339433471851
P 2.3909526932342424 8.65536998157771 10.248861936872995 0.7106562562135309 -0.9565596478827075 -0.9127267098581571
