# total energy = -381170.1738563415 ev
CRYSTAL
PRIMVEC
9.19762489295497 0.00000000000000 0.00000000000000
0.00000000000000 9.19762489295497 0.00000000000000
0.00000000000000 0.00000000000000 13.46165374100925
PRIMCOORD
 96 1
Ni 6.7932553242288085 0.19885816729085956 3.746230301474195 1.3546841737745507 1.8307329229476987 0.7993816838753975
Ni 1.9175116258860119 1.0947197019182024 9.389382425901214 1.8949089434049755 0.5695574571562707 -1.4381565805675942
Ni 0.4071144676278788 5.697974567196282 12.78193462045567 1.1876707117340577 -1.5945670702812602 0.32370728732253284
Ni 5.647442816407868 2.4281913490431117 7.095610684625184 -0.12009340045018672 -1.0179809884129825 0.5049659464281303
Ni 4.474938801344851 7.313629343951432 8.438073929778989 0.8462994314728586 0.13186828159792774 -0.48509029055012587
Ni 3.5889040090805118 1.741423098611861 1.3854603016855995 0.7755850956764321 0.2104555923845279 -0.1171633712875853
Ni 4.355691595489047 0.5298788452167532 8.63482952003486 -1.5979102757218804 1.7029370116469318 0.5727623372468136
Ni 4.151283581378797 3.91059093733402 3.090701783760973 -0.63327504991989 -0.841215589192048 0.5480915739730109
Ni 8.52367806355 7.44238689387626 12.007647290764849 0.09315903795318795 1.2307603438346804 -1.429614604534854
Ni 2.237267052926276 6.529265096502369 1.0977153683236969 -0.04338068097848013 0.5663381788880246 -0.9382978734590421
Ni 6.479873851192252 2.8536274853223413 12.266716789209928 -0.9455941500101391 -0.38491651184200165 -0.3199424209634619
Ni 1.2053855238123043 1.7662842785137691 0.8077004611549902 0.44575601172687745 0.77956002116378 -0.9274215928661705
Ni 5.685263449688167 9.241773424135115 6.858147326656456 0.17348158626333995 -1.0569707394126184 -0.4347910280749415
Ni 6.998996993938679 1.822730102064642 10.088943652701522 -1.4425151146466062 -0.15348457431612275 0.9741246533496642
Ni 8.089596159935292 0.21812167272428767 0.8509329768823037 -0.22297557922840955 0.9946158313244805 0.3972601210090191
Ni 6.700966356735007 7.516492157091085 2.679986446014116 0.27671986282940086 -1.963243980335948 -0.24582445880212503
Ni 2.9910583954571215 2.3345779235745137 7.385628351081338 0.21998487203120182 -0.35723678653854607 -0.21459763957735944
Ni 7.692267965121188 0.9563782269257498 7.996882262174577 -1.5101358991193734 0.8646789624213108 -1.0940532460872123
Ni 2.1151225952506048 3.4384124716942663 5.234645136400637 0.7729258036767139 0.4843271871318562 0.16759890223031781
Ni 1.0527325445921905 7.778219769110581 5.577917050593399 0.03931782376301616 -0.8259874593883839 -1.520062414204466
Ni 7.861044380659483 8.698304168476978 6.013442061543143 0.0456314246858698 -0.4126412314507797 -1.8681946673385827
Ni 9.144821260855052 3.3622929286427716 4.59878389985066 -0.5211572114760121 -0.4681258947816454 0.5263025031223776
Ni 0.4672641746957693 5.148738400772887 10.323082989058502 0.15116441082337836 1.8741642546584563 0.8475019364213919
Ni 3.3217589960391054 8.719201172079323 10.716149004528715 -0.158603640710243 0.07636227811082331 -1.5621611431467288
P 8.412064886298925 1.182851342991115 11.706079247053491 -0.5093705032537292 -0.4245814345317914 -0.38348877825653954
Ni 6.711552822908554 6.544082470095405 10.591776882120437 0.03030996383745103 -0.09448084208840501 0.28069247432390365
P 7.223060332299901 7.6793912903662225 0.27210437234703233 -1.1733180425568115 -1.7336318696276272 0.015378796448915452
Ni 7.791133234364846 4.489103143575313 11.470136256468333 -0.3224135082117738 0.6034865058035477 -0.08100851863358306
P 1.6840023268295405 4.0114336959150485 -0.03618621534890006 1.2724016735245505 0.647901284473497 1.2794426395317318
P 8.951809103902946 8.350238452225442 3.976504795879723 -2.5915614291402465 -0.9841488703548857 2.187931914269774
P 2.6277982029947244 8.95418209110779 1.649321762664489 0.2465037442573368 -0.6523508356044185 -0.41354240310881035
Ni 1.456158764665254 1.0998151860712386 11.649203894423293 -0.06866002437055918 -1.9142109861676968 -0.13616176676695907
Ni 7.927993891760478 6.245904670894531 4.575333635596903 0.15684654880982019 1.0603936490512382 -0.4543141857095337
Ni 6.094668125897464 4.659774269827553 2.170381925199056 1.5246238083229033 0.1618637995187535 0.37386179668973674
Ni 3.2594450878498984 8.328136559771025 6.517917066993315 0.737143503870782 0.8512297788949406 -1.4668171817270803
Ni 8.284300679855193 2.387298709071272 0.01811196280534123 -0.9335423610519277 -1.498673664116045 1.3879084830453194
Ni 8.811766068317873 4.851268818683538 2.865461149422154 0.37120044780748973 0.002287767592912189 0.267254603651443
Ni 4.6403672814468555 1.548015443792282 3.905360248096057 0.11343090082834657 2.3431416988071194 0.7679244938073807
Ni 4.868532760480016 3.457092847713791 0.47050633744657305 0.878365458769468 -0.18412055403442482 0.4298514246814791
Ni 2.0521096675746993 4.200803593436464 2.0317534843120644 -0.1800903498291092 0.9784636470446504 -0.09134872421732654
Ni 4.951854043769466 4.4237908096931635 11.393095111409375 0.4870888090373934 0.0017707187471775955 1.027004017847199
Ni 1.1939160856555602 1.1931434851702623 4.9112419313547875 -0.5774054924457797 -0.9270438978117777 0.8691879060352579
Ni 6.354344667580991 1.7052764330497083 1.7967403735967096 -0.5197420762960404 0.7218683228792665 0.08255709406762556
Ni 6.733939841732543 6.7380787729037825 6.485043836106371 -0.7025192289286933 -0.10643107247174574 0.8756498596105178
Ni 4.245117749843194 5.528443946422339 0.12331531531589046 -1.8991029268816646 0.9063848268005293 -0.42638120674469143
Ni 2.1443158564450764 8.301178321409022 8.401417715801532 1.5043138931209574 0.35212980432928387 0.9413240618798757
Ni 6.755885374564934 4.079900815112164 5.417574857019605 1.0155451252779801 0.9416313087076492 -0.4332095425204346
Ni 7.773786513944943 5.571488830603223 8.891812997169632 -0.8918822623089803 0.00772847899250927 0.28422722695003955
Ni 8.162754067793145 4.3975591836923345 0.7853640292675378 0.035581753759351624 0.18228890014232474 -0.3102786726214527
Ni 6.465856670958989 5.498321725120546 13.225710820635902 0.44348624185609425 0.8066116259649335 -0.5755753812155765
Ni 4.613795343327502 3.281942478171788 9.273786677100924 0.31867923798032216 -1.6343595196878498 0.6512195502134526
Ni 3.2915631937387118 2.5538401017770984 12.437652807057127 -0.41000045139382285 0.2282442838265166 -0.34813765245075523
Ni 6.3116768860179295 8.585118197380833 12.017675461111521 -0.18261902978823388 0.292695926542683 -0.22816586518009738
Ni 8.70579103508451 3.208996115684909 9.565205141817923 0.08270544672003176 -0.21337996512017443 0.33337334965738713
Ni 3.1600187634919163 0.050117857671290046 12.913751300397287 1.0102599656196407 0.05646271097341889 1.5119752663209574
Ni 0.6174715054749224 -0.035856020617683455 2.426880687505553 1.119453688438188 1.2367307024855023 -1.3493316512133857
P 4.736592832365746 5.504769260122853 9.564693753877654 1.049729484469173 -0.7954021304023592 -0.26576079271473585
Ni 4.665044508852264 9.11518651366898 2.5096160820936526 0.3036377702661674 -1.061850436102423 -0.997537632956966
P 7.556189105835679 3.303648872758729 7.708291147328778 -0.95732455107319 -1.7526086678404464 0.23612934300154817
Ni 4.314688584019307 6.3599460210994 2.391543412927998 -0.8300806556211511 -0.8983275037136916 2.2823747040313918
P 7.647254789227759 7.857043413860619 8.145161770790414 0.1302024638597306 -0.16052528321298806 0.46884580366680545
P 4.011682031785323 1.1388407082036085 5.866601981212414 -0.17284935199597976 -0.0530292598118377 0.6502178484218157
P 5.635458311260926 5.892863039612682 4.202688186763101 -0.4780768353467702 0.22237496952993316 0.28226933189272035
Ni 2.706603452495112 6.30027183123496 9.592613144033866 -0.879439408559937 -0.38203661919104526 0.2773906636441803
Ni 0.5757372828315972 3.059838233898286 11.997429649346785 -0.307050138381826 1.872712609813594 -2.1690607883968838
Ni 5.00268011855228 8.222667395903034 4.77526608546732 0.5898298342520616 -0.9419989764597132 -0.03144844831726842
Ni 8.701035863049997 2.1753118521052426 2.627068831346104 -0.3308760371568301 -0.005074586309429969 -0.4937687921607303
Ni 2.489640680498771 4.712081162207187 11.382326532264294 0.9817443746784512 -0.6236249284246357 1.0756896559783604
Ni 0.541442099146712 2.306699922730014 7.646111524462015 -0.5320592031004966 -0.8735112160009602 -1.6820948780905995
Ni 0.5369775720566692 6.785924817243303 8.498718469062464 -3.1822117024110743 0.2878188009560398 1.0153337805981224
Ni 5.1900633291115 1.152398007195622 13.195409245650021 0.47561886072458087 -0.4294698729723442 -0.08085965176054462
Ni 0.9942264530805229 8.736189185131051 -0.020275244164175407 -0.40211513510847524 -1.3433862322632284 0.4109059939272278
Ni 0.4786811863910111 -0.01051380493742919 7.196613481878167 0.7080936376926772 0.8493816699426081 1.0138204292773896
Ni 4.467405946613196 3.843098766368352 5.635828975541372 -1.1116704449483434 -0.3118989818336951 -0.710298615763796
Ni 9.087032584079731 0.3196468950673293 9.678349723602356 -1.17151569924075 -1.144248635994681 1.4540213155139927
Ni 7.736021066413595 1.7765672230680913 5.465014366341863 -0.41174597333001994 0.03407303042430906 0.6526603964250373
Ni 4.4341749281205605 6.156273816975148 6.290024757417456 0.38800234985617693 0.947531219131852 -0.8870329046364787
Ni 3.024280216324932 5.741194206248841 4.537546113765975 -1.2322577543158133 -0.24817187598837906 -0.4573138917678059
Ni 8.753922205793604 6.663541221322183 1.3123916107885487 0.25930783800054047 0.7102253393236995 0.020590679667158086
Ni 5.874900078329506 4.770256139225156 7.510054739476086 -0.03958778959495118 0.08487185824373127 1.4960974187484364
Ni 1.4366598000363067 4.192856845587685 8.444979506497582 0.1602188077161628 1.4164726678362571 -0.59546106439591
Ni 2.864866982858461 8.163158763285445 3.7542800627210138 -0.15239416946542142 0.8876844221775487 0.3360951194639244
Ni 4.576949658278651 6.819348985857263 11.32648775195187 -0.21569344374469948 0.19687065461124162 0.7983725258845927
Ni 6.164220564823927 8.82277562523337 9.636780138443397 1.288789885074587 -1.0928263156586469 -0.2839809152671883
Ni 2.0279751000339643 2.1142212280177572 2.9480751353625645 -0.12217805089335733 -0.1616892216141022 1.9323426627714009
Ni 2.4189477360940113 7.102681818590625 12.222104629758867 -0.895887012592999 -0.7157138732420965 -0.5925744868767342
Ni 1.201715671507139 6.791296230141088 3.0514739138824534 -1.2356212714714074 -1.144520658709145 1.715312245382833
Ni 3.469141736234509 4.633800177321823 7.846366810963787 1.2883075461215299 0.5983887795656662 -0.7198137543430828
P 1.1783629020765272 7.768461089171283 10.39774102952531 -0.29039864586807407 -0.06013938849405771 1.2224808774347076
Ni 8.824513976325289 4.773355738791173 7.113056739393197 1.3106519752550008 0.9253060891850645 -2.937730130790089
P 4.793811256401917 1.1028228093890056 10.864537045117487 0.9347371526909772 0.7192193152921936 0.09598725143060244
Ni 5.183818141855342 7.63722018054371 0.9079830843841776 -0.053838128866378246 0.8904388449942342 -3.5257740767863215
P 0.6313470422858801 5.29591879322214 5.036462074771931 1.9558949961700443 0.9557325239957217 0.24808574403247594
P 1.9053155753680948 3.009619202353921 10.061912753103401 0.3516191832414525 0.8385650389430784 1.5520165985135594
P 6.763629774667563 2.852211051099295 3.667170277766156 0.19010711063516292 -0.8652145232098066 -0.7961796319983321
Ni 2.0257308795766704 6.305955963376795 7.060906206635588 1.1710174194480931 -1.6282881166827894 -1.9456789748689913
