# total energy = -340891.6489500102 ev
CRYSTAL
PRIMVEC
9.04773056801490 0.00000000000000 0.00000000000000

0.00000000000000 9.04773056801490 0.00000000000000

0.00000000000000 0.00000000000000 13.24226824490998

PRIMCOORD
 96 1
Ni 6.244191761054729 1.8831675076624395 11.404930447413149 1.457369406050619 1.2385461584276862 -0.3234995421871009
Ni 4.649493048689627 0.13799960647972534 6.0423540816527765 -0.5306551236641184 -0.3956812065576734 -0.9800885842425832
Ni 2.759838318173999 1.3706226158768873 4.676864243355546 -0.03624844080907306 0.03915250182974547 0.744883038606885
Ni 3.198834207764901 4.458024973349094 5.041039924599952 0.5242834158098196 -0.7477559892793058 -1.0508021487080614
Ni 5.1402600528773785 4.6741843055464605 2.6247231282153285 0.29348114144813975 -0.12650367485190472 -0.3186116179671803
Ni 7.564192324123268 6.051728435346204 2.473893839719117 -1.2414759304799716 0.017333606182441116 0.3316201144117063
Ni 4.801865880029288 4.797043439609833 11.837237349758077 1.4613217058301478 -1.755607088347138 -1.360409763404418
Ni 5.53256965247881 7.890498728865557 12.362054583354041 0.7116247907743872 0.6679345489752885 0.8753102168829119
Ni 1.7370285627186586 6.690688219328049 0.23207248080850615 0.7163376228690244 -0.6901681635625082 -0.284262193953033
Ni 2.8512113496863347 1.7932873517020929 0.22372504454023398 0.8315011901177616 -1.2484281934280888 0.48832165300323
Ni 0.4399133294755788 9.069626126210059 5.024063667641184 -0.03786283648404447 -0.02083493446748025 -1.2531065727403645
Ni 8.785835007642286 2.5065199563280367 1.2623312328817398 0.14338939486364982 -0.2369436113727274 1.1645595796378911
Ni 6.825436071423623 0.47434537311587427 4.866441342996892 0.022403307395864644 1.0429587414042425 0.17751050491707496
Ni 0.7317759285277691 7.148476245412774 2.292117693416708 -0.4566338349816458 0.29112061163576314 0.9129231421396794
Ni 7.717261830720524 3.6937903112288395 3.9560478309254985 -0.24543442245255795 -0.10018791977551132 -0.8921535136924958
Ni 7.700161619852289 3.8882622331345864 12.602613835482337 -0.14529278253394975 -0.18962811411621536 -0.3199488487213651
Ni 8.037099108070862 8.862089281291754 6.936644442770051 -0.6843217320840602 -0.37805243773231667 0.5982782221297309
Ni 7.000880615839477 0.8880058074299328 0.7478374599210454 0.019408229323282705 -0.40738435392721456 -2.3105866476892336
Ni 1.8763636142376179 6.544114983314599 9.295595912716646 0.8003437906783506 0.14461015464462834 -0.2673798163753976
Ni 0.3315649457775373 4.871271021600842 1.2488691144950477 -0.6278955307755315 -0.0531668138309665 -0.7603163424428196
Ni 6.224802474340112 2.010577650226724 6.703368613789336 0.6362482736156011 0.22780745339941413 0.6776147523775298
Ni 3.235432278115173 4.39528800924309 0.4901228057677418 0.5940017062415641 -0.4082209908958969 -0.28446659665435525
Ni 5.948466685801667 5.444173324339834 4.86204414591649 0.7524976177293492 0.8211905522203727 0.28029626732674956
Ni 5.52513241791072 3.0144052668452606 9.032643527308515 -1.0469951162571451 -0.15187403529589327 -0.6136320788779819
P 0.16754587558623912 5.564209566450356 12.262035540463035 0.38327537669415285 0.028396805975138193 0.32275135116716674
P 3.8666381569572934 6.303264394260397 12.89857867559678 -0.014598980860097437 1.0641803697871801 -0.2022262624962001
P 2.2719123014003353 8.454760448864251 1.4547556533486077 0.7835920251413087 0.8413868246625897 -0.18856959094471396
P 6.1813462241813095 7.438727443641879 5.963271487412087 0.6115949938432952 0.687189026329526 -0.8025706231263404
P 4.865489521735867 1.1370735454315049 12.658827385812682 -2.0311650696579537 -1.6208812826957568 0.8850022473596951
P 3.917359734802442 6.253773307779313 8.34390041514662 0.15486191427962365 0.016346045458191204 -0.30315106043773593
P 4.7803684720806485 0.9958022795602693 3.865590429751716 0.6691676500514411 0.9098789559967169 0.5756671695984343
P 0.16523327564024917 5.327131881063909 3.668598714868824 0.8995328368757024 1.0879561320505393 -0.6400769033330718
Ni 1.274526668981896 0.886958984997417 2.7350448219611807 1.3226124900509866 0.00907933659344888 -1.179227723173027
Ni 1.7865015537385072 6.559668032247137 4.553022525747045 0.24436535775809526 -0.25739879390328574 -0.03164462348847453
Ni 5.79736958447916 5.582549316413274 9.436559555746864 -0.49665279857674466 0.3957894500007635 -1.3403798413367367
Ni 8.463572938486294 2.4494649670502087 10.397961458724001 0.4266036071681428 0.3951307333708421 -0.1280890170611536
Ni 2.2076372230892516 5.148783015119642 6.995612122300549 0.5984481720486919 0.08867580537085373 1.6138338889306723
Ni 0.6219699554271495 -0.16456917221287956 9.141879493380193 -0.2683900028074668 0.04902039576276074 -0.34340913662683437
Ni 1.4566936772470076 1.1877227414317082 11.019289025277265 0.2657129701959359 0.03634228607445999 1.071168628179555
Ni 4.026068218179084 7.065589985220229 1.654157683668165 0.41767750832310646 -1.307199497930026 -0.44129797595552384
Ni 5.660965997680469 7.953253788432797 8.048941682676912 -0.39103008093890723 -0.3773880646754404 -0.1306459791550524
Ni 5.206498488732592 3.08536661808313 4.833202695025126 0.08678912987110216 -0.4877400694681471 -0.8412328155832286
Ni 0.7160672586285992 7.096515128472944 6.667640935124527 -0.42011568545095396 1.5727911120567493 0.3051436653877326
Ni 4.863426639154937 4.708592825087148 7.066246850463105 1.190738037805472 -0.3574141926566748 0.25006832168014353
Ni 7.966255377331028 7.122120206122207 8.810186974600942 0.028503763866647686 1.0910525115876757 1.6291365807260134
Ni 4.541544574684906 0.4379572101159425 10.300484828136685 -0.02126430869541499 -0.8326728418283595 -0.124304867428373
Ni 8.068159967282849 7.165196451595049 4.8367647865694785 -0.26682882896793403 -0.7484481302503239 -0.42908446460846744
Ni 7.364888914067448 5.9156234236579115 7.007782224754974 -0.8188325935111574 -1.0988915480161203 -0.5815794213178113
Ni 2.2693789368272634 5.036383057650808 2.5685493878997043 0.6755144182050754 0.8177812694285078 1.5043213493201253
Ni 2.4512654654432136 5.331610507719875 11.372605620233811 -2.147033633393515 -0.6156329113580946 0.7519772264495049
Ni 1.1326401574286287 3.1335276881633525 3.858876108860013 0.12204409641865434 0.9864278961970496 -0.35333308060876567
Ni 3.8595899748057825 2.713921085287069 2.6092696043195893 -0.6463269980078418 -0.5063535708042762 0.1832620626888715
Ni 1.2158792791152795 3.1070178374522777 8.082007518993873 -0.8169716290430188 0.34282575331953863 0.4383934007142192
Ni 3.6894474005321447 2.7069000463274127 6.855111723077976 -0.5174206272517153 -0.6652557165915446 -0.11702710282003717
Ni 3.911750141819211 6.695248275559578 6.0992036874455735 0.3409038537064774 1.0826059234822192 -0.41456107418131183
Ni 0.7757334229628153 7.537791046179611 11.402996947380057 -0.1880034340285988 0.08797955063477751 -0.6834969221899196
P 0.3572279289027565 5.647502974520716 8.085053889892992 -0.9495315373913324 -1.9844710080355243 0.16287758549524853
P 8.511363051611173 1.4975622764490295 8.200645886723894 1.2734267723549553 0.5997200967825801 0.062008837602628694
P 1.7343413867250788 3.4138263827125312 10.498060121644448 0.2780663495549663 -0.537140731388462 -2.4731086496172763
P 4.1132883413377055 6.056143727887845 3.9115275676460053 -1.232403021644426 0.8404000352692881 -1.5169644920054328
P 6.646028620997037 3.9312751444931013 10.58863695286239 0.7538847278848629 0.7904969797912579 0.09339275123054884
P 6.29361046569087 7.966517761518953 10.1145241064234 0.5297657790806296 -1.080486048925739 1.9008456206043842
P 2.3445746259944102 8.270177696524103 5.784699142521552 1.3177135100874726 0.616851357146228 -0.6857960026367416
P 7.044255436422716 4.0387802796975345 1.5270850214559362 0.059719270237503605 0.23797616640229985 0.27883073852481655
Ni 5.403711873015628 2.921123164172503 0.44235259765022233 -0.5903659092611897 1.1055180521937025 -0.18435735263557929
Ni 1.5353546472408928 0.7343138169661502 6.971405823804846 -0.8297893496329772 2.411380062259228 0.6514967151342393
Ni 6.790819454078719 0.9195932445638932 9.276539582488773 -0.08798443573078396 -0.876212159871891 -0.4876871047430246
Ni 2.910609701194254 1.8246829769469493 8.969570892396579 0.34992045538279093 -1.214913606610411 0.325293143752414
Ni 6.377030541989884 2.1181823104679562 2.5029877222947254 0.49445784780795493 0.5436276246643863 2.261399130220989
Ni 4.002489832188279 6.89622551577975 10.762005043101384 0.8756927970333112 0.8137004144909148 -1.6858093508277097
Ni 8.055176473845854 7.060396587845432 13.348735845678188 0.12208369140733812 0.5992243880930842 0.61979064228021
Ni 7.894959260060288 3.709868128537228 8.314846342585733 -0.7931626995488792 0.19109390002846444 -0.78393063942765
Ni 3.139544429024398 8.577547201082679 12.4124015851516 -0.17651086000796698 0.1912404529086577 0.6427994444705575
Ni -0.04889212671416563 4.994492064888939 10.116126459515868 0.26973160443702576 -0.5357896166772063 0.6819619736026319
Ni 8.532860459559814 2.222303594421215 6.116126562793695 1.2520272236332568 0.2724605733324147 -0.6898588598522054
Ni 3.7160477285494005 2.632048170923754 11.0436011822212 0.5743103984602238 0.2526921324562358 1.6139534452276723
Ni 1.3354178960418046 3.269370315663719 12.532429684304565 -1.536170118399606 0.7609784015068507 0.8500709827001489
Ni 3.1816254241292476 8.50879349611563 7.980227787724582 0.6907165798668103 -1.0045580301388572 0.739406845983662
Ni 5.7279011087932785 7.858949292200193 3.624143595249781 0.3010949492396557 -1.198408409866536 -0.06363608879340653
Ni 3.386972718237968 8.237388720764057 3.5052546053816367 -1.591861498424639 0.4320468896709011 1.7664535441433384
Ni 3.4584407423904517 4.372143914321954 9.310055995790515 -0.28444551360843273 -0.2648524219678536 -0.26440967800348014
Ni 7.102504726142136 6.185607705302441 11.279313565057373 0.435899687758088 -0.0771966010866606 0.6153876281165079
Ni 0.5098133819119438 0.06627010291237762 0.23467913199958484 0.5669022789216108 -0.415255014924543 0.6933763860871607
Ni 4.711343335195055 0.33903656172197605 1.8260030408441321 0.02314378510631498 0.41009326821794534 -1.8453432166617056
Ni 5.938686089003485 5.740061258744023 0.5202544630452476 0.2494756824014671 0.3020668262346217 -0.009969966728518314
Ni 7.776506370807937 8.896244464375135 11.690022629643805 -0.0881790682400933 0.03219689644751875 -0.8549031139814696
Ni 0.20067142692527892 4.827742389597095 5.781296291036079 -0.6194880234381267 -0.9100625327624325 -0.12621905373195036
Ni 8.070675236394685 8.780913042186032 2.967989504001273 0.3350867328040681 -0.34477902039116753 -0.6381866282888945
P 8.633878371911058 1.636852089314898 3.732717267440214 -2.2319294028966463 0.056342126235154576 0.6161941831782033
P 1.8874380365141894 3.08532137943004 1.6932230701579967 -0.16793931628887207 -0.27326944238695516 -0.25073603717112947
P 4.893437961615222 1.0680212653540568 7.994423677064402 -1.5368285779192112 0.1982978739760714 1.660703299788701
P 8.662306341513172 1.7167164074809922 12.495219082591445 -0.4434595023832169 -0.02990012999354205 -0.9842856530430661
P 6.66875652030974 8.05362026417954 1.56674574862044 -1.1154767060683113 -1.9981215089394233 -0.2798226701244406
P 1.6642305221653115 3.0930390936472913 5.951962728912506 1.2349083045647828 -0.8739449611042691 0.6432858971886728
P 7.090498387611897 3.892605143831281 6.022133308494353 -1.3437986372102984 0.9207202695865949 0.9272734973240804
P 2.5211501367375275 8.472629716835026 10.179636099816658 -0.45740259482687035 0.7444598350265371 0.531352149731143
