# total energy = -340869.4468194586 ev
CRYSTAL
PRIMVEC
9.25369646775507 0.00000000000000 0.00000000000000

0.00000000000000 9.25369646775507 0.00000000000000

0.00000000000000 0.00000000000000 13.54372015853272

PRIMCOORD
 96 1
Ni 6.983061423826961 2.3078718926279103 5.718822341294339 -0.5992495849040648 1.1170077980008568 -1.150872569069102
Ni 7.205733121310143 7.196470171171728 6.866883115737286 -1.9939948883655594 -1.1882386684223858 0.19177164282177941
Ni 6.633974979249995 5.113537131655283 3.612028645502268 -0.06874281389235258 -0.6113736218611083 0.677185378149595
Ni 1.894657331708076 3.152049604243282 2.9569872354643696 -0.9466652715871308 -1.0314060035696366 -0.13899640800227672
Ni 2.881415998101358 1.1232784500017006 10.248966658352984 1.0520262509231495 -0.6062771811748074 -0.06935473644473862
Ni 7.194887789080151 4.728870224258932 1.266609879561055 1.226130558372153 2.384146937574888 0.07029910263587892
Ni 0.16483424398156551 3.829540481849406 0.9916344390485575 -0.009346474211906484 -0.6938214440443793 0.5927354379346308
Ni 2.304003847515166 7.669250776088539 0.2790387386201676 0.47652800280241153 -1.020201907323701 -1.1113691116578408
Ni 8.894412423916355 3.7648108752378087 4.9611324527345735 0.8525050460629382 -0.13441547349981367 0.6448326728505024
Ni 5.693068378726687 3.286838946617052 1.7190230986090842 -2.570036153473961 -1.0616164657147458 -0.2203229720969109
Ni 5.401521418625904 4.109039129182739 12.869310894845906 -0.773183942434107 0.37921894723659205 -0.4740558871128352
Ni 0.0013371591358650081 3.340695459909331 11.79576736174123 -0.08724807178539168 0.21004832964378015 -0.4354620860000371
Ni 1.2751686234002353 6.409397020299768 1.996344351169622 0.11617992432839346 -1.3725751951223588 1.738258055545729
Ni 2.400455125529844 3.6488157903376854 5.558735243587506 1.10197841447156 0.5051564651723817 -0.33616608191117586
Ni 1.8481667607836068 6.96621044260613 11.338681025990006 1.1934078713281513 0.644091938029736 0.2536285282275761
Ni 1.6223765675994808 9.126273041966416 5.7183615072115295 -1.1100367659996624 1.5714531099716162 -2.14402878512892
Ni 8.854788095751829 8.433920727874483 10.979284112837394 -0.4280439391590951 1.6936352746300314 -0.6285136239755047
Ni 4.537605572499806 3.4023991077844027 10.412100072928514 0.31282277919954515 -0.8712771844641188 -0.07689578201679013
Ni 3.251869227762838 6.963795227834775 4.132879427326193 -0.09197118829267387 0.36630455316776916 -0.5334311437473587
Ni 7.652862479689806 4.288422034710374 7.149635362739618 -1.451882414794119 0.3841192127516868 -1.3221111249345359
Ni 4.690596935774935 5.718904699192674 2.2200459850667946 0.43035176135666525 0.3059813307976795 -0.6501211749429513
Ni 1.0475832131063667 6.733452216001199 9.115547082420525 0.42217899573788586 0.1891617160027581 -1.1419230731852978
Ni 7.495142477532828 2.0234410250910053 0.8244118160153189 -0.7004659459440904 0.8147499388013516 -1.0408077564995108
Ni 0.30755955642397065 8.584755979878633 1.3408273011346061 1.225833081736392 0.4215367341681966 -0.10456393735601992
P 6.479280935829543 8.010416056511177 11.064298747419437 0.7566208958691033 0.5749575451259196 0.8430762965498706
P -0.06970254307951272 7.478828210705632 12.789172032919138 1.979584112256868 0.07042045870509163 1.4154647953970334
P 0.6733961169305507 5.318006808237104 6.737540499089262 -1.010727906394995 -0.443579830011165 0.5861081624261003
P 1.4456772340400184 4.540076309449812 10.282229995583297 1.0104713102994984 3.36640656132686 0.9978590208521265
P 0.8650633044849035 1.0823493506388568 11.130066618771824 -0.5838193663919236 -0.016743280896609876 1.3070400895340264
P 3.157823910823073 8.284158904657604 9.304102251861442 -0.7627133819200865 -0.7160347469166248 2.3960331474895122
P 0.20960640347676046 1.6054145420213455 1.5403952947111148 0.26895101751725936 -0.05870445581974406 1.0784088546817363
P 1.0720314791060577 2.1151544105273934 5.577466575925347 -1.481606938441745 -2.0318068170070105 -0.4234439784932385
Ni 0.5439165455751849 0.2791988275686137 9.028311560692407 -0.02323737326138579 -0.6095957040250792 -1.156471403313118
Ni 6.959112857435137 4.9089656644126 10.822976224757463 -0.5599335609132614 -1.3064356231808079 -0.27796221987693415
Ni 8.503656584261188 0.36389513499305426 13.042738121343488 -0.010415796016685287 0.3199755881942425 -0.5567083691077445
Ni 8.950998777659017 4.6060181502953075 8.919812895279925 0.09110909740269471 -0.19408717832883346 0.7153793727208131
Ni 7.1635455192311905 9.143901333688373 1.8287811921073187 0.09879309631051374 0.022632649797851345 0.2972362376151978
Ni 1.3063258193203562 5.706347433120917 4.6687776449344085 0.0188991508973481 -1.3379617188135473 -0.9001254761543789
Ni 1.2740489261307566 1.838348588858674 13.2965337014396 0.49846516919513506 -0.028552357716395988 -0.2265026185450615
Ni 2.1921451649246038 1.4002971066885859 7.350421142767891 0.33450437793803683 1.0556342799893819 1.3943305845215794
Ni 0.11502252140407243 7.490774732812218 6.777318438614724 1.5268120742234736 0.014462455282233156 0.43495326468441864
Ni 3.088532231865584 1.0750666915390246 1.5815002143063561 -0.9074330655593855 -1.2153668920977456 -1.10755642277997
Ni 3.438969716123078 3.2219520271659414 0.5803020799850201 -0.39061433355772723 0.6914737697478092 0.4605033452393811
Ni 4.223868248331175 8.156180282865126 11.49632977468438 0.08366935329519784 0.4276531314785797 -1.408124295871562
Ni 6.074663058904301 8.741467329123436 13.229925594450282 0.4290759799680352 1.639386540588796 -1.056307651907323
Ni 4.046039963805791 5.735070906876799 11.315345054302641 0.5234426650760792 -0.7623940509074547 -1.420526783300973
Ni 4.840127416580766 6.824064411560992 13.272561075437027 -1.6862852620228637 -1.3296449714177359 0.2756682816364349
Ni 2.162274232809917 4.076142238331528 8.04296500837617 -0.04126492018705796 -1.0041530813909547 -0.40193747188003026
Ni 2.7999094398404654 5.846763022931405 6.658986795363003 -0.6903921066478562 1.1809583327108888 -1.316190645685043
Ni 9.060470006567549 2.252294191797424 7.503098805733637 -0.49284808011867376 0.29860997803427286 -0.05181929866413656
Ni 8.153089548253506 7.0220565006334335 2.3182240028375447 -0.6817845674845032 -1.359895028551529 0.3774109474935758
Ni 0.66860732902183 7.806695929341155 4.097476635478495 -0.5697806289106703 0.12927558117008703 -0.8569360852510983
Ni 4.487589343230946 4.786289410681371 4.609970404045674 -0.38362273273124253 -0.6192728221035271 0.09489530391800431
Ni 3.3530028761771544 0.21640879573125435 4.240132545197585 -0.9915243368833504 -3.4986149998730265 0.13181197443869555
Ni 3.2891431170311027 5.868490702177157 9.006289613899801 0.12509059655446197 0.2790189432762227 0.7791319324874258
Ni 6.074542760850555 0.7717046118211326 3.9699079524383962 0.4833763931828127 -1.269677075504536 0.004152845826108978
P 7.815857088818707 9.04596946424298 7.799408643393102 0.5898853700803454 1.6539536397696937 -0.09178066954842258
P 3.891530994314179 2.233296353002055 8.591892430574683 0.3862498859414445 1.3766655631416485 -1.108464022195904
P 7.491681595063531 3.7917854003661584 12.90532350528913 0.5588030468532441 0.07497028285930314 -0.5790085752668416
P 2.667544565934493 8.17548349364308 2.2792862989490135 -1.0694567876947711 0.5933121363737073 1.6115648903908375
P 7.54258617919082 8.33373095649725 3.948874300425793 2.9039728318339857 1.4150220514326597 1.0204127377829264
P 6.3551425980604845 6.903396351158021 1.077602204364125 0.5802699584777684 0.5170447319695353 1.9452002354603597
P 7.601421181168882 2.604508385771777 9.324539965823183 -0.34848577981879336 0.06715052970456822 0.47244226276881207
P 5.334728237707749 1.177736453562708 1.199969384634191 -0.004563193890650206 0.28604653954696546 -0.2007933867044155
Ni 6.6652432195274205 0.41032370615136227 9.514070474869085 0.1436069101910946 0.24766999665129605 0.4165565073447858
Ni 4.332219779970229 1.8497121280894162 5.978604137618763 0.035272964269681184 0.41421526080611887 -0.2880059772661814
Ni 6.024008324580945 2.14446086715912 7.771901105349694 -0.030391982028296044 0.2693693360016006 1.061750934410081
Ni 1.130496333226439 5.544222671457561 13.244119839422625 -0.8031599199709072 -0.0291586238418272 -0.666042217048582
Ni 2.1808278941760713 8.092413060683494 7.494932418623597 1.9499927717529963 -0.19205497839015312 0.679772422150481
Ni 6.76775566871159 1.8922236095438372 11.61304942401591 -0.22540141506108277 0.4753617504084523 0.12294526807668503
Ni 5.690764208312635 7.556688812568387 3.9133225240653795 -1.275706055307435 -1.4218460163330287 0.836252845870134
Ni 4.534801702477888 4.385243460582731 7.102651569794792 0.8971699930704807 -1.6991610895442673 0.36301508378321995
Ni 2.9095657426778376 0.20787411150282323 12.603419808130493 -1.1682154312229236 2.13240662750896 0.593669776823442
Ni 8.980184936236997 6.16360958910454 10.868727425336218 -0.2685216432893246 -2.1668329275076297 1.3795886503257142
Ni 4.897574364092531 6.728436712529649 7.1488765596313755 0.058995504697601626 0.6540567625519317 0.37319819496380885
Ni 7.443765954886998 6.242700932594078 12.867604513222007 -0.523592303280066 -0.376995457222712 -0.7812600345740222
Ni 7.712039868436219 2.737983703250786 3.189505791331454 0.7932871409418853 0.056253680286406336 -0.5726823759384976
Ni 9.146251772584634 0.6843524935178461 3.4902435227384023 -0.0005646142542183824 0.9880188948332532 0.30007602105683806
Ni 1.14893895023529 2.687541803945595 9.61929148100182 -0.8197797879157752 -2.6961425928874467 -0.23926994551305888
Ni 5.969679872770125 9.10199134250268 6.193339865033308 -0.724838461251184 0.267356676446946 -0.0703222425643305
Ni 8.26167242230361 6.1941097725772805 5.133841592388258 -0.5576807603233428 -0.2848381210611611 -1.0938053917424646
Ni 4.751264169648507 8.476950416329656 1.936630248029574 -0.02677855364542485 -0.48242842744724657 -0.5413899935831192
Ni 5.118238009447804 7.373493384106659 9.51355596934691 0.09921270034643559 1.0055890425065326 -0.40302736251009946
Ni 7.956994466951669 7.371253989567703 9.051376399074023 0.5946221134343824 0.12455863531039194 1.1002835432676406
Ni 4.025320937472215 1.9185873907070163 3.418881791886844 -2.2870397136072294 2.9433739593394272 -1.7176987433371387
Ni 4.5047271890414775 0.16362571122624392 7.996334706635428 -0.8453352677873764 -0.06694201323818794 0.16778196477540136
Ni 8.238297585091189 0.44641219690541034 5.847691168684535 1.6943251016082046 -0.7941050088574905 -1.1444458396071515
Ni 2.5506333650866133 3.3804308324311605 11.933886184094822 0.08161761297249169 0.8552918647794561 -0.8841167594309484
P 6.187567409192806 5.417474791291865 5.846254994996742 0.30450243225930784 -0.2534459799031248 -0.17468846208724753
P 4.56980843611787 1.368399615053107 11.891575507853192 0.48247933528984 0.8802901865960064 -0.5334663678606684
P 6.437093333750592 5.945897872914255 8.964588756253697 0.5527478417980997 -3.0370384761741245 -1.365887755799854
P 3.239543304102131 5.359195011100323 13.189904282708396 -0.09727588833503892 -1.1720096081580331 1.0347024149327213
P 5.673820690127385 2.7885181395203977 3.7393937472206433 3.0028988541779382 3.8749494264729716 2.8896782695881846
P 8.755338620089953 5.051694678333582 3.053038753792755 1.1010325056185233 -1.1174384577803722 -0.18881204597282322
P 2.8388397407718435 5.008156036574101 3.084609589943832 -0.2769417490322198 -0.08701230162550176 0.20377046705486843
P 3.951781811847861 8.186023453890487 5.812666853021314 0.002848782302704771 0.04076766883566528 1.0537404054007788
