# total energy = -340892.59552452905 ev
CRYSTAL
PRIMVEC
9.05042404896249 0.00000000000000 0.00000000000000

0.00000000000000 9.05042404896249 0.00000000000000

0.00000000000000 0.00000000000000 13.24621042654279

PRIMCOORD
 96 1
Ni 6.194970064936043 1.8096594560868329 11.259358432412164 1.758786257406068 1.0067321549720403 0.7296119713804273
Ni 4.4603748265842995 0.30750897579580777 5.852506541064946 -0.2723944959811696 -0.018802477418483746 0.7871769142790895
Ni 2.7045472932233294 1.5969473377569812 4.658387246042035 0.38239683074394143 -0.4293084076938155 1.0584766345341836
Ni 3.1511133206509574 4.164670318981387 4.929881869096917 0.3199048828573071 0.7499902779264632 -0.6166446404520606
Ni 5.369136963912246 4.4577321027383086 2.831324729395423 -0.44041737312278345 0.8039181382931703 0.07841530398511011
Ni 7.288496610880078 5.978456768471548 2.387404140941025 0.12377650572872877 -1.2531325408822933 0.8395132617889606
Ni 4.861842590571615 4.798100453423287 11.502400332086824 0.7906221925152125 -1.1009484305451493 -1.1611616096999358
Ni 5.882911440930032 7.914351540325081 12.525100068873483 -1.1181704508503905 -0.4321775017114944 0.2002927929189131
Ni 1.8626858910651165 6.63804262864945 0.2897538537373683 1.139257867648309 0.3214200339502529 0.4286759163161392
Ni 2.639040323369631 1.5296121822290019 0.384868381090291 0.3091880106604353 0.26039515752744835 0.22537313292630864
Ni 0.574099174014586 -0.2024824239355943 4.811023554038664 -0.6585675059380915 0.3418680173919596 -0.1396535819703014
Ni 8.631507148394581 2.267610917070133 1.2694541204394891 0.6637490501390311 0.9211830681556263 0.4891570044203317
Ni 6.593469289808685 0.8701702237947673 4.908317423522116 1.6035685024489224 -0.4198454625087027 -1.1191808943927757
Ni 0.644615553624297 7.1736919807897 2.4695973777633973 0.02729765937368847 0.5934784867482424 0.20031336174420342
Ni 7.422651047760621 3.7741988203121477 4.080694148605384 1.709299977750482 -0.1687366153791868 -0.5126507166668978
Ni 7.547212035063252 3.828582818909948 12.44726551631217 0.6765125204522865 -0.7139459827083963 -0.18969316302619588
Ni 7.92724839471048 -0.09874646255633378 6.788258853233691 0.3910442220062943 -0.6459503313947134 0.3103236669267752
Ni 6.824490416153738 0.8861605131478364 0.4103851468827083 -0.11160773157667876 -0.19044855313498169 -0.5519189181389011
Ni 1.9336050145486172 6.469216016926477 9.332802793218486 -0.33529653482202904 0.6298601107010701 -0.5561697229954551
Ni 0.28412539497085615 5.0370950034269635 1.2096190513881278 -1.9181038934641998 -1.7173544726238423 -0.5370929088696621
Ni 6.245842498971362 1.9913376700745553 7.017855442820665 0.2308824927803121 -0.1945666890684133 0.28203047640903683
Ni 3.041874701400593 4.340501958981061 0.32903450454684885 0.428425747978546 0.27927373959950613 -0.6459058513100231
Ni 6.0618745276787225 5.755137553061213 4.992735254595668 -0.30183619828105435 -0.7615782398743787 -1.563524599153159
Ni 5.189839011470741 3.0206695576637577 9.02874926935555 0.48221374033327913 -0.25526503538973455 0.5288301546402377
P 0.32944086859029054 5.555639053961315 12.300457681455327 -0.6897441886512122 -1.0571286051467212 1.119321533735698
P 3.975172538545254 6.151383222325459 12.689234035684999 0.02439976900060314 2.7620906176434814 1.0849579686541637
P 2.286752564105304 8.4464440757822 1.548522138406443 0.9584334678666526 0.06173964310164205 -0.4902898324731943
P 6.444345451416949 7.734727772614892 5.725277488728759 -0.8143002528584429 0.6953252822834154 -0.032065255965660906
P 4.822256035426537 1.125293534640703 12.889543452786954 -0.6887157473866977 0.36349228052995464 -1.4757250257396715
P 4.158742291176169 6.079640510246119 8.159864205787258 -0.6057179662372277 0.47580783680693545 0.3267532732377082
P 4.683802647084194 1.2940477429706359 3.777806319370408 -0.3829064233905083 -1.536552184329373 -0.341758745507605
P 0.08203394935768236 5.359154346096741 3.7045015040862115 0.4367445522568865 -0.08268564922568986 -0.5191725769458156
Ni 1.4385015625112376 0.9869578018120518 2.764920862510432 -0.5119248942444667 1.1690165869679805 -1.0464955509129075
Ni 1.8136778444005992 6.4089763939165 4.907337262588825 0.017984609502878706 0.3647328378052751 -0.7305681646461095
Ni 6.214337972574468 5.668733153891103 9.010959755685418 -0.8981195014679435 0.09852287336826257 0.9336683451068307
Ni 8.516666316607681 2.6521996400548034 10.316691596208019 0.0018691919982548456 -1.296585984080238 0.26927986161158785
Ni 2.385664649423219 5.1650227485059945 7.190586407513367 -0.18699479025842636 0.22002523835083396 -0.5743196544316044
Ni 0.5457116136880994 -0.08685511029178916 9.448217421895231 -0.19198170195005648 1.116644244013851 -1.1996150285801277
Ni 1.4621865224597217 1.1201438433106732 11.337047273144982 -0.05127319635267945 0.7027511424338413 0.5563720688142483
Ni 4.351045703092634 6.678199360514726 1.5872805797436165 -0.033384746108032826 0.5874723897634786 0.06801056371201836
Ni 5.629273304683847 7.709965812194927 7.7789825365262795 0.39455943424840434 0.6327029794665038 0.15414097695319906
Ni 5.305286221674358 2.999609220713004 4.881652158907588 -0.5550302100743731 0.521290908840399 0.3352713380110484
Ni 0.8427148571536816 7.4294388658582 7.182572256946159 0.15990281913764073 1.0113853374733355 -0.654967190181343
Ni 4.737272552844853 4.7225837144816945 6.600414585286127 1.3004956035472892 -0.43556004503048207 1.202611135093974
Ni 8.366664587075325 7.053049827135404 9.22309807712542 -0.9307030918309197 0.6986929132040677 -0.14837939187907348
Ni 4.660633561311126 0.3419729908832466 10.474070326448823 -0.6220660685779481 -0.9508052618974336 -0.3107317009984713
Ni 8.013915256180363 7.116855317252643 4.308077909492549 0.2606394123277705 0.9259501505269666 0.8727781944896775
Ni 7.47959631638724 6.082871511660565 6.9532933372461505 0.25140966619938643 0.037773619204347846 0.10728519294192491
Ni 2.1830709052708244 5.275627981800003 2.345241835088519 1.0837593203603721 -0.35149011386275597 2.3449882650975553
Ni 2.3799900334936432 5.271645795182757 11.455720054508568 -0.1704489700846032 -0.10441841291709114 -0.14717894381306912
Ni 1.1154828748836694 3.306319044058123 4.064374423813979 -1.3616258951997067 0.1733589446425466 -1.5059971943606516
Ni 3.6110377740946196 2.9410710774394864 2.61474898500443 -0.08447693679815774 -0.7419057011461158 0.5859891203497327
Ni 1.08616855112626 3.3194693103191657 8.253197609671377 -0.3193600660974306 0.06653783582123379 0.6765837400098541
Ni 3.6734404484716925 2.6742283723874785 7.069476346931544 -0.04493208462600004 -0.4866103267390781 -0.26805421673460283
Ni 4.039122835448574 6.957595003835189 5.88506634691541 0.13923757747880539 -0.2994265603982972 -0.220773172260452
Ni 0.8603514186560166 7.369072536910401 11.421452433624752 0.23881845979793706 0.8886861239691856 -0.9156240860106103
P 0.32237158230226576 5.593587482338844 8.092229481220572 -0.03248357445000212 -1.8788932847030093 -0.6828454046488498
P 8.500819023955868 1.4907858627108526 8.164964119784573 0.4543586657942239 0.5973680516106358 1.3291340932195883
P 2.0294399556622964 3.138777592561625 10.642654386805111 -2.4752447221236724 0.7306715229931932 -0.3822986146031803
P 3.796127997979392 5.9920233542425745 3.66946550219375 0.6403764368513617 0.15200027646111242 0.9478276673263483
P 6.571051389238416 4.024515450902585 10.448743619563137 1.3742438410740332 -0.7333832654974014 -0.4838217082503474
P 6.44959469741241 7.758376530866856 10.195012263948412 -1.2816715288622507 -0.3878614534029385 -0.07068322544817504
P 2.3481868431004553 8.457367937707236 5.868866087722522 0.8300395179705704 0.0010520954135981879 0.7599594733240331
P 6.946996957178837 3.8140025856363486 1.426974942339136 0.4244096848406174 0.21730141166176767 0.13497957353339982
Ni 4.967497241866458 3.2277975643053347 0.5335270276817394 1.3545993273702284 -1.2595772680663726 -0.35452967202002816
Ni 1.72558101591816 1.0967484969343524 7.291204497779806 -0.9506350548681564 -1.0398549056679383 -0.5353640991040135
Ni 6.696381662592106 0.5721813891414168 9.116333843832228 1.1774294936220238 0.2995558868873099 0.057665730142584554
Ni 2.985372903556349 1.772688473515355 9.324524370266678 -0.37949662637801096 -1.4751138745182337 -1.009740345670745
Ni 6.325603886829976 2.0128686290800744 2.5731957726958803 0.7631676958486857 0.12752337436567068 -0.09721958117580676
Ni 4.074899162034878 7.056914358238958 10.245268364100472 1.49937197573465 -1.2609108992761318 0.8863081106553122
Ni 8.201141380159841 7.109596877100298 0.3646578789653541 -0.07273496577088118 0.06446835488671478 -0.5701146152113215
Ni 7.659473495973072 3.7994585540592705 8.30285728687326 0.20684576354608247 -0.2412347825489136 -0.17407911063802278
Ni 3.215181273067969 8.603930506070151 12.404241610082478 0.5302710008518222 -1.1354636907131994 0.4654136380568049
Ni 0.24934099486921157 4.892939847882655 10.181275530203738 0.11353863005080446 -0.7814726648054606 0.07748225064787947
Ni 8.561710277503213 2.3141481979471314 6.145645253426973 0.18451393281810158 0.12701043928499417 -0.8203773122904581
Ni 3.8984068410737054 2.6079340156344615 11.33296734194713 0.9321485660281946 -0.051707969897252876 1.6163175745844744
Ni 1.009529559592533 3.3328186859110702 12.62312249749941 -0.3414381289433926 -0.03523028395720384 -0.46632792234095816
Ni 3.2573924512107775 8.24445671004652 8.232082970175844 -0.2938693780254939 0.7668166054551826 -1.0402680819459569
Ni 5.625399723156161 7.941167947022581 3.542870884589084 -0.5088344282446011 -0.04850488957892292 0.5546774547206447
Ni 2.9762953281538542 8.2426466252205 3.658736224387511 0.8689163975414261 -0.04269805308915872 -0.15277469273329172
Ni 3.195143634043917 4.386197550413961 9.355732042752106 1.1106785133487194 -0.00655271351685323 -0.5006341518219959
Ni 7.528206144390032 6.171022642687786 11.30852848166861 -1.0553283187131888 -0.600833641561733 0.6084929578792037
Ni 0.7062516570775493 -0.22415637964236915 0.13295344559847766 -0.20371210301310722 1.4501034685168253 0.3491198138583665
Ni 4.505826056565685 0.3322790815974914 1.6459472390397814 -0.260380502239429 -0.5514759170642115 0.6936507227944699
Ni 6.26291159888074 5.517799230673346 0.2754469432724987 -1.253961464541492 0.6362906968177622 -0.17953139200184565
Ni 7.946851613376287 8.729296981120363 11.469403390750873 0.21991262403236966 0.7478125535488541 -0.1333062995960349
Ni 9.387642933192442 4.8605936320416605 5.8686144859317055 -0.8570085903602467 -1.0266108961738383 0.5015312097149686
Ni 8.11307170294979 9.099658437372508 2.2706518595778475 0.5887931654574311 0.04749727425001497 1.2596533727199466
P 8.632620350562584 1.6392942722617414 3.8859344515800083 -1.1163205421258453 -0.4292937524057961 -0.5312109961675884
P 1.8169178962391768 3.1489502692838625 1.5695571341696324 -2.2408657861543277 -0.21929118839828685 0.6104264274564906
P 4.7920185684078564 0.8882276300191523 8.154221266342137 -1.0639901081532448 0.30147521539720984 0.07331320687185439
P 8.607568776570455 1.5668184758278625 12.378398123978965 -0.8979248689586342 0.23383180521662308 0.07810240073038162
P 6.540859174340387 7.821548491294987 1.5821408438801299 -1.2937837387447524 0.31679616202499633 -1.0746329325790718
P 1.6704186808451715 2.955841369619818 6.165276528407583 0.9326190779067098 0.976049381176203 -0.14741959906896546
P 6.897844103728238 3.900913808557745 6.213320704902244 -0.26587186437130345 1.612703889091287 -0.15126545517761691
P 2.4511263671562666 8.532296399080373 10.301736675375434 0.6342433273704302 -0.03725168526260681 -0.06650081193571128
