# total energy = -340893.7987539633 ev
CRYSTAL
PRIMVEC
9.07061503911381 0.00000000000000 0.00000000000000
0.00000000000000 9.07061503911381 0.00000000000000
0.00000000000000 0.00000000000000 13.27576198156570
PRIMCOORD
 96 1
Ni 6.229861575108924 2.139449650816725 11.233870366075783 0.05702938211016629 -1.0391902755007458 1.2887901421849028
Ni 4.697517249259825 0.015375599294088296 5.847946056497751 -1.1484531609943318 1.6678890189038629 0.4019932648186303
Ni 2.6958955916433074 1.6882681957478523 4.72344923015881 0.24814899317024364 -0.3640296410906633 0.04159453561233482
Ni 3.3537600775157292 4.3323070820851 5.005373918507277 0.5492529412709638 0.6025398256195622 -0.53345762610992
Ni 5.30467699791677 4.542083192564942 2.763668504890691 -0.6922576991016852 -0.44352866505825544 -0.0993865069201385
Ni 7.051632071980209 6.121159326309233 2.607864367108439 0.8777671630638366 0.33388859873090887 0.3801715409578485
Ni 5.265981754811007 4.552723023826794 11.555847261517036 -0.9535002922310933 0.8329510351904106 0.2849090835084125
Ni 5.708228654216687 7.649004627174633 12.329969818389591 -0.40250799967151973 1.079374046808483 0.9981863222845583
Ni 1.684912068239851 6.649168889466671 0.515161037170726 1.3194397487499598 -0.3942426743389339 -1.2000426030358493
Ni 2.7141275275651515 1.3895093532315486 0.3869660369799704 0.5457048189083893 0.6250606324298977 0.17723745376134636
Ni 0.45503918758009654 9.29819661399149 4.595232460492326 1.0853968559637952 0.14946542585440065 0.45709663355067726
Ni 8.5328906947886 2.29206274628191 1.200007881145988 -0.03695549417842668 0.2484171592299657 0.5448373287017714
Ni 6.807269706938183 0.6732518769658623 4.633825205649873 -0.5298431692857842 0.03241389755433127 0.7082237355126384
Ni 0.7518551043877141 7.333837042328669 2.526005696003826 -0.41929704620440045 0.21043296667670858 0.9768770192838209
Ni 7.517145098569736 3.9353588334225478 4.015068675860551 -0.007014483644620178 -0.8883940466500635 -0.5666942766758627
Ni 7.821863335066463 3.7760969772455653 12.601406154744812 -0.5911048443097433 0.25194702676009506 -0.2066858409294505
Ni 8.16068708353639 -0.07339125210807493 6.740170740376866 -1.1355878749958894 0.7750922152004135 0.26502442876934357
Ni 6.888161450495896 0.47984822635613394 0.26417530913858517 -0.9117396633545394 0.8198355808543752 -0.3023025963945116
Ni 1.969947070432896 6.427319790572912 9.390849316811023 0.24466926215175924 0.6895007051818384 -0.023452574595985414
Ni 9.19261465671275 4.995695572423394 1.6476817294382549 -0.3329702006816975 -1.0919683385337258 -0.3137190657615693
Ni 6.48871878273956 1.8282005716017253 6.849934251118276 -0.9796692373169773 -0.05792335467934541 0.683245468300746
Ni 3.7246212377647376 4.328905601502666 0.7642600773064772 0.12488439408092686 0.08742187835909461 -1.4338993479531372
Ni 6.063279732718544 5.657034103797341 4.985911100145337 -0.3230107754761405 0.46397562005869775 -0.15179278843599664
Ni 5.502724803348381 3.31138216476605 9.232787502983523 -0.5894284850485849 -1.627616030316429 -0.5798560108688013
P 0.22559707696485684 5.4171526225092395 12.559560687088968 0.6943526339575009 0.8945716362156851 -0.05833293141293825
P 3.9391049973706678 6.146248647085263 12.740429654987059 0.03857503205972066 -0.4776209787562742 0.048534457265277706
P 2.3376970097758387 8.561853168121159 1.4128199264283379 0.01163655579766383 -0.014709795406348859 0.3846216063094021
P 6.43683486558884 7.805844629176923 5.791431590447478 -0.17867341487692456 -0.47231190783853494 0.6401146985495426
P 4.731731608611663 0.9570405766735037 12.53079232491498 0.37654602839011925 0.5135104935640318 1.177125846338676
P 4.008994085071069 6.219838545659353 8.280304910290482 -0.5500715805175173 -0.17472831418624749 0.23588174576711632
P 4.570619346997837 1.0913128888382073 3.7621255091359056 1.2295483258044502 -0.7282523720287394 -0.2673859870229846
P -0.10797297136281603 5.509899659723595 3.8754737268804553 0.9676819830481139 1.5844610921955098 -0.38490134233335005
Ni 1.254973993235137 1.2896600245610725 2.5526234153882292 0.34951164998014644 0.04324466962124811 -0.21642132304965955
Ni 1.8412894688829295 6.478242222545664 4.661066983338467 -0.7143265059762666 0.09801302361137959 0.49408400940830394
Ni 5.9967830549856895 5.725471893115903 9.281868600134318 0.003460704855090814 1.0605438014758573 0.21471668165372698
Ni 8.266840489552976 2.4328386893202265 10.011770095312261 1.547808988190115 -0.9865045150712559 0.6240836132286091
Ni 2.2546373892602545 5.2763948207006965 7.056027691954203 0.3873289779382362 -0.15674061935957523 0.4973135720891951
Ni 0.7899961329239137 0.19297188934113152 9.023920268115308 -1.1132478167377924 -1.236024420447097 0.18939954304517706
Ni 1.3894549295422298 0.8673838979509758 11.431373027552718 -0.21071784490697906 0.700329420366226 -0.1761421638146386
Ni 4.104462306751371 6.797926973605099 1.728690483928004 0.6466728113830348 -0.3088568525732616 -0.9997608658605296
Ni 5.477308940436439 7.998622407359482 7.961514521858854 -0.1396985762756239 -0.38329517418849474 0.22654349908532598
Ni 5.244076219860134 2.9734201247103393 4.701146402275909 0.2142196874126504 -0.6020060646032794 0.09721443896948417
Ni 0.6938394515737274 7.508183331061884 6.870073737350747 1.0293722609690594 -0.40694160996284107 -0.3175813769304531
Ni 5.187756772029922 4.642757947190089 7.2576992080329665 -1.4189350133338208 0.5993909955779355 -0.0005558725034700104
Ni 8.411389808384072 7.185314794177291 9.354101534721389 0.023042483641760318 0.7367442115498344 0.07520039659223822
Ni 4.72491957683191 0.11035491483200817 10.524360520224157 0.1936089531408343 1.106792290920436 -1.2951315110218984
Ni 8.111941599136395 7.535150269119417 4.423125706574587 -0.262087971848839 -1.5296094344629527 0.5135572876415672
Ni 7.303051375403925 6.350763800930941 7.184682572319703 0.43992603530866176 -0.20268134775574773 -0.4386643949874187
Ni 2.4157859333336265 5.320124255068462 2.435212469236021 -0.8281325307558447 -0.542835210670078 1.163297682206332
Ni 2.263689862916971 5.05425546213057 11.619411409457088 0.19617337143390087 0.2943362903595834 0.49911977205999847
Ni 1.1788624637226037 3.530909186248868 3.7825035525398927 -1.0874431969698626 0.2403222980369732 0.09723320802256158
Ni 3.685898782814314 2.6912151543618794 2.5222885580233423 0.48103900329888766 -0.34763217356924647 0.5478588891369145
Ni 1.1819555433988966 3.2439602843147743 8.287965044562123 -0.2468007066724653 0.9674331002621017 0.33671244133294914
Ni 3.6602561545302086 2.7457386204445675 6.98894505249968 0.3520033060537486 -0.17456530624582195 0.290644443330293
Ni 3.979024773486108 6.751721261373322 6.002755147826955 0.31344344350267955 0.03399718288105113 -0.1142189439472807
Ni 0.8736489716530741 7.459365281742798 11.563095589872828 0.3739445862115302 -0.7305414251732322 -0.5225934297019065
P 0.32688319103335284 5.776838785218094 8.025622906692096 -0.5381216072444925 -1.5792551225145384 0.6260080839448315
P 8.688678505464056 1.7463019897916117 7.9589783779365915 -1.0891905186782727 -0.5947617243360402 -0.04794284642786582
P 1.8561017829925668 2.9444757926075513 10.625003527697201 0.26420244708868046 0.904634676878642 -0.6911444114328483
P 3.890622560802381 6.128542806826836 3.807036844623381 0.8764795546006648 0.10797836235420759 0.5579988057843938
P 7.0427610106212235 4.118793878272024 10.533599848547537 0.2383471765884734 0.6740391192111295 -0.5922518134299929
P 6.468001498338818 7.696734202707341 10.23724562603764 -0.6092090101096218 0.5851134026129988 -1.0318682879180359
P 2.3647183715226907 8.55272812954535 5.7865325513472845 -0.07923111501818612 -0.2743696174296694 -1.3288543571956404
P 7.122673127771195 4.034872549342223 1.5564367860491028 -0.5638730051769838 0.25532751319655383 0.46362055071212416
Ni 5.696581984702434 2.8647904408297413 0.42167111659716777 -0.8579282739610385 -0.21082146036437882 -0.6279171280420863
Ni 1.617027586429364 1.1831165821043672 6.900143732760949 -0.657580459434474 0.13154946480592827 -0.08909155275203366
Ni 6.8155602489444345 0.5838165212465649 8.967670664019721 1.0260671078552264 0.1766944367736828 1.2437397868134838
Ni 2.7436614496355616 1.5087516565293393 9.144809795076485 1.6400234028418466 0.2064199888625735 0.3581251026807703
Ni 6.386102916528704 1.7556991468140148 2.429450814660123 -1.296795786098199 0.7556958129516728 0.44764628677105484
Ni 4.235804810307738 6.856459651467615 10.60385538908935 -0.9383035298859969 -1.11872169536817 -0.7313294682921663
Ni 8.259583997643785 7.081256700199484 0.46809815183217546 -0.08954792356316191 0.10224043142916585 -0.3101999968647174
Ni 7.687971988726992 4.187013972833311 8.439587628881702 0.8417727472470986 -0.04499996174945799 -1.9280167817025378
Ni 3.2016095834097547 8.32323250230228 12.478233554016706 0.039045543938235984 -0.2484068748173206 0.14845369676043466
Ni 0.12600626081864574 4.964011914624886 10.30939873921371 0.3591795120872137 -0.8697008411159344 -0.0006471466656956596
Ni 8.49635425802582 2.32226789385392 5.753861103587639 0.8963950625776691 0.19041307191135595 -0.2983551817109894
Ni 3.7696840525208173 2.856953429567815 11.888165564990372 -0.8891342672501977 -0.6274574147968484 -0.43239218882546177
Ni 1.054540616088379 3.042166314935043 12.736513870540561 0.7364027690500156 0.4158553675127032 -0.13859865834322582
Ni 2.9885952634154367 8.202847301528793 7.8178169337656 -0.01067033522965259 0.4604964032608456 1.065425812158507
Ni 5.388380632089295 7.932978367425958 3.7772063134461833 0.33347722222510306 -0.90171930300406 -0.7367632377132278
Ni 2.9724858513770314 8.49312511912623 3.5381366521904236 -0.42124877061413263 -0.17696851637067587 0.646099712488384
Ni 3.352508332661394 4.323463232570772 9.524761525564733 0.12592440530966698 -0.05370237461946235 -0.40637262483324854
Ni 7.317528076762762 6.103163226374438 11.514068009349865 0.8810324640786698 -0.4041085113894201 0.030086534972735283
Ni 0.5351327170277986 9.109981355096831 0.3507679341524569 -0.5637105114571904 0.1576361345906511 -0.16041189756357532
Ni 4.536858518390324 0.009460651326608515 1.6947972243431473 0.37200931686203026 1.8606330529412407 -1.0359074909844161
Ni 6.126456565402943 5.6366524321473985 0.36984434432023294 -0.6260157972543154 -0.290516402392861 0.3340593199808182
Ni 7.991765022505296 8.750630805138778 11.410756426977214 -0.06112617788735924 0.34131960108765735 -0.43791903218096195
Ni 9.180097208169396 4.72199883883846 5.982389803283808 -0.8528860835514408 0.35056374539374463 0.006026922920370266
Ni 7.978703337068752 8.950084555877796 2.437894650057956 0.20470146350957005 -0.5239836251812138 -0.520989061329264
P 8.222086075703038 1.7745750963927995 3.499743460560379 2.151818713486984 0.4251059395766936 0.14962663402261328
P 1.8516662523130734 3.303000916610934 1.5891753563589093 -0.5136534468997993 -0.36953411584866036 -0.5053474981372652
P 4.856234868543617 1.3398295954982458 8.239429091366006 -0.4262706493087562 -0.9629699222844254 0.3902381811652311
P 8.379996410261931 1.6021427074006347 12.31223313804055 0.34932061701526296 -0.1700774456777974 -0.26824910635422833
P 6.327688156659712 7.763439504582584 1.3171149616994988 -0.262156106082613 -0.8054109207886129 0.9402400847870775
P 1.755018850697528 3.2488402751237055 5.972818490455584 -0.29129570376104674 -0.11153265536436921 0.5426547192281557
P 6.6885172168442635 3.835201103845931 6.182455820527664 2.1891148788342814 0.4336170623714984 -1.3300596903576514
P 2.614178422130924 8.521842685856855 10.187500559877154 -1.006081408761919 -0.5574614452236851 0.34211278641291404
