# total energy = -340863.6513604199 ev
CRYSTAL
PRIMVEC
9.26548999123714 0.00000000000000 0.00000000000000

0.00000000000000 9.26548999123714 0.00000000000000

0.00000000000000 0.00000000000000 13.56098117225844

PRIMCOORD
 96 1
Ni 2.0971416698670255 6.509349326997867 12.61515692863664 2.4046771963177553 -0.04183056288254086 0.5321815876109738
Ni 2.775375514826428 1.0413576512135552 9.563379811362978 -0.04145955269636731 -0.4171242069227978 1.3383800372978887
Ni 3.8272865587914695 5.4894598153850085 2.8818850984051414 0.30335057804305177 -0.40022434584366556 -0.5507380104569224
Ni 3.691343294129661 1.6867268042594197 5.149673924550034 -0.5222663853797909 -0.7383046140584189 1.0739999269807634
Ni 1.4127092123081986 8.895231451925957 11.07266322266041 -0.6293368912077484 -0.29639163022671533 0.7907726020501479
Ni 0.2407933990378955 2.635855771146118 11.651160557001008 1.5731415534176325 -1.0472974779889126 -1.055346573545634
Ni 6.504021670428856 5.656136709332751 10.212883225906396 -1.7141791602196543 -2.4290970199230166 0.1994273595948243
Ni 0.7896634035609774 4.470589507637525 6.361795477211489 1.6855717808956066 0.6130859765665247 -2.1809878788517727
Ni 3.0606692077245836 0.834991105650129 7.444300241568216 1.1922336485143918 -2.8202705684183234 -1.692996355494452
Ni 2.754277994813142 7.372911496641396 7.955942435084981 -0.8913618710291358 0.6371890402623155 -0.6976415891214178
Ni 3.972791808808443 1.421604082406027 2.8286307698902693 2.702351549911636 -5.708828608359135 -1.2267483944618098
Ni 5.033829360113443 3.6451177660900096 4.402613242561778 1.456049658797931 -0.6141079900731359 -2.374553894569814
Ni 1.8124502337984105 4.853828691998329 1.658657003257992 -0.22543406807123112 -0.46714681869782776 -2.0217471187781633
Ni 4.0677167506337035 0.07321126674790603 12.170627456556957 1.69029284052036 -1.6010218247676686 -0.9288058748082068
Ni 7.136020721858922 1.2381937140867458 5.195564041863078 -1.0414212217137935 0.5062134456819862 -0.5540385355850651
Ni 8.831049404876316 5.934527612415404 9.321153967619747 0.09950966276156412 -0.9403413862516322 1.369056897556455
Ni 7.404766250179244 5.447366695744973 13.054451399044163 0.5165132849460976 -1.0801433208743398 -0.18599051736362807
Ni 0.04330597223983269 1.8434710932645866 6.461128939028986 0.6206015682172795 -0.8542886203259222 -0.7521895995706271
Ni 2.509177996169548 3.388056020262774 12.719210230899797 0.9774148940651618 0.22482651639421924 2.2230464985847203
Ni 7.350933755108013 7.579568978580938 10.299944546635794 1.4773085681767075 3.6981480318077797 -1.9885063544471626
Ni 6.1481620080879305 0.19537674824776566 1.0904536279576929 0.9159686138342226 -0.15053551899012785 -0.151389639460307
Ni 8.061643141414173 3.1553625123077134 3.70186333111828 -0.2076636314616875 -0.7790627698123873 -2.333065288407724
Ni 4.9155368533020125 3.4951928774931775 1.8759179115933207 -0.21557568721991258 0.24797312971401167 1.0872786463675403
Ni 2.0548447094539153 5.022312356434692 8.416541045925772 0.5829001970117639 2.0071761629425238 0.28923213636379863
P 8.339348398260118 9.205208409345586 11.597648647872887 0.4672100678355953 -0.49135298363038604 -0.13668524337059684
P 6.134921623327726 1.8996755536952386 3.0789120303658484 0.17565879642031684 0.008786230833062288 0.3037578407837994
P 5.1980045718461705 2.834572728425412 6.380210637960898 -0.3267393892806373 2.7398706299030167 0.08988370963602585
P 8.481036266526775 3.635055444291842 7.291806959230636 -1.185419710916352 0.5532515209073955 3.988910745883492
P 7.481549363200808 7.558508520526393 1.256143747253957 -2.113237510779677 -0.4607272883247291 -1.0431634012158808
P 2.2373655907634133 1.6940558066004427 11.50346772486935 -0.778046412732731 0.3645937411242495 -1.8784050322126813
P 3.6192763153578817 5.086142314876295 0.5156106027489525 0.7348827328610634 -0.019818063167191674 -0.12140132062833285
P 8.951649018619369 3.6707646415387476 1.6547515993556643 0.31795932909516206 2.604801067758972 0.899550063266883
Ni 4.375349539162967 2.174369526393482 11.435879683811415 0.8658781249357346 0.5522230796428812 0.4651603843954183
Ni 3.9816866789062706 5.2284602364415464 11.362745320627896 0.17699037074754678 -0.35132119238505943 -1.4114363909639305
Ni 3.825062841267012 8.860346883261037 0.953153895605966 -0.19476929199752263 -3.0549079002553774 1.840098937543631
Ni 0.10353258174284653 6.542510514581333 7.23814680226755 -0.4100102215858358 0.6960133094893755 -1.4589406071924809
Ni 8.699275610572863 8.930495905667971 0.20622293047330495 0.7113334847862136 -0.003447592228968256 -0.7337095384885687
Ni 5.135916525465392 2.090739216494526 8.937879574398139 -1.0527093930331033 -0.8121857776186012 -0.36033470873757945
Ni 5.449247590151076 8.583873936543228 4.351285209352468 0.9308925821339065 0.9313528095997765 -0.24912292704773867
Ni 8.083018626118017 8.39933317848235 5.393934469828145 0.35573989027804537 -0.6006320670738882 1.3023192870195894
Ni 0.4003469845156265 4.65508393824998 13.131314195277023 -0.948078864105206 -0.6379266897592885 2.900645824343282
Ni 4.812921555038004 6.627614037340242 13.048077668689688 -1.3444154448586911 0.30057327240823073 1.707128166910144
Ni 7.363321714817174 3.621972572856286 5.676681079611828 -2.6877415133079454 0.9537010953879896 0.2645024948276025
Ni 5.475867342016764 7.408166684893726 2.0578383891712155 -0.156618234849098 0.11642726445250916 1.4085732104835225
Ni 7.6338832791158024 3.412331603238097 9.727820016100704 -0.754576868855881 -0.12071997829059208 0.4241266063825599
Ni 2.24560261109359 0.4885433277314675 13.166370175501118 -3.5063599339257676 0.08940856977182021 1.8976579669050224
Ni 8.137647953302178 7.593031735093589 3.2671793683781307 -0.5971119697357716 3.82014919080364 -0.8994554466705477
Ni 7.444116784872448 3.0338641460651905 12.18589698355823 -1.9576513167395189 -0.11780974662233258 0.5794124955734795
Ni 0.8146227796750709 2.13532475285989 2.965176291381618 0.08166723526350451 2.9373629772586574 1.2781439753249666
Ni 1.438319025798196 4.697417960621831 3.752553898637247 -1.5973238070907911 0.8848502951628632 2.8317076066106717
Ni 3.178489174562067 3.306630896908905 9.78298674168661 -0.6114949779303211 1.7398007174425005 -0.29629675652006393
Ni 6.844556212830399 7.43930799572581 12.424502800481438 -0.1299551237356149 2.5395449268636394 1.2878678874809497
Ni 7.6530165153158185 5.4972798886793495 3.3731450677123207 -0.8643298066120082 -2.6180221944349364 -0.8516635239982493
Ni 0.531335991842738 3.476837942426722 8.971782001156424 0.6992169040283377 -1.8798870160748464 0.08664103432901207
Ni 7.170293768204617 1.9156863198713294 7.791786680880592 0.908431939137545 0.16395642038172406 -0.46302688299218325
Ni 3.8630791454455427 7.005831326291648 4.705646642011291 -1.639584515532215 -0.7577033303000048 1.0047644897227084
P 6.0913367598483665 1.3718947302447264 12.757804701634686 0.28677570440350614 0.36899007041973225 -0.5054493138224521
P 3.0308343309381183 8.750652750877508 3.710881432228922 1.3545741305592478 1.36499146923783 0.29099025670548595
P 1.8626043294646026 7.844163567522273 0.7683027436406303 -0.7469836298896554 -0.5765035494568006 -0.019539869805140542
P 9.092808753973967 0.6791918965928564 4.2935417510850975 0.10504344809559975 -0.2627405178311733 0.5378200168436738
P 1.5162047320923042 6.738568276320965 10.145281286613933 1.178503957633125 -1.2147372289335467 1.0530791176676961
P 2.806905976225292 5.848071328162451 6.369565516861528 -0.4034353965817955 -0.04684267138515159 0.9770397701139302
P 0.9609054042766357 1.0190556175411878 8.33836255015761 -0.1369392683629319 0.5710720940285842 -0.4754867060220908
P 5.477859422299091 3.6487127760878817 10.323214823980269 -0.27308560851092323 1.6600299278707604 0.2268815991510351
Ni 0.08029473361227028 6.589143724167136 1.381660556372967 0.13202768999392747 -0.8807244459199476 -1.289792101086856
Ni 0.7440206748225278 8.259285301889978 8.958194160533022 -1.2887595460572836 0.11996227418896115 -0.7326391882425253
Ni 5.973887412598294 5.386094012456496 1.1792086802015536 0.21470022659349475 -0.2285178492028774 1.2493375926162356
Ni 4.360413569790364 8.514466153311112 9.38023906879354 -0.3102779012905043 -0.44031272922411907 -1.026719910947877
Ni 9.142138221058172 1.9729933735745249 0.5376559823570387 1.8124418379479945 -0.44020885665640314 -2.170386706297159
Ni 1.5330030648916402 7.376941984654475 3.0231903019477966 1.0717728374224575 -0.48018899659376657 0.4222417306550212
Ni 6.131437799206076 4.301633303227216 7.988217841854539 0.5408361779621782 -0.02825128153620941 -0.31918728796499224
Ni 1.4135616373592406 4.662996666441172 11.212029159211946 0.8441559027672946 1.486751458757162 -4.2056629699100085
Ni 5.1098527029808185 7.671343653913219 6.9455278132242455 0.6874836747518095 0.3665395519967107 0.2571385982633636
Ni 0.9497960821440358 8.642042680787151 6.603220782645917 0.29305793786779205 1.2727076348007436 -0.29416351222714504
Ni 7.267683330286151 6.1383869164700045 5.750968069712191 0.6082379044456041 0.10242349397424942 1.38357103201223
Ni 9.27049304966777 7.047590888303014 12.33060632801124 -1.4710283915949505 0.2773145589906063 -1.15397614769509
Ni 5.239486169166979 3.905153734106207 13.052918887050225 -0.2667578665206825 -0.3228122863120892 -0.5147867891732941
Ni 8.086187423590367 0.8406523198478093 2.3352823592080374 -0.4764961211232116 -0.7895032484194209 1.27645553187895
Ni 2.9982661346945076 3.0308250654484326 3.345141051687658 -2.805489810564723 4.482909394666841 0.3736645930772661
Ni 5.913995287272917 0.41050381430858407 10.59264507198833 1.833382958976036 0.141020380410841 1.0312478807252174
Ni 4.3965304485834205 5.91019643650197 8.685387568083662 0.6831896753621459 -0.3729786227538351 0.3459509292120816
Ni 8.332649449217692 0.9848288986439196 9.68065496740697 0.797755204015568 0.10289169185991959 0.8525562110158479
Ni 4.78218792575207 5.028501703544431 6.093965379272069 -0.1663604018375264 1.567699813576771 1.4924752486148167
Ni 7.737193489106203 8.799129792910671 7.903353368729508 -0.17379114708395876 -0.9592153403379996 -0.7517417133999311
Ni 4.431294565882433 1.6421783298527965 0.5339701705602511 -0.14756178107378456 2.376075730530979 -1.5813580277901538
Ni 2.584839984939199 2.9589989894084696 7.30375480817975 0.03840636769234031 1.0798391593703596 -0.718116569146318
Ni 7.065343566539929 2.6932647452358514 1.1294048200454638 -1.5723211143988665 0.48606936663394346 -0.31393529553743355
Ni 1.268176838708175 0.40417270520666115 1.893627968577684 1.0095400567344808 -3.559433673822296 -0.9934616631153794
P 4.875648920207064 7.609654023588905 11.209940717836893 0.9172387387958977 -1.2062325338966453 -1.253187819600261
P 5.745076144821348 6.028961483287347 4.307347330716102 -0.9439576428479808 0.1684648497750389 -1.2408012730104503
P 7.010000796650004 6.671671440793548 8.10793445443059 -0.5952540905914264 0.09190793915490622 -0.468720848053167
P 0.05759521043240633 6.374193628959304 4.431389073877222 1.0639589978049935 -0.9263944371532369 2.28736907192219
P 8.488504251213076 4.828978648662521 11.247572504193487 -0.20478605280357637 -0.1516171820900808 -0.18969573412935717
P 2.3770428477683723 2.1085104257108123 1.1112426071644608 -0.18108665230410748 0.998195321145623 0.9332495124018572
P 1.5388588543727106 2.739369821909594 5.005317595254029 1.2016783388670593 0.42446444933795285 0.3768743582638155
P 5.441066162759012 0.8868176222045063 7.011514777664572 -0.7892625931635247 -4.241906268512759 -0.01497436192164518
