# total energy = -340891.88215578767 ev
CRYSTAL
PRIMVEC
9.06532520479778 0.00000000000000 0.00000000000000
0.00000000000000 9.06532520479778 0.00000000000000
0.00000000000000 0.00000000000000 13.26801977433872
PRIMCOORD
 96 1
Ni 6.421522846037687 1.8987867616083745 11.53561457167074 0.7898382631613364 0.3902134985748828 -0.9270541822244228
Ni 4.68901227981842 -0.003165611570705276 6.006698096124491 -0.09078179597026301 0.6256620134593225 -0.22621928297668784
Ni 2.9315539385631237 1.5796691828226723 4.955697830532399 -0.23396010326437125 -0.6127275647858416 0.7690102706723917
Ni 3.3811940700264165 4.258962316179566 5.022011591130528 0.18164303902820975 -0.6990238141809251 0.20542934281453007
Ni 4.955741344093509 4.389738697963628 2.4797925209957508 1.3395390906029963 0.5021351618475546 0.18966256689857658
Ni 7.224393375131366 6.043154301541418 2.422275752001897 0.8455715521678986 -0.25338427342725395 0.21003650256923825
Ni 5.055070112650833 4.547874231295193 11.489812922473055 1.1363139545286365 0.6635040240077605 -0.2395553379639616
Ni 5.643355328198795 8.090612396940076 12.333845467311134 -0.6454214554744369 -0.029414191496059023 0.515710329428828
Ni 2.1603395251764974 6.24150361759821 0.5150192570300921 -1.3670434666708522 1.3532471842177083 -0.6707679046590254
Ni 2.8145387204798946 1.3739950839791406 0.6046381557323696 -0.32406004267626126 0.6614648820905447 -0.8226074871725576
Ni 0.27762105254027414 -0.11471081240948003 4.760631975274319 1.5194353221434282 0.5644486751747956 0.04442917684765252
Ni 8.683910737340844 2.4139782598178576 1.282447990600205 0.18536908172954528 0.0007322501803342228 0.5592640456500626
Ni 6.807587851655171 0.7991782221270463 4.765686800623188 0.3595602924654001 -0.7566756603664389 -0.08567069999594278
Ni 0.8754366445037067 7.326296696054327 2.464826575571703 0.1329903110175129 -0.5030407043809595 -0.12168619885860334
Ni 7.632786276793086 3.889695358215337 3.7304892099739764 0.7307489131983479 -0.6966913093930066 0.01297507210342927
Ni 7.692844056449222 3.810953943257874 12.52992029326744 0.9854603900774576 0.19317495092720924 0.07399609187149192
Ni 8.007900369531384 9.214631137671226 6.778538016952064 -0.7991135178156753 -1.8348765128024271 0.2012970658137114
Ni 7.157028943338951 0.6593383281769161 0.4519191542263946 -0.7070379427346533 -0.030511795435611968 -0.37761817840837547
Ni 1.6987059684324404 6.783029885604082 8.929814936495017 0.8701867796134175 -0.21827328865673376 1.5570713873286475
Ni 9.48024516694289 4.7566939979939225 1.5244423149821982 -1.6123339073463783 0.937501859920308 -0.1906439569752394
Ni 6.077838235875664 2.040187704563303 6.990521582156451 0.6061303711842981 0.014471197032981529 -0.16087469613260683
Ni 3.518687857806734 4.313172961061632 0.3090532547141184 0.4551739626066677 -0.34581003275884314 0.5305250258441572
Ni 6.129274891237009 5.661694481141341 4.597209544267967 -1.5611221603592533 -0.5772530260283155 0.8837043544838781
Ni 5.394004492391752 2.9916026528940285 9.42211195583332 0.9819001835300253 -1.224719279846923 -0.005472335968480898
P 0.34624103187719735 5.665529113714102 12.579979925726176 -0.1914119454895155 0.1610248485572259 -0.5085132974597565
P 4.025312623672814 6.294417920972227 12.670136398214659 1.0167568861978942 -0.25998069569784904 0.06879809261032023
P 2.584388243512353 8.378672171483979 1.5365961965195538 -0.8249675027643018 0.3654092950470094 -1.0765070096733331
P 6.484617509646245 7.751369796141298 6.003672997094867 -0.694464734055333 0.2690394634660076 -0.3704494285740781
P 4.846005582170864 1.1871949922667897 12.733623590405726 -1.0760362406845017 -0.3805890881112413 -0.5463617357660977
P 3.6959240314002586 6.246417023873474 8.20173243402551 2.086454843369194 0.7051821204728371 1.3158484318542758
P 4.800234755078966 0.8275418117101582 3.71459406871374 1.0787137875166648 0.1018460242042246 0.5269383369341635
P 0.3240327981260124 5.461124160402926 3.6232708888680127 -0.8218711232271653 0.6690871745224929 -0.6132273872403955
Ni 1.572679817069483 0.9819197677334269 2.767138854443965 -0.9862654024772561 0.8173233559554828 -0.5105724939816304
Ni 1.8571678534723264 6.619899358070171 4.632528957900912 0.03881183066087509 -0.26146859309728515 0.7551983044899638
Ni 5.901227569723085 5.6404453587996075 9.301146975546892 -0.17922954449071068 -0.3731819970138928 -0.0315597770841521
Ni 8.746887551721397 2.2118305724892298 10.245697659612619 -0.26031879576355815 0.7111290820848913 0.23122342105949856
Ni 2.3380561610072714 5.0133514859372434 7.243038936066723 -1.4582600361856883 -0.7061521976955902 -1.2895344765500953
Ni 0.48395692012567737 -0.154061576172703 9.039926909414751 -0.11353451628574641 0.6369730675967675 0.2986554865602276
Ni 1.7638221995675378 1.3594905636093568 11.515314588880704 -1.4051996660255992 -1.0681558094951604 0.19748566248742117
Ni 4.077229741271409 6.683438222615055 1.827245027949463 1.7579077114558566 1.5532995789910409 -0.054670394959686494
Ni 5.653952693393968 7.836203109654071 8.106958991396821 -1.1821181573469446 -0.06288712644252395 -1.0247113651582802
Ni 5.481512076847703 2.7814684140367882 4.558692790426005 -0.9333644407131666 0.9554376184631221 0.47752379105677756
Ni 0.5150120047699072 7.186065180054213 6.862074082424264 0.4721496712290578 2.620710025679745 -1.7882377298979653
Ni 4.987488113052873 4.6482183162784025 7.054433938100857 -0.10904896971056703 0.6441150779581875 0.1787315218083696
Ni 8.065084441089256 7.01274522696053 9.268548066015805 0.3380779542219081 0.9908928739469387 -1.06469973262576
Ni 4.356441758389743 0.6890082311258315 10.515781800755745 0.3015304941151775 -0.7308479006700574 0.011740685475695909
Ni 8.074131635669909 7.000352927369596 4.8274234785121255 1.0149308887327488 -0.059430535352491196 -0.8398295074777987
Ni 7.212753497534615 5.956571380259041 7.053385079971617 -0.3107209023651939 0.9970177558977538 -0.8768168833354254
Ni 2.629388517959607 5.089210127471212 2.5652386504941465 -1.595113943923666 -1.1271639125982524 1.1557152418733838
Ni 2.45522548961943 5.511427650110382 11.310760964235739 -1.316368566023804 -0.46331741764940854 0.2654707722781428
Ni 1.1385595224018592 3.365501992051357 3.9120758331459133 -0.04556329045209572 0.2102203364452702 -1.456469519944169
Ni 3.7026776986974395 2.4800644807526844 2.887267105211559 -0.876110087076388 0.37293799932388677 -1.2354130121153433
Ni 0.8520771144481701 3.2840319141993284 8.25698105864654 0.107095445528622 0.9294789896158315 -0.4646708463535094
Ni 3.6198206260850503 2.841725630848008 7.429095671110122 -1.102548170932101 -0.10766134533442104 -1.820280103045491
Ni 3.8466985206441597 6.776647896641376 6.0652891061582315 0.8353758425818193 -0.18374748696572224 0.10288217877822282
Ni 0.6373676059467863 7.657244524266634 11.2663535620586 0.7844307189925199 -1.2216948911983025 0.23387577108068108
P 0.13792892339141116 5.567260988208818 7.950913922063551 -0.36586592296845377 -2.5241738437242076 1.1887994260218622
P 8.513808974704206 1.6246422612942328 8.124008148558978 -1.0962643948059183 0.5690969725800844 0.8865161129010604
P 1.9079699360674935 3.6175452294520407 10.289999904017078 -1.3165032918294552 -1.2085760944281574 0.5209826335713608
P 3.969243587118369 6.0277069873475995 3.987849260622709 1.0479291980356404 0.4255054890079575 -0.8780939502756362
P 7.16448970600416 3.9950253720756597 10.37588298219161 -1.0086761660722885 0.36035347779065685 0.4449438002382273
P 6.297146583866792 7.72894218151952 10.147899117954307 -0.8204917263811352 0.49068681080129684 1.3780935538374266
P 2.3705916132617424 8.400700911795587 5.877082982502535 -1.1518236201284615 1.205388440728795 -0.3485940232618835
P 6.982992829552011 4.016229167791237 1.5498642065278134 0.3102539900311044 -0.08680327093848922 -0.10636885177524263
Ni 5.52467209027304 3.090804506898117 0.23982499205418736 -0.06275342907813708 -0.4322464072762169 0.5824939627122807
Ni 1.2521661781981892 1.074803090051429 7.021090765368293 0.9305588529435715 0.28083337077714216 -1.0249322229198348
Ni 6.666186908700243 0.7160763857334171 9.212437328965295 0.3782087608045228 0.3658731220573054 -0.08469830878034444
Ni 2.5156458822848102 1.6817628755754868 9.220398497583261 -0.25122223277892863 0.021622977586414373 0.4183125708039441
Ni 6.461655040835832 1.8395629918735017 2.5158290018544784 0.6322964880567047 0.613676301852356 -0.23672789581749554
Ni 4.1878176437657775 6.927911913447758 10.578419571972654 0.20266257870267032 1.013715528268409 -1.5104480310431536
Ni 8.190249386555257 7.259439922474855 0.3464867021909606 -0.12893593844248116 -1.1021038843058308 -0.07483735682586466
Ni 7.393352906788882 3.9545486949187323 8.107078653689872 1.0326918122605955 -1.6339933945976826 0.7161195933209473
Ni 2.8220266791207953 8.255284029763276 12.349687123152506 0.7937206289348783 0.12723412526002603 0.6904550986753076
Ni 0.09656021823174205 5.234210004542892 10.207353146950048 0.8401568089102306 -2.05057304187092 0.41868306676948536
Ni 8.381953819217642 2.353013947638611 5.873154977079893 0.4321852150209783 1.3074175274781032 -0.123540992679155
Ni 3.532439956182335 2.829016044873985 11.591419807260959 0.7478462350002669 -0.08305537386028278 0.1324228685498171
Ni 1.3924430208244591 3.585218279677885 12.728462700751653 -1.1703378768825652 -0.15398516810162513 -0.439104824958947
Ni 3.006370067695514 8.705984804278607 7.99687421445278 0.44618872838892193 -1.4245785847728434 -0.04718848476034453
Ni 6.0574412541056555 7.8352965771309595 3.5566516268095967 -2.137902617626525 0.5496504338196986 0.19308496231656425
Ni 3.145287111537117 8.511742080551512 3.6775903176528524 0.8121240711427303 -1.25198582887236 0.5895303007337719
Ni 3.6305539711586907 4.280945729865019 9.31781176291925 -0.6128165249552221 1.9732823384085563 0.12177284503513869
Ni 7.416197526371293 6.264583935636629 11.503864176581283 -0.4796642344385481 -0.6827124786154114 0.2424771395964469
Ni 0.48738542612808494 -0.0842422543077033 0.43856774322600883 1.980969165529853 1.3230974001072051 -0.11124931979599549
Ni 4.786627701907063 0.2701485049522662 1.4095547287307115 -0.1816569229852807 -0.7875450962517856 0.9625860565824454
Ni 6.01087267839342 5.705081127697455 0.26877420164722926 -0.3889395169584657 0.3143348449686973 0.10037406764438841
Ni 7.7772603650013625 8.838293226026728 11.416162594165387 0.029487725046471798 0.6642624994403398 -0.3884373805110665
Ni 0.17482661014709447 4.904105251577079 5.71983041184848 -0.2352366559839497 -0.9087417570684801 0.8104623671695913
Ni 8.073551454855117 8.62842188160119 2.6818649661249605 -0.1312494170670062 1.49513351217327 -0.47304467223950136
P 8.709538411769204 1.7408778614075864 3.6325846040104603 -1.5402702566109086 -1.2604763828418744 -0.18680452862449118
P 1.8342507112880684 3.1912211144831755 1.6269647976184445 1.567611881848655 -1.536711592725373 -0.020610220051183858
P 4.539162453748092 1.119603927343598 8.161915712545408 1.1173916637028367 -0.5032371366624817 0.8771112746473926
P 8.751447410312649 1.618976433024786 12.41824273868029 0.04086485653516188 -0.04386841924817607 0.14034083784531312
P 6.348610435203831 7.820982428591028 1.311754374007353 0.1398124761456689 -1.0430124774603133 0.39256451530556263
P 1.6164562726105363 3.0401021428804924 5.92308316232278 0.796499734341912 0.37901094499084403 2.165245271305535
P 6.656414488101102 3.9811735551225165 5.939388962815987 1.3111109171692903 -0.15335859026121976 -0.38791801767248674
P 2.4098354061872382 8.564447881445213 10.200055560139003 -0.6386684530213195 0.5625632852266248 0.2967230454242051
