# total energy = -340867.4952957439 ev
CRYSTAL
PRIMVEC
9.27227772709094 0.00000000000000 0.00000000000000
0.00000000000000 9.27227772709094 0.00000000000000
0.00000000000000 0.00000000000000 13.57091570979385
PRIMCOORD
 96 1
Ni 4.728407153462917 4.035035518680744 3.043575927032772 0.007481395978709695 -0.600857552821133 0.11133005243525988
Ni 5.303399622152148 8.33961614257977 5.162538892175058 0.785270441284996 0.6480264971974516 0.9388704581330605
Ni 7.090686732625308 0.7180748363412551 12.592805168760448 -1.2199948777880603 0.9149427436728693 1.106876623104126
Ni 7.557471723574693 3.8412820092675632 4.617843590025239 -0.31859567712758036 0.1903379956990464 -0.1682149385477619
Ni -0.0949620294149643 7.51617299985119 12.741094847423499 0.7636364079549881 -1.1215056858712105 0.17404542918660992
Ni 0.6169884676763191 2.1643257280683055 10.12281696038455 1.7615640772615209 -0.7626563034299059 0.2705006213925664
Ni 3.191647707175953 3.4170845886060195 0.6354402997844849 0.8348752487963169 -0.14778906659324226 0.31630225310771326
Ni 2.8140620252117703 5.706409888860346 0.027555354100023525 0.884470029005309 0.016280482327578415 -0.18611418742568592
Ni 1.0759828911195335 3.5413423785967373 12.290675426157987 0.8184703250757324 0.011755597874031368 -1.8976445971685836
Ni 2.1279691282210105 0.14305455081969948 4.054813286463014 0.4799565688679864 1.0115226343821482 0.11857799224692482
Ni 1.0187451224744546 2.466787418203163 0.7653115265381593 -0.387848597887132 -0.3307189427536756 0.39579819175151193
Ni 6.906409490757124 0.824209960072973 8.064746895654702 0.7268164109131612 0.5912495974177238 -0.10240755313464944
Ni 0.9616742548233191 2.790964782105519 5.154138208813249 -0.03403137855309623 -0.7990890923356431 0.21141924184937783
Ni 6.225796509734166 3.1470202358510275 7.070975725240615 1.0270685525365473 1.142935316499896 -1.1012047695303293
Ni 0.2330744563584566 4.740062406206618 0.5029635630698082 -0.8726077303500841 0.9175804384060328 -0.34967157259677845
Ni 4.8498647156663655 0.6266047466106802 2.919985741017827 -1.4435731235974751 -1.0657502853774614 -0.40723343017164704
Ni 2.6797716310295776 0.6118349358744506 9.244181513414443 -1.6417550408209727 1.5940711044814482 -1.7816076261759575
Ni 6.75809014080626 0.9842058890056521 5.332962424318211 -0.6152922401892242 1.9726989551012606 -0.1287130237983977
Ni 4.168788120771343 4.103956356901848 7.688886784522342 0.753968545847921 1.6782194542955937 -0.91490751955956
Ni 7.528440222906017 6.541842086320512 1.320534572494818 -0.11555026116419456 -0.8033393829715648 0.8285400506069086
Ni 2.6340036695793736 4.429209304987394 4.267604635918651 -0.291872145089807 0.2645644584137895 0.15771943833307675
Ni 0.9196504390039077 1.0608598066127908 7.343765200335602 -1.0758194966880053 0.2575083228979565 1.052336840185033
Ni 6.642928454985447 0.0860068638621671 1.3878976681057846 -2.484830566039895 0.5294510760536881 -0.4846223497747718
Ni -0.0007278737791412095 3.1173582203163432 2.9048812010659666 0.29681251981421786 0.5219516823528495 1.1131781398421214
P 8.11192609773147 2.674848051708253 13.293892265601515 -0.04428622351188502 1.1509880116010434 -0.16545897306917956
P 3.0549094317492598 2.3664242871786474 10.793152549091584 -0.5690062126384909 0.18862512677299773 -0.3379779383089341
P 1.6692602909229877 4.27808972724926 2.0479456649917074 1.62083988793486 0.05968995966146494 0.549493339416544
P 4.970061248137798 5.169535752732255 1.0421604046969426 0.06552944916137747 -0.5026506680313925 -0.827519322651878
P 6.856098113360689 5.231910363079808 8.51371335104516 0.4975660544196334 0.7593030706869568 0.1682293367254651
P 8.401239698454578 2.6155981988584145 6.366523718916102 -0.7100075668859385 -0.6369977501871159 -0.19620988109879114
P 7.2338506963188145 8.07136915620327 13.404997330041764 -0.1386264262573677 -0.39203332539244096 -0.8524898765542867
P 1.410999547350757 5.92513364142292 5.379239433799942 1.3431705167079964 -0.2542468785378654 0.3205502297507899
Ni 4.874909137035287 9.25498464386129 13.099136422996933 -1.706386917868745 -1.3473812123552342 0.5014011118950074
Ni 7.984441555191182 3.0462676691739783 8.717671001782481 0.3755715802919919 0.20159737066294958 -1.4192255479910463
Ni 1.514394713098574 8.966449914443249 11.327290436146752 -1.1355536793238443 -0.20540851687892367 -0.08013845732380392
Ni 3.7220497936500245 6.307577996766338 6.1878079890572035 -0.8686829413743813 -0.3285931546599244 0.3136493888658985
Ni 6.8583420045014805 7.870661438709122 8.813237583686616 0.5591804847973207 -1.5182618706606175 -0.2919333373450456
Ni 8.187560064820065 3.467803946209872 11.040672286475827 -1.2229243927300293 -0.19948829473974677 1.9470719985617757
Ni 0.5875211699679017 7.862103126630811 3.5604516151754906 -0.4899198507282853 -0.9616638018784922 0.5183971322323717
Ni 4.9098563507115065 6.18339438499515 4.220134284330226 1.8690387605064327 -1.642889668646048 0.8713311776305058
Ni 5.064786834478009 1.5139496437813922 11.31845581020069 -1.4063558911172294 0.763072565031718 -0.03245477809459572
Ni 4.632457626500456 2.0144486355073057 8.893115472160092 -1.0574312239888046 0.5044756370552731 1.2887009249052064
Ni 1.3151149263303843 6.855625227211183 1.5126552338505879 0.9076107287878306 1.5515604848127473 -1.6870085133421333
Ni 2.546510459643368 1.3724639623047588 12.777695308167502 -0.04983749234741739 -0.11716902771454016 -0.9496904315666997
Ni 1.8288918193522241 5.978875761472633 11.47049056172228 -0.48431690271921113 0.46530410906213415 -0.0023903546090474964
Ni 8.978234979071129 4.8365497252606735 7.0975343095157 -3.1813966627089467 -1.0663696641290152 -0.9882801189144399
Ni 7.167257199735475 5.1511117374564135 13.12869366179653 0.153053143205659 -1.5631641304899468 -0.7134541306736423
Ni 5.235062937409847 4.434689220955195 9.775890063779993 1.2229555030782808 -0.898594127111517 1.0462314986182435
Ni 4.695425662604251 4.031066983935873 12.341811109018956 0.3361992491419565 0.274312796049805 0.1334237990105057
Ni 3.6925639513867248 7.829473982314915 1.1490966531995879 -0.49227035323833285 1.3305304593464828 -0.21570681348113818
Ni -0.04602109462435115 0.6562213279859024 12.778347149271623 2.2729287281271433 1.0374295840558971 0.722667164631478
Ni 5.505442547597842 6.900762673795379 12.844220189897774 -0.9920347008608658 -1.0176878826525957 0.12400199147597353
Ni 8.718379403778995 8.523235052749621 1.531287875368859 1.6191792124029858 -0.5041357372173512 -0.5725923873278526
Ni -0.05640882704182754 5.055542373869045 9.533812226026043 0.36746360647287685 0.2565364459029904 -0.28277866742897106
Ni 7.492936672583319 8.842878272983187 3.5378291126742325 -0.2453524042617129 -0.4271625649954063 0.7550023864290738
Ni 1.5775296501963127 0.27799678610601497 1.5650389652551517 0.2022681714777291 -0.7007834771845093 -0.40194852762362393
P 0.907469448129286 3.4025456575780777 8.39395076115798 1.6197523112976364 0.33772159932375384 -0.8375689935783963
P 0.05530357157082586 0.8281849854120538 3.3954968722672096 0.5205455460339422 0.2809112752029291 0.06178386607601618
P 6.390277439265197 2.412118070409321 9.97353700249077 0.039362303847706406 1.184938143294243 -0.07728350437351207
P 7.239673686551944 8.354043806278415 6.370174214544738 -0.4920883191345138 -1.1321945330436243 0.990013556665779
P 7.235955503297987 5.917196571933175 3.4210243792908233 -0.5249734998983089 -0.03838091377104357 0.6055739844601958
P 3.5758352506783333 1.2230690281707055 1.0739374267159851 0.7450619873869103 -0.02995489449087745 0.9583164826728141
P 8.965337241150294 5.453239625603383 11.689226368245526 0.22353145173187955 0.37961901088848815 0.8016463115398581
P 6.059275679166052 2.2338121752133278 2.9798744537833706 1.6700423178014399 1.3784115992984778 0.9802564772790149
Ni 5.989269984484317 8.654994115190341 11.042952339498639 0.827017443314795 -1.68972102717729 -0.7995583186625779
Ni 8.888553511658978 0.09987540923110351 5.521639361832286 1.306047129493138 0.46022695164954286 -0.7289442558894413
Ni 6.659970900922537 5.857010219061768 6.429872845622734 -0.8692629822475674 0.30801764450141794 0.05261736908539971
Ni 7.756834960839854 0.9890182009976812 10.555512423321037 1.7962258903097645 -1.0811643059396863 -1.5736676011244317
Ni 4.940844301920295 1.2659162222269036 6.855483361366331 -1.906863030443058 -2.0289500642845057 -1.5387605048346016
Ni 8.997252420103212 7.308909782206051 10.064923641724373 -1.646798516782151 1.0273979108515081 1.2938719275831845
Ni 5.510551572467993 7.7283968859274195 2.5525402216634383 1.3157206480271597 -1.889665692728165 0.016418293457023336
Ni 1.6354999287592533 8.326060072960603 6.253273976703683 1.1789670133124728 -0.6962943310649041 -1.8096807302630897
Ni 0.08910565898304598 5.6010119111852115 2.7482863434987523 -1.5998154631643933 -0.6268742885998687 2.0354986640363006
Ni 3.4483136190282817 6.029520940856955 2.481672205179664 -1.2471390423030198 -0.663686829442528 -0.2870346144918476
Ni 2.6904532946419426 2.5827743367162506 7.250695642746405 -0.7483594271912595 -0.6649998918269967 -0.46655957873579007
Ni 1.830393928297713 7.3099204604471515 9.43919605255964 1.6746700463814386 0.10082221092540054 -1.2494219247999254
Ni 8.251501690055196 1.6055968340110955 1.6188070476817005 -0.9715620348288108 0.17576138343645215 -0.4413278007521948
Ni 8.698100933014896 6.284842372480297 5.196981693958471 -1.6719739876065138 0.9233551361062807 -0.9185646566961728
Ni 7.010963691185102 5.904326650844666 10.822398239369155 -0.482898939325762 0.538796007603698 -1.3183686271729682
Ni 3.0317936440881255 4.955772668600771 9.487250557626865 -1.7913083984034892 -0.4072786815872857 1.1188247966049378
Ni 5.52340294900162 2.0633228099003413 -0.020675324238586867 -0.20066200333287376 2.237696387287411 2.155135179454727
Ni 1.6900301923914758 5.436911145029273 7.591013259990813 2.5316737516456786 1.0044909243463473 0.13155357857098635
Ni 3.6532773118679818 8.594260697949897 10.632174685977873 1.8412682752613838 -1.9673698295788633 2.1762364802097163
Ni 4.055888870646204 2.091807246199982 4.534776038111961 0.3877521815185838 1.260059864129746 1.7836575667264507
Ni 2.443022571121138 2.1980026397350687 2.868796278947701 -0.029498523679749197 1.034537607220083 -0.8396636713238959
Ni 9.133174735115071 7.5954509719742145 7.377529271410313 -1.40748820494946 -0.5091164782613942 1.2484356496272564
Ni 6.74384792265644 3.775467383989292 1.6767003663418782 0.7495943280396251 0.3994188192232347 -0.6317007634542346
Ni 4.573495214251297 6.707667496080529 8.953872997321884 -0.10246668850735902 0.15272892709702082 0.06529907831812626
P 4.090483737779654 5.838836555276839 11.313488651175394 0.031872166118248335 0.4314665916873988 -0.7529768713586128
P 4.968568411469751 8.928544844263259 8.893468745930605 0.1803546592340894 0.7482691814702984 -0.14766951029624245
P 3.025942837022672 7.693292043534699 7.6477132365442975 0.35111447569089205 -0.6338977711055536 1.7797806002695478
P 4.543174867018281 4.269253246847712 5.524366338627769 0.7082016240254513 -0.2904122727148289 -0.18604451053001508
P 2.680429962727909 8.09575524587386 12.916036760363793 -0.43329181782159565 -0.42148634054623535 -0.5515059989711987
P 3.7688469778962115 8.076728532564335 3.77574091617381 -0.8671536492140485 -1.5275466383966532 -1.2046510483421382
P 0.33395127155321935 0.06913224614676472 9.477045489074982 -0.05777885868168114 -0.4873392344853026 -1.328411613231267
P 3.0143061288338537 0.6940355298469685 5.945730151303255 0.09582270082828014 1.5315511315703558 0.9184001060938506
