# total energy = -340856.76088672254 ev
CRYSTAL
PRIMVEC
9.36249533588363 0.00000000000000 0.00000000000000
0.00000000000000 9.36249533588363 0.00000000000000
0.00000000000000 0.00000000000000 13.70295829959310
PRIMCOORD
 96 1
Ni 3.171404837319201 4.386890786527181 12.23953670810462 -0.013325513464312535 -0.5638658060881322 1.7658038263744815
Ni 0.8499806873792486 4.812200859430481 11.675756266318663 0.8783531174742937 0.724562581881978 1.4276924478114765
Ni 4.9973629285041286 9.200205782895509 11.125774270070487 -0.0647858861271336 -1.7723385421692055 -0.2024926287837093
Ni 8.798442385611372 5.990564514869083 4.56267444408285 -0.4427995002017148 -0.4081765108112067 -0.8952434654717292
Ni 5.679467521837827 2.043383318979705 1.140148758470512 -0.6693147171522666 -0.6743764479458901 -0.5424238341642722
Ni 7.023126031374383 1.066079249593415 11.29549945693305 -0.6188344490145278 2.2335358281518176 -1.535124193633595
Ni 9.527368817820395 4.626448953154446 7.748365512943714 -1.0473355303156995 -2.4022834992745983 -0.6767503474947054
Ni 0.5309339996091329 7.616670781892304 11.003105920714678 -1.4491688725176979 -1.148027643421139 -1.1884258447325275
Ni 1.3386963870402702 6.409835778319357 8.374398122069389 -0.5952173238162201 5.14246857509424 1.6229404792176307
Ni 5.676967735599132 0.08650571135222074 7.7540654000677485 -2.1281470809016576 1.299835344255471 3.6567165041358702
Ni 9.060826315721549 6.583247915821611 6.737553072964586 0.423157043380439 1.9082038607416685 -0.4174821044828488
Ni 8.058552471434142 9.119126573805262 0.7563735233601744 0.7397081792741647 -0.28384541813058856 0.8638608373953897
Ni 0.5564187117504318 2.1892790828657662 2.8993681745794584 -0.5379274889558155 0.25044550251390413 -0.8876695097792133
Ni 5.947253611722261 9.18075051771196 5.599220638577618 1.0222934997454072 0.09598313766554438 -2.611659742552018
Ni 2.9756818735742145 2.343039342783676 2.3068383185494565 0.7148227288863948 -1.227986894854601 1.5263999263867196
Ni 6.345178385943232 4.123645506851612 1.780891720173854 -0.16794240161266563 -1.3743448854282718 0.488421668916204
Ni 2.2503506395511788 8.964514326817236 8.899825101957173 -0.7642861257238449 0.700237117762736 1.4544787147663853
Ni 3.7291474059016605 0.5081054273776381 6.561688897949543 0.43783444288695567 0.6891613195645486 2.4653130648322574
Ni 2.849915474531574 2.668545216044711 9.674507921079114 1.0858128604552915 -0.8092436642711418 0.27531629761365484
Ni 3.949821419557213 4.593268269896267 2.041850678503022 -1.3685082241418367 -0.5017584952344262 0.3728958332320417
Ni 0.7600923064838055 9.34286212341607 7.357789361264883 -1.3021822472210929 -0.12387832141391568 -1.981656935625497
Ni 2.4151492813995046 4.713969558994586 8.271051154214682 2.467981612803356 -3.6240226134472744 0.27590816556138287
Ni 8.297399088420429 1.1478325583435331 4.408461039393581 -0.892423993745063 -1.7001116263829947 -1.2791942709663517
Ni 6.261224890803252 4.881155637138295 9.443065165357094 0.07885162019158032 0.055029320961002 -0.7008739800157866
P 0.786004884659218 5.640987666253426 1.1971092434802284 -0.2284080630978905 0.3149783920899672 0.4972958314773823
P 2.528276311819531 6.293197812170825 10.51321054664888 -0.4316090308025341 0.37520956896688284 -0.8495117677625692
P 5.32770921182286 3.175355810325677 10.986415400386136 0.9728599277046278 0.3836877816412231 1.3738090675294599
P 2.816107504089903 0.07220356356858806 2.2336095617481453 2.3402386662277115 0.5061872204297412 1.4247073970412236
P 7.429589401287075 1.2124899507196574 7.681193354336453 1.179675095123091 1.7416570539249487 0.07630365695874601
P 0.6529198230593206 9.707315977025306 12.822871657524054 -1.3412892405248835 -2.0074798102258717 -1.6322841252160596
P 4.538993884781238 4.145881433132136 8.08047007287528 1.5635379688895974 1.408476022784026 3.997046230506432
P 5.871127162633026 6.989898535639824 10.432048011350679 -0.2973416528448105 0.4601583031951365 0.2708986281619335
Ni 1.387652874838526 5.023044253046223 3.2664566343593635 -0.9666062334854322 0.12450824168843073 -1.1619936186829278
Ni 5.98766214133352 2.081057999970368 6.149106201124451 -0.9026155895660841 0.22904415401999265 -0.3005750721804436
Ni 0.9406030879043309 8.347291825746286 4.72423179006662 -0.7974690402337169 0.6160345176718874 0.0811571283963054
Ni 4.122802882276771 1.7374731483313584 12.298405269651589 -0.4724165517371993 0.8845800722206121 0.1628073943789454
Ni 2.4651169186875688 8.988332514799405 11.718276974864189 0.2939961334113453 1.6208056922628151 -0.3657021436970798
Ni 2.1969095165157144 7.111957386553164 2.7667783889796618 0.39521866509895803 0.13530918895867663 2.638002494211605
Ni 7.346441080740831 8.854523732314671 9.7866668694876 -1.0791215644780447 -1.3680379693736373 -0.690549972381959
Ni 8.219315877818506 2.7818688588655345 9.16714213082828 0.2246545095927292 -0.7406733714009115 1.5216711534524825
Ni 4.920066167505391 0.9991374083699446 3.091866694951387 -0.3776757711191882 1.0891581227784404 1.6760221895339587
Ni 2.720581964788774 6.837823524871596 0.6430807767737619 1.091532793658204 -1.460416420407059 2.6534571382037786
Ni 6.14086065153487 7.849328789501149 0.7369557081577299 -0.386183037259251 0.5295351511270622 -0.46568051856494636
Ni 9.290956449605872 7.245251231797716 13.684048016754353 -0.5112476656717839 -0.7934208383062722 -0.9281407304203823
Ni 4.539143684705653 6.808462739686028 12.824557842923262 0.7921447998073261 -0.9746098205161989 -1.2058216716114718
Ni 7.058347738602731 8.176285849529966 12.180504302890323 0.10872423938129663 -1.0620872347035772 -0.2252350646865476
Ni 5.6516609108680775 7.319205581982918 7.033824554726279 0.7107786407240081 0.21886232839098435 1.7613653309871535
Ni 9.060742053264065 2.168934380630997 6.1218098461472445 1.3175019082972985 -0.394564833565043 2.1148423933729514
Ni 5.2113427580373335 5.639002817254912 5.809328140064667 0.7953468516843916 -2.960279991066147 1.0856339116752658
Ni 6.922975419406905 9.065760350732006 2.9587292033779438 0.1935539315331828 -1.1572723019478586 -0.07272802379234572
Ni 3.9875897255006367 8.757827881104042 13.970440193500801 0.21093201780031412 1.5515769398729795 -0.6257646004754578
Ni 8.26963928992706 4.259823000641176 2.9951099875214626 0.9754104620406234 -0.0637031945859161 -1.307055001932362
Ni 5.92369757360782 3.6788146312978314 13.103138889860935 -0.7532247257033609 0.18457846750744983 -0.21884870154422953
Ni 7.349315366790566 6.050212972272541 1.3817104990868423 1.8822850839933776 -0.22558344916490183 -1.1214378087477526
Ni 9.476624093424423 0.4131950040161433 10.39855836574839 0.32069729685161547 1.4663813797412424 0.23626946812383823
Ni 4.083349327183666 4.82989597550214 10.254088509892865 0.3784123921748967 0.9162825455302155 -1.2147873654451917
P 0.051388864070962936 1.9631841844454043 0.6773905769622276 2.7603332686327433 1.8987825674277685 3.2391217853345573
P 7.338464234765671 5.8215340251560015 7.617954379994645 -1.2536521608311892 -0.2986485445816921 0.33344559765621923
P 7.086126262086652 1.8201439816185254 2.749278949059272 0.3466872931574739 1.1932667177645964 0.7385486117484249
P 5.2530713994825105 5.7155973911079485 0.9524297919369866 0.18562902025915126 2.102917874021223 -1.767874335750265
P 0.3316823113946186 4.146265295438452 5.4920631351455755 0.45763707943517956 1.1119784631070655 -0.250265268182298
P 0.9841106034519487 3.5677941623149065 10.097339741482852 -1.3043340034567732 -1.7412796159808719 -2.397806180229535
P 8.137721731488082 8.091321204900176 4.653661981923696 -0.5458367165005631 0.6648250568120292 0.28412669681643327
P 3.671118660180951 3.072068762440736 0.3946469646248401 0.5726134703737751 -0.10323930500732542 -1.1498896363305422
Ni 7.638934795658655 3.456970305732778 4.975982734291832 1.025496580063737 -0.25527403425079903 0.8894607973516809
Ni 2.172941528609129 3.3192948126990527 4.416230037973613 -0.4656326960461465 -0.7050623070655212 1.5565934192509643
Ni 2.0434207689608086 6.907227702352657 12.44384788876629 0.20442198459593827 -1.2298216340704948 -1.410177835966481
Ni 5.569280314934467 2.4519626128247753 8.981179568408534 -0.02808827359578388 -1.1993705166694892 -0.3909745451106234
Ni 1.648089405931292 3.6169191750281304 0.903292607979904 -0.9067892613277996 0.646217469013171 -0.5245045306816903
Ni 1.1496488824270792 8.624187623534278 1.4921420671169063 -2.2807034869765563 0.3316766786812546 -1.2613335886358472
Ni 1.5051802780382775 2.2994943772549545 12.13247563837392 -0.47826272610533116 0.996871974348509 -1.138993815353645
Ni 1.7518071285989294 6.177056058271923 5.388454953672668 0.6299567841799344 -0.34159985133223747 1.116664041508193
Ni 3.2308660448171396 9.00307844485912 4.689206695239067 0.4884394095280168 -1.6036986002688833 -2.856891047854835
Ni 8.725611534859292 7.36770330751265 2.5669340548141766 0.9190721924602108 0.378453015604845 0.148424386184396
Ni 2.25161457641344 1.037579813973241 0.2840009954529556 0.7563077355040588 1.2617634770844142 0.7827235064934263
Ni 7.215450409334178 3.665210925661789 7.370985798356418 -0.6958870683241565 0.8908450792937175 -0.668837777515848
Ni 3.7237826961085068 5.55873814525368 4.120931319471097 -0.6106904797511546 0.614680060526522 -0.031059954629598124
Ni 7.677910863492684 3.6959760851387577 11.460606124875955 -0.08903396004122086 -0.23199912288325852 0.11881839039250505
Ni 6.318570174368812 6.442220649479075 3.4641625746038085 0.5078674363456415 -0.01067239211218162 -0.2031014660123018
Ni 3.898580482911611 3.7052168679761794 6.372656373328794 -1.8387357386475172 -1.0270567254620053 -3.9798242102011914
Ni 8.695389400108333 4.138559961826296 0.2090289420312514 -0.5274996087542722 0.43319180190862167 -0.3073144477868062
Ni 5.860903317791623 4.2023840921228555 4.175030625924465 -2.4477136065829392 -0.8414806699279767 -1.292643197382406
Ni 3.976635606027705 7.585446860146811 8.806000728047696 1.4712338227375372 -1.0861234497171746 0.8934550061127388
Ni 4.6821183500656005 8.17641692446383 2.478947196709291 -1.2579574730747625 -1.60852636067483 1.0789004496061743
Ni 8.47403192429763 5.329815773259963 9.854948483785067 1.3786710236074515 0.4520480153831763 -0.7499555680337858
Ni 7.92429428917616 1.6043478280017742 13.185602812002504 -1.4835514637626257 1.3793207413763084 -1.1899929321093312
Ni 7.748410452921039 8.466523203086272 7.465494570670572 -0.5310482453374791 -0.15906181129358413 -2.4842322703342634
Ni 0.8310450406835187 2.2180968433253248 8.071371599966055 1.6466496499091123 0.29530971001644624 1.5864030464132293
P 9.140622862958981 8.00254602469305 8.842505097128859 1.931212920042332 -0.25300837814507393 2.238083338313184
P 2.719673802747001 7.662977683527449 6.966200187597187 -0.3730873804175575 0.25750935133922104 -0.25071058324983275
P 5.849312548639922 0.7209842274663847 13.191605107723953 0.41754561073093255 -2.313449828169641 -0.6763870506180157
P 4.084660076522307 2.4749475387273794 4.598808994600609 2.01898523976231 -0.6886491558148204 -0.763706341960975
P 1.8312010885394931 1.092444036290659 5.7614633192155935 -1.4643774619373362 0.6014558485267641 -0.7554592714608344
P 5.063967719897662 7.428119489528741 4.868551845997729 -1.3143052557368717 0.8567041717459504 -1.7341715441811811
P 3.96564403657367 0.700445721579402 9.454575417049421 0.7031406645627761 0.0961155494783506 -0.31865301272807695
P 8.392606302882173 5.809119356420012 11.969438081887013 -1.5136228292267095 1.2000050649296947 1.0880690034793197
