# total energy = -340859.5125517919 ev
CRYSTAL
PRIMVEC
9.39013527683104 0.00000000000000 0.00000000000000

0.00000000000000 9.39013527683104 0.00000000000000

0.00000000000000 0.00000000000000 13.74341214706228

PRIMCOORD
 96 1
Ni 9.241902584742911 3.988262758826101 13.637161976141309 -0.5509660673073286 0.2390966531599882 -0.006867673654110752
Ni 6.321392106326473 7.165217831191952 8.485072707006825 -0.27791979667477296 0.36574251001671204 1.259239682221296
Ni 5.360330542740437 4.326871036300135 10.016940873761579 3.7262489038090534 0.3989372516011258 -3.0707883189310596
Ni 7.919001549049707 3.73969648835979 9.63443465296077 0.11229190212789693 -1.2594852225731987 1.4392433858738698
Ni 9.113060538841047 6.372906388362595 12.768935045789307 0.26226589218759994 -0.528451174034264 0.014579697586387793
Ni 1.0522867276365147 2.3861460511780876 1.2248868038497769 1.487456969464619 -0.31409213283027193 -0.12809750170158585
Ni 0.6736088649811937 5.6894735638724345 3.264829836155577 -1.4149276919466405 -1.5028059411168635 0.23447098146251874
Ni 3.496754908914193 1.9136250547618123 0.17380201352653643 0.5836270478754594 -2.2695225306590716 0.8972201295821257
Ni 7.117318751230913 7.670407108177616 4.667111319282349 1.3442668350959688 -0.7019875247949394 -1.3877426468914162
Ni 1.9276820872459675 4.824088088450096 1.5400450965391217 -2.0076898693541487 -0.10079804255568446 -1.0684779687212693
Ni 0.37488518702382473 1.3535598273169618 3.450957341224333 -0.4470171378274882 1.5159244807766925 -0.7369516995749501
Ni 1.9416921690538225 0.44551684543569214 9.44106453656601 -0.09780373581405091 -0.2809367291242258 -0.19801171019422026
Ni 7.470481738357881 4.977297535351547 4.334933406434334 0.6715158385686436 1.3079116935057022 0.02406783958248113
Ni 3.6141503799341703 3.588458969862929 1.8065305621220076 1.4679911474305234 1.1737996101789203 -1.3869214365417017
Ni 4.913500956395403 2.979386626496365 11.81827587404425 -0.3164485488775905 -1.4554421071209194 0.30363159961858033
Ni 5.763993677295451 7.437569314271733 6.35444538244152 -1.6304578706405983 0.6099494878200721 0.36061778719563703
Ni 0.010585499478549058 6.704744378314201 5.2024034918843824 -0.7492202325296581 0.08504463637616966 0.7060544957754614
Ni 8.042416096771316 2.7612725646780936 4.92286292124958 0.08709560536792742 -0.10198923465030822 0.06898629736172636
Ni 8.949428041801042 3.3817914829265443 2.652066230618324 -0.8878042355848645 1.5738030982610314 -0.23561975035498128
Ni 4.201090174493016 6.835793106002154 4.643527994576969 1.665457526644235 0.9616236926691761 1.0385140753693276
Ni 0.6088676384178969 5.852213998062742 7.504040203749913 2.0064251437091123 1.1151015821170795 -1.281270179658774
Ni 4.476831496401641 2.726829548544573 6.901900597245775 0.5066212226433661 -0.5671485906044619 1.178273329679558
Ni 2.691569590643436 6.189047539972646 8.970421567201727 -2.113075531280516 -0.06647792911757583 0.44673148826626935
Ni 3.912822412147609 7.1659878222832685 12.103974495382534 1.35583448532891 -1.6751819530208507 0.6079921069833851
P 0.045956260975753525 5.81169556441603 1.2988557163330328 -1.263952514315933 1.022501244880839 -2.0675595491265875
P 2.9226420391204475 4.163867678322548 7.648511190778449 -1.2524242019613592 -0.5486039948330551 -0.40538429277805027
P 0.5634851147065267 8.691002129311777 12.877384534947122 0.6322934027329111 1.5424636647178014 2.9123877953705586
P 5.3040366818569975 2.664018933790723 4.853802232466703 0.3598893936700447 0.44345847394195237 -0.9690505812608665
P 6.999650966288398 0.2123043851329364 10.676583790570637 -0.6905242613503464 0.8201829368914648 -0.14960092299100042
P 0.3400618704122757 2.400531738396341 8.91456810366198 -0.16228237511341084 -0.20987606573197404 0.8520383908391648
P 0.9416145934626665 1.0090639350349346 5.846942376127803 0.06631003608114386 2.191337340406897 -0.3019423848416155
P 2.600485278621857 1.4635934322931332 3.0239625375889045 -0.8468082527884772 -0.6737046186898462 -0.8181646209098555
Ni 3.5969007014616294 4.653319088612525 11.001051463356703 -4.4798364121684715 2.2495214049467966 2.1436811719815148
Ni 3.905516886915363 8.208424298032089 8.620129144423728 0.4074882264949305 0.5036418283000681 0.19816083417757485
Ni 2.701804838076788 0.6661446464630542 7.145969931936093 -0.1578932449067797 0.7077527094134909 0.25639220701564225
Ni 2.3869254324046643 3.5794913906896704 13.215128919977241 -1.2257209816385601 3.0738227348820093 -0.8456957364505887
Ni 3.0905752181095107 2.9248111603654974 9.477484176171753 0.1596076564947251 -0.8557163539113842 -0.1941889940140204
Ni 9.240813329052756 0.870147213012663 10.459204037329693 -0.9865934752406362 0.7193373289272966 0.3728351551974353
Ni 0.6113804386134613 8.567672092807507 6.733859431701222 -0.1953686161444184 -1.341987809253805 1.7677686634103362
Ni 5.522235254892608 0.7667036049619291 8.03809569553821 -0.37955216220629473 -0.705491681293456 -0.944973742817321
Ni 8.169774501302108 5.8656325013492205 9.023635463719902 0.8827173079802604 0.8720510865156658 2.688760955711395
Ni 7.330606283525567 5.360922121261814 1.6511472989078761 -0.46956545544164935 -0.577257911124322 0.735057824986347
Ni 8.112288093240654 1.0137871730706929 8.058463837930582 -0.22205949517204338 -0.842816872240897 0.03760289795443847
Ni 8.337228783392913 0.33643070510725054 5.17179728501808 1.3598482344739937 -0.14196860325672322 0.16396773323563374
Ni 2.429321893103368 7.426010057766725 2.187758785513933 0.1878892770482377 0.8316577703002839 0.35330325581209476
Ni 6.242205095679259 2.0684214345221967 9.838579010552806 -0.06766757855030281 -0.6828202078378692 0.6418615060373204
Ni 6.516575457839931 3.249953983876754 2.9961048233131917 0.3249730414088339 0.5494113212256989 -0.07503353199707077
Ni 3.760814902559432 9.219760645799932 4.057096206335686 0.04915486445809599 0.16063352665607822 -0.23111826294020196
Ni 0.9671088106934486 7.772168003989766 11.123780531204336 1.4993200394507922 -0.7020178638122425 -0.5737794656574183
Ni 7.63273388551467 7.722287605488876 1.1459627169898416 -0.8815549122410431 -0.21075126924807575 -0.18231769649773116
Ni 9.02580740200553 8.11736815641629 2.8497511141650342 0.5536775527012207 -0.09177578445241613 0.7101515486629705
Ni 1.3561515046487098 9.03425852373949 4.275685408998112 1.5418951938088412 -1.7613864140330762 0.5010784384482659
Ni 4.467093926137066 0.1557419663810619 11.461566232829599 4.899415508389666 3.7440697340405587 0.04994059358418496
Ni 8.629731496740561 0.791839119025781 1.3230174733704272 -2.1285278612798435 -0.1545693227398693 0.7030329353403182
Ni 2.959526490421557 9.090777747869168 13.001886460331836 -3.1178209948398306 0.1191012117402465 0.7484278185353498
Ni 5.764782448657287 1.5554383452707683 13.707500662333064 0.6947249296952551 -2.439994640672127 0.27541837040915795
P 7.4574951812933605 2.670798611448412 0.9085782195910873 1.3101835202590144 -0.12380890162856098 0.46156109707993415
P 7.787539655410314 8.50863631242816 6.884541993204219 -1.1485943145578863 -1.1224091715220865 0.1266905940517302
P 7.297402765246361 0.18865251244015777 3.159088462006732 0.3543340110694543 -1.1850553855983976 -0.2573383729789955
P 1.3231639594804825 5.051723747421963 11.595303356242477 -0.44678316743981117 0.4267987538980843 0.20500459657228567
P 7.625963597992241 5.111407447134248 11.449513055209918 -0.2466549251232204 -0.1523705153163376 0.18690942963347165
P 4.370572725799973 9.266795833317055 6.1623119468604965 0.18068684576252753 -0.8932991972611647 0.9956630416420723
P 1.8868162185946364 6.989575351154464 4.28812358216345 2.2806507793617494 1.2073900445398562 1.3894884259379296
P 6.490639904251931 4.750413087200476 7.93939034973965 -0.8077215711996605 0.06897472739750057 0.8884174436888311
Ni 7.426085178848806 2.8656063575514708 12.131323264327158 0.4502731828709406 0.5060404104392316 -0.6607591142727718
Ni 5.4119856768054575 7.884295609128908 2.9147853129484416 1.199211879604438 1.9092389868744022 -0.8137963166388308
Ni 8.293968430250294 8.140195575233244 9.971999686407424 0.5936080703475712 -0.8345944843311046 -1.3364704789800015
Ni 3.4611381258731777 4.04446271835694 5.274158210473341 0.3145423329938131 0.6315871206945057 0.6022140668490273
Ni 4.6751511530919245 6.926116817067677 0.5687886631013502 -0.06275137219560806 -0.06154346793043595 1.551897556437192
Ni 0.6227490753726908 3.040760550555441 6.7405668053174095 1.7495904498394124 -0.557341374706053 0.9306853512191068
Ni 4.454539315294505 5.5931965070521 7.720554186519888 1.881124488026373 0.4106421987428799 -0.7903033757232131
Ni 3.2329108883799327 5.499586248645593 3.345998165342642 -0.7569811074219995 -1.9017197956792218 -1.2711271776875013
Ni 6.574230888336064 6.108771273635276 13.197015349060786 0.7330348810190472 0.1618519724442116 -0.7551887914082671
Ni 4.0297389862693285 9.206605066300733 1.225333774288151 0.6527465283809403 0.13701588723713823 1.287532358518402
Ni 6.08403765736055 0.5346799357830839 5.093748358764373 -0.9150080496931661 0.9577585532868151 -0.7895636693437111
Ni 5.947505090680782 3.8053992647737056 13.7210656517296 -0.8339105708902025 2.1756911492292077 0.7810407194743646
Ni 7.845242036582748 8.498485576212147 12.67176968217338 -0.5570086739569826 0.8246458577588249 -0.9076369540400755
Ni 9.234850593162683 1.4460432694922742 12.841170539303574 0.022807484812818784 -0.7854398769833247 0.835958968778799
Ni 2.2457447487712168 6.470197579791006 0.0968536111252962 -0.4213631847048098 0.5877724375024006 -1.8255457223198046
Ni 0.9293125772585973 4.508983319531733 9.185258471814274 0.5680705881980991 -1.7857738417385052 1.7178008161326412
Ni 2.0253958347610754 3.5137416635994545 3.5490025605141176 -1.4442382679852999 -0.9799492304512414 0.01776452307227263
Ni 2.955366660501396 7.495309255985206 6.39332523748537 -0.8729805403084706 0.2103329507637345 0.7145465924068727
Ni 1.3805001253777773 -0.004451863126745417 1.240877265183957 1.0760269847131212 -0.3923575415010791 -0.5005179379591057
Ni 0.9075884993346878 2.878602304751251 11.373897113002064 0.034288745979540944 0.3558429915148129 -1.4741818496222674
Ni 7.90536707265225 5.962998813859711 6.860738939333755 -1.953112548328901 0.8454627945041762 -2.580969255446697
Ni 7.865703141314193 3.2842843183871553 7.347860657065738 -0.859736530814371 -0.14579774719482633 -0.6218130720268775
Ni 4.635383930266009 1.9666417584395275 2.5913749693926467 1.1729683725268767 -3.022629756947962 1.2521146411407404
Ni 6.439613909249326 7.205529681862946 10.963999867647965 -0.8303364803856991 -0.33036001675236004 0.3050202524359908
P 5.722817934180541 8.618369433076014 13.116725936534053 -0.8451951426650862 -0.32608067265071583 1.2170139407828653
P 4.1281194333878934 5.0291780326628075 13.140818206570524 0.3859349258041869 0.26510259030544664 0.6609902564469714
P 3.0327601553139583 8.482052839507224 10.786200473541266 -3.476510197554187 -1.1396823567802372 -2.9142806415178972
P 2.9119372849240968 2.011902210392518 11.776757390992353 0.4428563215815792 -0.7090757991002885 -0.6648538531674356
P 0.5811291788599852 4.284145920867332 5.082231357868036 -1.4560799978152343 0.9585152289471814 -1.2687440221673052
P 0.8218067966944064 7.526784989376581 9.01276450412945 -0.23448769363306715 -0.37823524316708407 -2.1894288105302744
P 5.225018693644462 5.861791936027898 2.7398179836361445 1.3192751981476376 -1.5343960572183186 -0.48283620440862646
P 4.466633809509329 6.537158634329756 10.145345339360327 1.5724198447602598 -0.4115639392262009 -1.4548916339340878
