# total energy = -381172.87069605076 ev
CRYSTAL
PRIMVEC
9.23615784199406 0.00000000000000 0.00000000000000
0.00000000000000 9.23615784199406 0.00000000000000
0.00000000000000 0.00000000000000 13.51805060689827
PRIMCOORD
 96 1
Ni 3.8306503172586566 0.18025101076940409 6.718309230253463 -1.732669248604042 1.0263432443347484 -0.07535826232634119
Ni 0.3530502893275355 2.1081438094828657 7.004729876333451 1.2862763746241137 0.6376852631724437 -0.2773788365696384
Ni 7.9942733637545365 6.545674355306339 9.278303433968679 0.48058314670839164 -0.36661334265743956 1.1482515865064868
Ni 8.587714982543197 4.841612454900294 7.590371559757189 1.7103574724807187 0.28397191640612385 1.1564071257340858
Ni 4.206026247514661 9.004579734183729 9.68775155079804 -1.794063335440807 0.4119413771702776 -0.8775465624125983
Ni 5.692668990442571 5.15856045014327 10.80501817165592 -0.02044438389728092 0.0640891171704251 -1.1943902898460785
Ni 9.204588733979353 4.119455739314042 0.38789092423998317 -0.03633020188960195 0.6651772979451254 1.2891295278021928
Ni 2.4070074075150436 2.4145441123791964 12.664358359042525 -2.154138362759096 1.38580249244591 1.792823806606751
Ni 7.339503656365416 1.6532630318363868 6.273727692305534 -1.8886385370152312 1.2464067921226856 -0.35397071419276455
Ni 8.88680948452342 0.9529683020509319 4.803153093314102 1.0381528353751668 2.128667215071186 0.34132628595587666
Ni 4.161378660120892 4.751245885793835 6.790860174344648 -0.524478048319129 0.08200507821889749 1.3349363017236622
Ni 6.390719333853039 3.2297828275009044 0.8725924849684352 -1.0079151195365479 0.06091611875908219 0.5555601144359142
Ni 0.029286933154095827 1.3630537137768943 9.809481341359408 0.47475291317985985 -0.5660198763166575 0.9617311647813178
Ni 6.723608937668966 8.719320996770298 5.2817190743351325 0.48590661580383415 -0.21124697793757166 0.38426807962472526
Ni 3.7094719253252193 3.2083457049645085 4.049926866094856 0.1681933412812071 -0.37525559171346984 -1.600672926068682
Ni 9.172289889726972 8.035281904927132 5.448315349233012 -2.127512275531136 -1.292343149643484 -0.1220340691163253
Ni 6.672449858940361 2.9408573353925354 11.401353478721466 0.11300512614483764 0.048770741645799885 0.08073289637469322
Ni 6.454781325198339 3.8782996559769956 3.815618470240999 -0.31963337436347533 -1.5324739004949413 -0.3134809816088343
Ni 7.102642386461985 4.874410051680449 12.73167886690262 0.946939351184124 0.26334884083913357 0.17117042163166005
Ni 5.735312331567318 7.344094026852528 9.50140559941607 0.11307531726114076 0.1951045638497543 0.7256128775233632
Ni 3.7705136930301038 5.4353403945845296 9.085522651362622 0.5498252688346659 0.558618955866896 -1.1230198085228917
Ni 0.9454408333447006 5.984365329927466 4.681409448515853 -3.1180102280325013 -0.5245958048439158 -1.5462401010410982
Ni 2.6297004111665006 6.513061481684618 5.888232627430455 1.1940969269753758 0.6593730325585225 1.5445747975235333
Ni 1.8990279579763902 7.9245588437611225 0.3458211485221771 0.2966207155183859 1.1233555945957558 -1.0997919483432028
P 4.350488993568845 1.9411540742575188 0.11686048810501672 -0.6550070422803429 2.1095310084623673 0.9413376887266305
Ni 8.49983293991769 0.11408779349690558 7.547979442127914 0.23787332227584837 -1.1077114603005955 1.1258043132465643
P 8.206511036638565 6.844888927339543 1.9760011744805117 0.4677710825453879 0.5318923385053291 -1.6366969095717747
Ni 0.6333639877896587 8.276428752106257 10.060538585988578 -3.984459394980357 1.3211500465728472 1.1446093617682092
P 5.662947034250361 6.570870594116888 12.524379767659353 -0.35833927557410544 0.1511530979694687 0.12084313413201768
P 4.8923466703645 6.538137650442185 2.781690625926916 -0.37893226923410867 -0.2166007860503173 0.7328968127792861
P 7.588436584672581 8.725878668894744 9.653956448962335 -0.09209768656820913 -0.1395671929040822 -0.45547555300748654
Ni 7.15221284602805 7.2382384209112836 7.305938534861962 0.575420600805267 0.8496071556898529 -1.3840677691429903
Ni 3.078078933636063 9.007923223351403 11.803353557802724 -1.0118219107901218 -1.027719555856985 -0.10989280576810107
Ni 1.2286583798574242 3.619964318905483 3.481357296973692 0.6618204656577505 -0.09367788657113545 -1.5199413152455694
Ni 7.086525290888521 6.2586053309402425 3.644277581018713 -0.3657893040942475 0.8817135493060945 1.6509295082313888
Ni 0.5140984041618168 5.6726727085419695 10.529696616550506 0.6399159522751754 -0.3796084693655269 0.8870778989418012
Ni 3.1066371339301324 5.364628369535566 3.6998903350971895 0.10729033514824748 1.6583725947729955 -0.8764034499470906
Ni 3.9646854410191787 9.060698629716317 0.4593418419226869 -0.5966540562627466 0.594775608293111 -0.45842255145095245
Ni 2.098944596192797 4.150313742930629 5.552012465067942 0.03751239512316121 -0.1542880440540246 1.45622372248195
Ni 6.098459588734917 9.009659621040695 3.05406584665529 0.8013328940644974 -2.0148141391037555 0.256569613133771
Ni 1.9766948099404358 4.856630447681069 13.064547227555325 1.0667103352978855 0.2177073888509347 -1.3957662885268416
Ni 6.50155322891411 5.61202809562772 1.3836263319318136 0.14415918315013881 -1.4574280272026965 -0.06785424063981217
Ni 0.7350143710291279 1.7152468876492908 0.9974025341967073 0.010977324947110128 -0.28287199847372574 -0.019760213346062743
Ni 0.8767062697067853 0.7686025829273855 12.192375911388122 -0.8460060686021559 -0.7978284804556647 -0.1655592460924697
Ni 3.6758153658583406 8.686421802253003 2.703218380992093 -0.33840756964718494 -1.713268732590243 -0.4581351021175207
Ni 9.352441149990822 6.423849432318378 13.333353596862734 -0.7275450615490696 -0.07695748849266101 0.4125162758371412
Ni 0.7400046671542525 7.176383871309285 7.520902721564494 -0.09234939756769901 -0.9516722378834189 0.7193046759171483
Ni 7.777509973488847 2.4786984653037134 8.528822468786705 -0.7198237816454119 0.5539526607394782 -0.7015437523893014
Ni 5.093814983111761 1.551776128592133 2.318129707065571 -1.0492931682627027 2.164862176934504 -0.8861746704012414
Ni 0.05441205354864845 3.3597817502496183 11.79641905043507 0.7949149063532955 0.19347294178360228 -2.4973109578950927
Ni 0.9575309640642792 3.4501021385664696 9.167293128291302 0.30434739473868233 0.7369637837598082 0.09654055283091115
Ni 1.733866982019551 1.2894322989825782 3.2448183689817305 0.8664440247415337 2.4619060960332373 2.488818089932733
Ni 7.750678934726146 0.44572497429864216 11.610180238484991 -0.1949073602372837 0.8939059776072281 -0.8881541627251155
Ni 4.47507552777541 7.738856652586298 5.051465351808926 0.20595230519753563 0.18942242586331248 -1.5472358892954643
Ni 8.892535902434908 3.6916091959045434 5.08443658835801 -0.6103444092656456 0.12478720638143025 0.4859873484430985
Ni 8.082109225590434 2.323309344428092 13.318983982368065 -0.5743523074417528 -2.495010334786374 -0.41339173646355903
P 1.4109709010749643 7.413873199951395 11.795121370247061 0.5750771014229192 -0.6079324573900433 -0.05160358310890468
Ni 7.699815413051035 1.3433529889297888 2.0599753986893243 -0.021110299616053964 0.9337369935612372 0.31293127975295143
P 2.735759212582024 1.8234946584922702 9.766061239353439 -0.37377000830687884 1.157757212004077 -0.20361414398266225
Ni 1.1187388644306069 6.7493870544285866 2.13686548977215 -0.10207562371652742 -0.3558303931093227 1.5145548541226754
P 2.059053630128733 5.000788400523835 7.603389924347904 -0.512933023794007 0.5395747947512514 0.7743548228137568
P 8.021418431886577 6.023591292621163 5.778223521271796 0.40154280754477295 -0.56331738978383 -0.8800186781021747
P 7.920384100380489 4.050350805743465 9.929373136494345 0.8157374995256016 1.503612753288875 0.9598030945206695
Ni 2.8695819047103455 2.8300142041735428 7.703206930239904 0.3251365635698917 -0.34339242445628604 0.33981601995893734
Ni 2.262276812881128 7.279126892030898 9.327712260771113 3.1895118356169134 -1.6658007689162666 -0.7130808064946235
Ni 6.064147262055593 5.488485247266313 8.1087084367893 -0.635942569449724 -1.8023816254985152 0.5492567979257057
Ni 5.705165512110707 7.647104659791575 1.0210036885341702 0.5052022308086525 1.6057007183005765 -0.5601863003540158
Ni 6.069781318387864 0.7950909602311892 0.1857973236014185 1.7802107458284309 0.46028171614687824 0.20135774384831773
Ni 4.43820478535176 7.312275462812079 7.373326466674886 0.15216585550469924 -1.3179557080052655 0.8375078013231576
Ni 4.533900617579074 4.2661998163749 1.965119133217099 0.5190843881073834 1.0471020741486547 0.31451122264556153
Ni 3.077635598055819 4.25978068661928 10.784579477790865 -1.2753383875553712 -1.6805491308700347 1.1188749331165828
Ni 2.3887752317774975 1.866378139722983 5.4717964335174925 -1.745762334342574 -0.9560518550083534 0.9722441484974997
Ni 5.905146803432566 -0.05886018720376609 7.55396816692438 0.8414963536572604 0.5051942603888525 1.1088414601399808
Ni 4.85095021055919 2.7123732607241378 5.887421692764924 1.107352277188964 -1.0672700644560973 1.1997219864716369
Ni 6.9061523628345505 4.103310935266813 6.3553088279968195 -1.3839232731453264 -0.733602323486743 -0.5515365950988179
Ni 5.483516194304409 8.850391313837935 11.820656576053342 0.015392680405986391 -1.4727970534595989 -0.26134826546933704
Ni 1.9050129883096878 8.280575787013126 4.2513859426841965 0.6457896374471329 0.09011999401654802 0.24847500905109465
Ni 7.796333263333385 7.16368415416687 11.79355307063195 -0.9822845634526375 0.5221671407977652 -0.8876720808823745
Ni 8.701642990508056 8.73190064385973 3.1844610005788474 -0.17131543184995657 -2.0908480873408832 -1.7106683188529184
Ni 4.09261546439342 0.8397293114670356 4.426377885132952 1.0369922394081623 -0.04774127194002101 0.12334558883889725
Ni 4.8106159089148814 3.0331450253467205 9.698566168108625 -0.4828961111122845 1.9863764525883532 -1.9677452106404114
Ni 2.894787379678817 2.7246111699704643 1.7336222238346242 -0.523426210015847 -0.17009827161340382 -0.7911718943710955
Ni 8.339779559291582 4.3914975347414416 2.5007719591209177 0.5419224690478215 0.1088185988673158 0.5410606352681584
Ni 8.144758084773706 8.920364446253158 0.1254427260459123 1.0511759871077122 -0.9178097808080192 1.7360461354960746
Ni 4.522807991915045 4.30791030554955 12.840728336253207 0.057132226236617734 -0.46659685973162873 0.03119030955987532
Ni 5.994155657324527 1.206907227951689 10.004736490672704 1.8195529950714793 -1.7679823220830388 -0.7772599122756937
Ni 3.587305264494154 6.499124119380689 11.41142458531935 -0.10203885694132103 0.662005327975047 0.26378207172181023
Ni 1.834023878523072 0.3658395972017909 8.4978249991855 0.3999032150588209 0.14014569111537153 -0.5254026170159274
P 1.3567823625480222 9.10736893569495 2.028680524803039 -0.45600442892776305 -2.471793016129646 -1.8757642521557243
Ni 3.701260980932778 6.397452492977999 0.47162408472703793 0.6374973155313537 -0.4227770343332009 0.572123418111234
P 5.706523227325205 2.0885908631625085 7.888066783812264 -0.7417354941168387 0.2898342887241718 -0.4320702867096688
Ni 5.3447152130562605 5.424377075131405 5.126801921129312 -0.1666365383170485 1.1563814147024731 -1.0376576409063032
P 6.2261587081611145 1.690946556157151 4.2566182261468715 0.432052803208172 -0.21249601985332434 0.35050975222735764
P 1.4996934340713513 8.957013520886685 6.470564071855035 1.1186286214337315 0.9797312009031641 -0.575084557622087
P 1.7863745398047333 4.737964290702349 1.6462010654894124 0.47551421682591655 -0.5781583114514043 0.6595656081853027
Ni 4.0401356150820025 1.8538262011073168 11.462603983595383 2.772857626351999 -0.6745391987759995 -0.8683037036580917
