# total energy = -340873.9394506361 ev
CRYSTAL
PRIMVEC
9.19944106138820 0.00000000000000 0.00000000000000

0.00000000000000 9.19944106138820 0.00000000000000

0.00000000000000 0.00000000000000 13.46431188709502

PRIMCOORD
 96 1
Ni 5.081568799240492 6.793575562670347 10.534611944436492 -1.682525023649483 0.01704255730458355 -1.3386471749163462
Ni 4.136565425946877 2.1167545673977606 12.101251901630475 1.1488061734583763 0.2962059965784705 1.091042741395663
Ni 8.758796938555973 5.238695250857008 4.2604174996068975 -0.4819982818883634 1.569713244462374 -0.4980077699427423
Ni 6.015542042821683 0.13789134051083798 9.154708679480692 0.4856528479218151 0.5580962505942065 -0.46445975878396784
Ni 2.5221003350281417 6.815212647810982 10.365459983595555 -0.16371422246393097 0.6186642419852507 0.6277132395613964
Ni 4.380231018684971 9.140868120554634 7.315214223322967 0.3323955591251501 2.4324350831573143 -0.6783588296324059
Ni 6.884742022595386 4.701990665742304 2.980258253328317 -1.583159599775267 0.761718879217301 -1.045433171086664
Ni 7.830913724891068 6.266364800627555 1.4688085022925874 -0.5292790692521981 -0.1909568602299679 -1.3775096563094986
Ni 4.043881058263247 1.115165432752086 9.952711425823733 -1.5023277159288642 -0.3522056518725418 -0.5034945040889265
Ni 2.9888799693971113 4.431609896453018 1.2280701716683327 -0.7248783133501838 1.018302376308143 1.3399268129597182
Ni 7.2892138433344575 3.3586698977126304 4.727198973864059 0.4136087375703716 -0.3542262818469964 1.8940615078030156
Ni 5.131852943534161 4.799256355024589 8.872617941791951 -0.2785684860023654 -0.09139089030917165 0.18413572354307642
Ni 4.59508396233273 6.035688818526611 2.3276158736124746 1.6609416410517526 -2.371719767555128 -0.31434358671944573
Ni 2.2984527258215195 2.9600673203067758 9.750558310422846 -0.08656904344049607 -0.9244959345789433 1.0380155384663543
Ni 1.867155335239722 0.5451781901840225 2.233944405913713 -0.2760104954672021 0.1587270536619847 0.3920760057049183
Ni 4.827756223122245 2.243762049307457 5.938354133437118 -0.5163597900873687 -1.2818779884461018 -1.2103180168199283
Ni 5.237508522973019 5.086849278352195 5.987902322453895 0.21946396653072525 -0.1757644687602457 -0.3060546072377761
Ni -0.005731251718799131 6.085706179032406 11.198981771489613 -0.8677599153394797 0.2698161937310321 -1.0965603287797823
Ni 6.795222262602393 1.4935844366891682 3.513700716678195 -0.5912693949120655 -0.532318113188838 -0.7849927621435772
Ni 3.689601387408234 0.03280336657928402 0.2349040451666907 -0.14027964559007455 1.2218429867403926 2.1309423842586073
Ni 5.001662455051905 3.2014422522455424 3.818331004665859 -0.1620275787901274 0.033887910996696476 -0.922703618565211
Ni 7.90553039052699 4.560034092270732 13.039109149185464 1.069348801361997 -0.4693757080283465 0.6700587944071428
Ni 2.210800452343641 1.0296290306952731 11.983843116419646 -1.516430988099466 -0.4183195127824796 0.058048824513616155
Ni 7.8339127426444035 7.3076035258158045 6.173306015696807 -0.5632813943395718 -0.8754853090081954 0.7616114071051594
P 7.408530592600629 9.117759124860214 7.529242897060607 0.6924901268274654 0.2684789629768473 -0.47390547757789997
P 0.6334247475479913 4.9817088676071615 1.6026704876624398 -0.25021256056749164 -0.4230102333899295 0.513101173940755
P 3.617247784248756 4.791814007287015 3.8432670093351637 0.5929359839812111 -0.5887787672797279 -0.7518471286295438
P 1.6431949450404206 4.711962859744196 10.78160129519385 0.05782565275921654 0.659248076944884 1.9402755444652326
P 6.313677525490771 0.19006688986612072 1.8889488108766965 -1.5549258017405543 0.120535887304244 -1.020629996000055
P 4.090825805488018 8.156629131561697 9.28299672357218 -0.8039219949479122 0.7541379815462496 -0.287089378989183
P 6.346749515746121 3.3153221319036716 6.756054722766183 1.632396225313892 1.1641690290676918 0.5863719576104482
P 4.845189163743632 3.1152342909985653 10.285414727848455 0.024930444693092548 0.4522742724613695 -1.2734175163835746
Ni 1.0322600708101632 8.757131839742005 0.21502497319373234 0.6667672681400646 -0.954703311400259 -1.2878534893032465
Ni 3.534489613362212 7.0358796381461906 7.4271300223358905 -1.347322591203157 -2.1471151373637283 2.6345644150643337
Ni 1.7173976358330911 5.780211143594395 3.4422725772794083 -0.22115163864579335 -0.3075437901887929 -1.8265325117131057
Ni 4.857056442583522 2.9422940003698255 0.9994953418829161 -0.8213702723313466 0.6670904558074382 -1.0096711829957064
Ni 5.734701509159565 3.9085388828427456 12.23620494069832 0.1255770492725773 -0.35802354410589954 0.8468635315064448
Ni 6.592273395558368 6.281028709519634 11.951003872020612 1.700016495566027 -0.9715970018318041 2.856764549579299
Ni 0.22811669762555103 8.675689188912905 11.254158178486424 -0.13030710775839494 -0.5504636737496132 0.21186352847564802
Ni 2.4105755122560684 8.345926028219369 5.849448896100331 -1.0266008688715094 0.9682568817149776 0.39162272021758365
Ni 7.031638695863098 2.804357582598278 1.3959664088180717 0.936184169550149 -0.383995542689629 -0.6057339070768277
Ni 2.0753202853087216 0.1533951583626713 8.350391436861914 1.313165485705474 0.6745394558863157 0.6946141151490036
Ni 1.4149108175893765 5.22907263561164 8.712957964134734 -0.027202785667037023 0.3577291527939323 -0.47037689559935114
Ni 0.46441261820966434 7.388098634225905 2.207123435791468 0.30696837730129717 0.4066364200175964 -0.15137446995165543
Ni 9.046987825546054 5.025507406023218 6.66114501031405 1.717210233736494 -0.3444375778913487 -0.7360217315615131
Ni 8.082518435178638 0.3743822892433278 5.1384931000199225 -1.1472611975687594 0.1267075633325947 0.8332891352561198
Ni 8.302201085331003 0.4793506704423867 1.0842056341414172 -0.8946222869479625 -0.8385514120963234 0.8772110334500506
Ni 4.559638516309403 8.926272761253788 11.679307582673882 0.49140054903886987 -1.5037060843336296 -1.1613891523297093
Ni 2.261866549119009 3.0812147583242164 3.1412917075210345 0.3006162098310242 -0.47863887849782727 -2.8197046686125247
Ni 3.9075269443370186 2.4976482209533937 8.069108410089562 0.8319976701382059 0.6264014627285083 0.16219778581940453
Ni 6.91139280305985 8.313672788209562 10.982435210760904 1.567051638469811 0.7775589315733511 0.6502091066710672
Ni 7.2294818731736825 5.259899962272469 8.005017744801393 0.17585111493678102 -1.0024656663862024 -0.7022832016584872
Ni 6.473775396537739 2.4380910401708804 8.716863126822744 -0.9337601334896887 1.8063768627008372 -1.956728290704617
Ni 2.3678441089915063 3.610421799055579 12.725874624066833 -0.6757224204508233 -0.13980553416713343 -0.9345474052776744
Ni 3.3092045036645037 0.8285071726261334 4.421477632178403 1.2922747582993936 -0.31430090640696834 0.05619814445812257
Ni 0.3015539949302536 9.021744559548647 6.912873913054596 -0.31282149364796447 0.12100022853517224 0.47674089014416604
P 8.335217878940584 7.531425924400689 12.858242620224594 0.09048611910671514 -0.049480880338947035 0.5918684619486452
P 7.125988162360697 6.456333256475392 9.707714673978561 0.43734696172757576 0.4675761929257624 0.8732782740545476
P 9.144317910915067 9.23329490389135 3.2039536996279376 0.07730921540512492 1.0255976244179756 0.47838048263011806
P 1.1715948036078063 6.791312500193903 6.999907064155789 -0.7395258880600296 0.8186778131008481 -0.3818923803036971
P 9.083914381564128 3.5627226976719943 8.538110629394748 -0.722922989396026 0.5468047368407873 0.627036782319662
P 3.5573962213554857 4.8234140869885795 7.390789470707043 -1.3296647689120777 -0.9638649232948691 -0.02646745016290926
P 2.754349421533443 1.3471017382647081 6.508472928010925 -0.4275325467403153 -0.10645806905493922 0.2670949381451271
P 7.448557360222611 2.391909846545886 12.596281179302956 1.734266932108465 0.5574779002839173 0.5400157389434119
Ni 7.267944735832269 4.369182490090624 10.499712945206255 0.7249814145869514 -0.44084340491660856 -1.0293097831622402
Ni 1.1168765287708606 1.386613337192866 4.66559951718817 -1.5632312362824563 -0.5177463860222502 0.4671715012881761
Ni 2.568483916354282 3.209408968117902 5.24888731149787 0.8517445137478299 0.8031054125838879 1.3043612571502827
Ni 4.317187249778181 5.786641552826242 13.06443521015152 -0.4281472975061787 1.1217278291843455 0.7316593408277593
Ni 3.8498832472744255 4.841803769469927 11.07490799130243 -0.9935220840396696 -0.6335720123350186 -0.6282829960219373
Ni 1.8019772960299438 3.3066562585182644 7.38238762127722 -0.6813400237479169 -0.2616719673573429 0.32854636058238906
Ni 0.46125812990408455 7.508887294045861 4.7893494770535225 0.5615896084594458 -0.18535365511057758 -0.7327551449950993
Ni 5.913115467160191 7.389993719063903 7.957959844452801 0.6875042435770997 -1.593436556221243 -0.38233152472364473
Ni 0.29645934452596634 2.99739865172714 11.456257937129735 -0.647901027363181 -0.3504534450681255 -0.5270962026682664
Ni 0.42305101170421855 2.15333154465931 0.3355496090581032 1.152836120553376 0.5618598314016968 -0.6753884341501722
Ni 4.363432839489904 1.1693225416904012 2.441012782620143 0.568392490313892 0.3055758678291447 -0.7095897626222295
Ni 0.6378791168613821 7.5615908913123135 8.977033436589245 -0.7597920945082334 0.1578726760814894 0.27342139458378717
Ni 4.5150856237345325 7.562455638762662 5.468718992593805 2.3172031245644864 -0.2689816136448787 -1.4095309464111017
Ni 9.11692197573275 3.007324848524225 2.519482174130597 -0.04287571631760358 0.8007219999533759 0.9166712963282019
Ni 8.414323871765552 1.3914246448155496 9.32155802024905 0.3410604338889997 -0.6738619702033168 -0.5074187788439971
Ni 8.518608734501196 2.4329669515555175 6.840220408119784 -0.31625982990555207 -0.5504199649958714 -0.9801346069891702
Ni 1.1059475929090092 6.157084641450003 13.326356173532929 0.28278021009086785 0.3686820522610102 0.1297499497033443
Ni 2.7358401463196005 5.8175700733376425 5.4556714254786005 -0.04838404773034248 -0.008113887356386025 2.1563875638045893
Ni 2.895156064884871 7.273418403204156 1.6670969325456917 -0.8990756947336258 0.39281751185663316 -1.790528325704355
Ni 6.215694279813517 0.6935136560180589 13.107346002514827 0.064878702951256 0.464050182050375 0.4778053268529384
Ni 5.686202056412358 7.758293337943715 0.5952590268324504 -0.25431604121290396 -0.9854398212521674 0.21850417372061723
Ni 6.41751161561932 1.746789849703979 10.796842928978291 0.5587374837226313 -0.6687488173464676 2.6487299079314384
Ni 7.34932299057464 8.02324643706592 3.277967801880904 -0.29572082941193584 -0.7910875621874054 0.07114885223068391
Ni 4.740343135109357 8.095544843579631 3.161918694044135 0.8619865031908122 1.0352405468243784 0.3110142652358966
P 1.1064443627209115 1.0398680084850378 10.157745806133653 1.0317613300265263 0.4874544199069283 -0.19985082028548806
P 6.472625466417596 6.4363428712668025 4.667336371641635 -0.0360293828197315 -0.2571699657219313 -0.7753441833102195
P 2.547895567483218 7.967267838817297 3.6432674830632843 -0.11353014541037222 0.3301885241715023 0.6929765795455808
P 2.9556607880863828 7.5805969363380585 12.628097445867109 -0.6395498271850082 -0.9961024431723362 -0.20031181908230664
P 2.8757912416616414 2.0056253205870167 0.9380679147530004 -0.9099198365369812 1.094424256273386 -0.48433618599292066
P 5.910732811951252 4.952187861562818 0.8254741169412407 1.3476635194823436 0.23537086756896883 0.5696839554318059
P 0.35364858920507825 3.4242435128837387 4.783061659156573 0.22500649361550926 -0.8794057271085242 0.8690809481437484
P 5.631161801141772 0.31282423005176374 5.100563804937083 -0.010529695886730254 0.04466546122817469 -0.013549713659976665
