# total energy = -381162.47416806174 ev
CRYSTAL
PRIMVEC
9.29481850379868 0.00000000000000 0.00000000000000
0.00000000000000 9.29481850379868 0.00000000000000
0.00000000000000 0.00000000000000 13.60390641497062
PRIMCOORD
 96 1
Ni 2.271523458625774 9.315080977492894 1.4200298039852552 -1.054280594174965 1.3395198073292867 0.04059823313733653
Ni 7.11196738136123 2.3233234808648606 9.37001707141751 -0.04769190675932431 0.9018571141335049 -1.8706603552702556
Ni 3.5236098386334698 3.755971000656604 5.5660922443234595 -0.5789905775447125 0.3085282655892493 0.7306147016133289
Ni 6.9565394301891486 7.998135355571623 4.992389105500397 -0.1857750589187123 0.5904224735307381 0.38567035928889065
Ni 0.9160954300879124 0.661175744114614 6.41700311385822 -0.6100289349077559 -0.8729118918540644 1.625170911210046
Ni 2.051347803359403 1.3371525568481983 8.144849414612152 0.14906690486440133 -0.7954923761233202 1.5827009149712936
Ni 1.3611796620856 0.08312727774861796 4.414507945863327 0.5016849616840133 1.3680114870110762 -1.5595044222501722
Ni 0.4232832357368268 6.648044411686495 7.0926415952066435 -0.5852913229517598 -1.540255344212573 -2.3049639021858175
Ni 3.8291955790164685 4.392591693855873 3.246232012747363 -1.4609337263631097 0.9199196280621705 -0.43119354053167025
Ni 5.184510210771391 7.878399506570383 11.52543337809608 -0.25368843493123405 0.4452901278340525 0.8342620406923503
Ni 3.308509154144515 8.219872540307968 3.1888095549345414 0.2535531949049504 -1.298314022514938 -1.1573898013623292
Ni 9.085610503952866 6.973084206716257 9.176446903977654 -0.7690827757815399 0.06970672046751865 1.6349423887745134
Ni 4.17609678662587 1.4431320748044278 6.884324269093803 -1.416913869138734 -0.3182879160791744 -0.3611458917849651
Ni 1.8578296869018782 8.273066785288103 8.243287117021136 -0.3017279548379642 -0.2732478451204004 -2.1964947162381203
Ni 0.565441904341436 5.725412865388548 11.07171611888582 0.7676820387792713 0.6820254798507157 -0.866554839287785
Ni 1.3695171140770699 2.6790268813794142 5.51437029855787 1.0568493833434056 0.04140221709587063 -0.8476693152371917
Ni 8.743152219478272 3.681575275194259 1.682613067625183 0.5400615045796828 -0.08417277529417762 -0.25833081879925185
Ni 0.5342773081516938 9.21425078886027 13.300715783909617 -0.6575208098411321 1.500339481854242 -2.0674052829369107
Ni 0.25358959747833804 4.655551397635883 4.269069135889945 0.5518021900553787 0.4738643399273194 -1.0161943288262048
Ni 2.082383201575141 2.4912901418881037 12.556160872471168 -1.38142724619635 0.6981529815401977 -1.9570548208061003
Ni 4.242536147645965 8.378869701697134 0.647427778406049 2.04076788285504 0.45794689736611455 1.0842773976473714
Ni 0.7792413142720788 7.759360768939666 3.0091704611232406 -0.4777310219715773 1.0544690560366872 0.5315750643752264
Ni 4.657326707926153 7.853498688415257 9.190050800002977 0.21257135317595002 1.804564492082447 -0.7419992893011866
Ni 4.99529559517457 6.433371288838129 2.5012002771314763 -0.5621189986003545 1.010600122567879 0.487763980727547
P 1.669656090951706 4.910712748884297 5.873404961941704 -0.17818799060007376 -0.13668781447375813 0.6837128948554677
Ni 5.60405971800769 0.5963490340649981 8.518507615585927 0.3801913384521904 0.43561943751350785 -0.5040305790980546
P 2.3452220727175948 7.084677794909774 1.1471237151706044 1.0671718483153363 0.29542412410712343 0.49758482347271077
Ni 9.071091997809415 2.4232427773066663 3.7211990854948556 -0.49815072327850984 -1.2515682817189673 0.7219948211548016
P 9.044852725822883 7.669712246690251 5.080120106739957 0.9805637241067887 0.2092983388516331 0.0642130443427991
P 6.606329267274325 6.608030219018405 8.754195393069203 -0.4263513819480205 0.4440523987722094 0.7965280164766861
P 0.9166047861293087 1.824489173754273 0.6456784936069468 0.15546303819873225 1.116964089247115 0.9611506096874997
Ni 4.778345241849157 0.9058506813866884 2.742533727234171 2.284505120110833 -1.5786069474075781 -2.014634676103098
Ni 0.8785257746257935 5.7820926672213036 2.1105372061260463 -0.8214774873331724 -1.024308730403223 0.35902678855943326
Ni 4.926383812493682 2.7103504189616365 4.20670834112833 0.2687520141325759 -1.8334701193732037 0.8746998369924226
Ni 3.5994183764734107 5.899346799743479 6.74848979484259 -0.9510132641431814 0.5610280795290209 0.4042987730233554
Ni 8.642944783669982 7.945368672232076 1.1307732003454156 -0.7307394001166512 -2.2862593837977787 -0.5062566402150959
Ni 2.26200556471355 6.378253016475347 4.391245804169847 0.5374279236115777 -1.073967531080931 -0.9307709689543776
Ni 0.4516119828712765 4.453324036455943 13.005714982576656 -1.393255863400162 -0.21255361256413716 0.49389169089183976
Ni 3.4677851600818896 6.163366112806687 11.171283141715053 -0.30696040688149717 -0.13059198598866542 -0.19149190679783148
Ni 8.038186727512809 1.115285244656022 11.022891367976131 0.9068124012562511 -1.1969002007521257 0.6441790984269036
Ni 8.002234370430305 1.019548616437362 5.951491659740517 3.101010093930079 0.5216490635107661 0.7339100845351489
Ni 6.478386093737446 6.927567481630161 0.41774073560024555 -0.93531410824037 -0.5570025033093956 -0.23217010124348403
Ni 2.543015805581001 3.3656444020726806 7.788344800762409 -1.2448247923475464 2.578514880368933 -1.0000663129160907
Ni 7.223310009461358 8.472375573530115 9.770842167241529 -1.223845618992718 -0.2829298482948547 1.037929149400135
Ni 4.641692823589863 3.2146128999440386 8.17017965337152 1.6140858570404784 0.9489813213148173 1.174648331332461
Ni 3.6712394372739534 0.8951374738444721 10.31901151078503 1.2362776741084838 0.27378083480573495 0.02442702269411277
Ni 7.377585403167505 4.952037510928973 7.757015686289223 -0.5934252649128039 -0.3708806025742258 0.41577900574881305
Ni 7.569532695336783 8.183771466133086 7.44509087984359 -1.0828504353928579 -0.7127730454462177 -1.1937349156502668
Ni 3.737762451658511 9.159922576050748 5.123380979431036 0.7918480945025137 0.5161834124105046 0.8571335459738851
Ni 7.9398940242688925 6.159852671499244 3.2600403947747068 0.3794765717733529 0.08871025815321497 -0.5121897178700792
Ni 5.170828238272569 3.1671349682022023 13.352492569103019 -2.1153288460910664 -2.1203406974833614 -2.401256857782297
Ni 0.25983013846727093 4.317396614021993 8.484252492320193 0.3611967996275586 -0.41693985882613355 1.1095672825624117
Ni 5.728610282874685 5.318011685635917 11.954853982339001 -0.3098181880452664 0.5666832209322692 -0.33358623699914164
Ni 5.988735067081231 0.7798129455959086 5.584961654900809 -3.5428503155423177 -2.0046441405492894 -1.3051019919710491
Ni 7.797608946135761 5.86121945518494 5.576758048292479 -0.44235855600955426 -0.09825265042601143 0.4339870441164074
Ni 4.973778090871055 6.684145485861377 4.867082871907755 -0.21084665717535947 0.16634394677729417 0.3839965711308935
P 8.976294146236393 2.1736025481128047 7.987056861671252 -0.061635770533926104 -0.11980569400643884 -0.3403621222703944
Ni 6.479399228929275 2.8145918059006916 2.1765164736415956 0.050595453559364484 -1.0274040814990952 -0.7568348116521224
P 8.189655086100311 5.754152443490693 1.0701133573278796 0.24680610598910396 -0.039452292458351405 -0.24041742885394077
Ni 8.662212941951273 0.7298291308474945 1.825195579943071 2.723293442270626 1.6378027410414437 -1.4578265481926957
P 3.388639782481706 4.226493291305634 12.051931852834551 0.6003531023808886 -0.18316641765127165 0.7697522910447389
P 6.588529690280273 0.6043360714075509 1.3570657755176798 -0.8847142838056312 0.21398597413528955 1.368722911255804
P 5.73510736084797 1.3405544603363566 11.435171397840604 -0.7999547827700481 -0.5663795736489213 -0.16513167163674786
Ni 7.511542324127441 7.269235706551495 11.909525942063862 1.4499785129031868 -0.4236784631015477 -0.6002772548376307
Ni 2.1774227184232773 4.574286801469307 0.8702980014899528 2.3693209283056484 0.10390753471894362 -1.2717360149160934
Ni 6.993365500189375 4.1794057419312916 0.07791939106988831 2.5392176254312075 1.898086055581376 0.5422168603597888
Ni 9.211992148019771 3.5063121818261953 10.91204694213547 -0.0031647708812268076 -1.399484617918693 -0.09976188798168624
Ni 1.0228296872879628 6.990168082703237 13.087256564327788 -1.3965648731687368 -1.9310293432766161 0.10618373234763002
Ni 6.311776476182157 2.6223191950918374 6.696481568674173 1.5385154787033308 0.45705549590009675 0.9379541169663781
Ni 8.149631598613947 2.078962708450436 13.249565469467857 0.9092084122922535 0.11493731017054398 0.7264903950323102
Ni 6.841255799140989 3.196711079948977 11.56804082506252 1.3026949251914532 0.31311048564329297 0.21816607365490812
Ni 1.3412608665251546 1.4333911052536359 10.373373184940336 -1.0354017549925911 -0.948892618255753 0.8352619427117743
Ni 4.840016361094867 3.3804324579460676 10.50271894655471 -0.6456659673850752 -0.062016293801796414 0.06972446107933153
Ni 7.631120161218029 5.170735290089833 10.2066566769749 -0.7016612518037723 0.09800942406695379 0.07895189321487049
Ni 2.3654011231897027 3.5504253893529683 10.185693143840496 0.025707946289065406 0.6161509886450938 0.14796364449789356
Ni 3.886507428491833 1.1650032276018099 12.95833278746304 1.5877112237016915 -1.940801849282348 -1.4924590506649007
Ni 9.096913002973631 0.056763455197219155 8.68892346122428 0.7400318811621707 1.939149144170273 0.5629047277264435
Ni 3.1894890061503456 2.519444146439009 0.9355624974802581 0.32633881140810894 -0.2668249723131921 2.8760300826771306
Ni 6.207934766428869 4.541727053056689 3.785042403771119 0.620772289467189 1.7251564851667642 0.4229066179325297
Ni 6.817842151909649 9.299930423706833 13.021577519442479 -0.5294009395420431 -0.40716915259261494 -1.1393933647849088
Ni 4.077144151284525 6.148847606663235 13.658865580593796 -1.2067647522510312 0.6888383890074912 -1.341729670496412
Ni 4.503925027137728 5.717949126314801 9.0346535217312 0.19495775385924488 -2.8101391364112764 -0.1984094598532712
Ni 2.084548894232903 7.865256633531432 6.07610264092629 0.2730640112443684 0.23120927999211147 -0.49166845798827574
Ni 1.5882055984196557 3.187388377220499 2.6823497789122466 1.4752498858754657 -0.3868939472833466 0.24238483699295674
Ni 5.000956139503226 4.646684141002815 1.271287615597415 0.5234730040933823 -1.4265377653817433 1.314407328532375
Ni 2.7652456156858505 8.244819832554462 12.521661295484838 0.7294690180446598 0.7424541174504181 -0.9158570279570227
Ni 8.77784977609383 3.7951858389531603 6.298866903081875 -0.5363496029457344 -1.1425653347549871 0.081210350231744
Ni 6.673512213756314 7.949662878274506 2.6950018855463473 -0.9265322482826817 1.2223885748312173 -1.197176594341964
P 7.137174928519386 2.684575887888787 4.5250540080374035 -0.1900788285003888 0.3430934051586285 0.7634582305059109
Ni 5.5345995410486575 4.660812264778774 6.328999774443242 0.18334125266623907 1.2098745015246066 -0.6649379282408098
P 3.0734803792768415 1.452724327262841 3.5757184488392415 -2.948025599178826 1.1053128781614319 0.8773087353701794
Ni 2.508225300782706 8.087170419814976 10.157737118918819 -0.4134678411171331 -0.1202191273947736 3.3247024967198544
P 1.714550063213466 5.934341790543795 8.772696728842915 1.4300241812684469 -0.02524231950655653 0.9766805870022987
P 0.23935086536492395 8.300402845830927 11.003016258061571 -0.1520871797479639 0.4581291885802497 0.3365823435129881
P 4.905656367743428 8.195585180158904 6.848899857689244 0.08615406739026453 0.3835844232941394 -0.4505454626957208
Ni 7.440808757064917 0.7295567926720762 3.515698089318933 -2.2828277324084105 -0.19302736960575145 2.396178157707809
