# total energy = -340867.9477855467 ev
CRYSTAL
PRIMVEC
9.22613067144054 0.00000000000000 0.00000000000000

0.00000000000000 9.22613067144054 0.00000000000000

0.00000000000000 0.00000000000000 13.50337482923206

PRIMCOORD
 96 1
Ni 7.164404054949697 0.41388329353851594 0.9957365971268284 1.435523513820121 -2.265343716691034 0.1775634696421974
Ni 6.62330995087352 2.7304364296297945 4.648077514214416 -0.07632319734277178 0.5599921820653389 -0.1485269732005313
Ni 4.544302920481664 1.651846412389147 9.12013890993263 1.6501571488417386 1.6937761710832702 0.3693579952821123
Ni 4.222163346448044 1.4879257510346005 4.88877526610727 -0.48633264759765926 0.3616701397195513 -0.47840696499267926
Ni 7.493112633929816 9.280103406510406 11.028421930307653 0.8682180859228209 0.03228945616132503 -0.10685273339019662
Ni 3.971895329343106 8.503724521330856 5.4563492874544375 -0.11225950622806473 -1.1660338501905725 1.781024757089294
Ni 5.944737275578563 8.506224802707965 12.734060374213742 -1.0704320071238467 0.2458406567520411 -0.5505783449506066
Ni 7.499589377570887 2.3394514694855406 9.896056488585037 0.2706931970193467 -0.6429837925672216 -0.00932179162155814
Ni 3.8386792304351136 2.7427994445571935 2.9544302721748474 1.2835168096011056 0.11634678892356091 -1.6561352208020446
Ni 6.246099603629718 5.938140592240435 2.522835575833251 1.4713140411561694 -0.34727376178856323 1.0169972843434743
Ni 0.2074726105819981 1.9717163583092303 11.751487620145433 -1.5042056496778675 0.6919784772983695 -0.29054854118237705
Ni 7.653435104372657 4.734185913183747 9.511817675093702 1.3563070540899544 0.039477232159015885 1.2992229074824528
Ni 2.151441381283653 4.517131966033015 1.5462441221958594 0.18293630391833657 -2.57279366161444 -0.0015624593911134383
Ni 1.3937546365838855 2.4776404527561207 2.2727668431480392 0.4044124157830842 -3.2068356716073416 -0.37604903414904267
Ni 1.6509145732043204 9.24301436172821 11.593308379827691 -0.581834731861727 -1.741285272407827 1.2936137888257915
Ni 5.573247129271318 8.017332145243149 10.210495934067609 -0.408811059071412 0.07246885659368811 1.1382340543694849
Ni 2.194029199869378 3.411380220474262 4.15547410704527 -1.1331697524727002 0.8434786741946118 1.5661106147127803
Ni 1.5707487249176288 5.875873437206843 10.305316568108537 -1.2424418939376667 1.327415824976901 -0.49607661435830047
Ni 5.612144495639909 1.8151212446056946 11.531773779559199 -0.03856783297086906 -0.6711684825315537 -0.500808215506015
Ni 2.2171498830097223 4.431541152987137 12.024201890248031 -1.0469580923716229 -0.7505374086791848 0.6692401551605893
Ni 8.951081139091832 2.533255567668329 4.725438618816086 0.5675501969182548 -0.5688650590749363 -0.12486253970405593
Ni 0.371216130230122 3.58699038922658 0.48986601423708637 -1.2739355936705739 0.702964286885912 -2.1998284085970434
Ni 0.8448976662689675 1.0258350027967182 0.31437855302098805 0.13416761915506573 -0.4833787071756579 -0.10388850855555011
Ni 0.8983594023124782 6.05951956566197 12.900449025488498 -0.6140640242090779 1.5857875243164172 0.8083093253823305
P 3.847167270534522 0.10490848517646621 11.578711718695873 1.1098066522667274 1.126397466745873 -0.4281547537053465
P 7.455608413273192 5.899178642958044 7.377487998127847 -0.5863627016390676 0.5201305699837107 -1.0094456972484616
P 6.674524201516796 8.897089823155163 8.587714600727553 -0.043401249803770414 1.0344234502397216 -0.7745376282485241
P 0.27927404891855584 7.814431082345124 10.511013148561043 1.6512310986322076 -0.4842855352606433 2.054655696580726
P 5.895174502302453 6.088840208527099 11.926234223078941 -1.8580272398872775 0.9308393602984679 0.018740770942612884
P 7.9684613317577515 4.710659280299518 4.625175490367937 2.858215937313845 -0.3373405618352513 -0.7173850902969322
P 5.594310385300609 3.7753233919974667 2.3905965241497453 1.2937217751585655 -0.32007071901121004 2.31314643799661
P 2.200939571645961 1.156615403241402 3.9140474908395313 0.06350033454649065 -0.33491292623036517 -0.6694941801529244
Ni 6.254181693985242 9.277335567347556 4.935024013292393 0.7906548455253609 -0.4233231366446581 -0.765459834316972
Ni 0.245785040274174 0.48430727058502837 9.636021689687453 -0.11307891680556653 1.8359869722577864 -0.691173722008887
Ni 6.202238579029082 5.054987698288658 5.415839193466958 -1.729284905512841 0.3109499876568645 2.352654266283245
Ni 5.117300983974963 0.6839293666881284 6.948674980144916 1.0209804373609384 -0.11610870477082584 1.3747367215500519
Ni 2.3990338205311676 6.645231237043295 6.070766218793686 2.639430227797067 -0.873712790488805 3.833820517643146
Ni 3.729727854854777 7.298644254347944 12.179611446176814 -0.14856991062332478 -0.7174401119045838 0.07730047365437655
Ni 1.287644909210742 7.843834760385139 8.547231262518649 0.57107569357301 -0.8715875166156861 -1.4714582800435174
Ni 2.766270720658165 2.746000911855557 6.50917994821949 2.266609470777335 0.1068704740020095 0.3054252011838933
Ni 0.2504525397157941 6.61116836307915 5.647219476124604 -1.9310517118741195 -0.6411914765534893 -0.48058263248775945
Ni 4.187998985047926 8.599168841796484 3.255177217318797 0.14925973760149777 -0.04055735259707209 -1.4738887438618808
Ni 8.622889223422112 7.481220151660102 2.601289976904247 -0.12305042619598162 0.6655740191629118 -0.23828932676734446
Ni 4.527668207112933 4.812386595664815 7.680031270888487 -1.4989006925251864 -0.5610615038701176 -1.3497862222523014
Ni 8.132381993112299 7.234900918427497 9.170695337468201 -1.9148342215739926 0.10201391724065657 -0.5569330835240409
Ni 7.016444599434255 4.15455426183015 12.056393704938092 -0.5326230460237665 -2.1760629307463297 -1.768100335718142
Ni 2.03446327213105 7.967990799100067 4.344642997243338 -1.109831849077708 0.7956361007900362 -2.819515178309538
Ni 7.962805713734994 6.100225253616958 11.546114876874983 1.8184633615517263 2.4344629122206203 -0.6406307189540128
Ni 0.8207925549997029 1.4754889270628593 6.875257123737254 -1.506438138552812 0.27672397659445885 0.6150904085910632
Ni 2.9363267588236965 0.39982636104345276 7.456766292656318 -0.7347901731472571 0.1613961158537156 -2.8895882809775397
Ni 4.04861983093732 5.854044412342496 10.346555526408903 0.5591653152886693 0.1360481240072302 -0.08015516949435228
Ni 2.9365666382178106 9.399489535734691 9.534449373315278 -1.544513348157979 -0.18841918140977873 4.265573530222712
Ni 6.840474611590766 4.017370926788739 0.7206263009222539 1.2386993961760988 0.8967485892623459 1.0176976528446087
Ni 6.1130680273325835 1.6139454681191814 2.7290857241183235 -1.5487019323180293 -1.032578426611183 0.45615432424206603
Ni 8.193578917002922 2.3301146253761917 1.8747008278121593 0.5789802931320673 -0.6413660544581405 1.0778979764835888
Ni 5.6589486558837105 7.262948355277715 6.626025201092276 0.591462227649162 -0.14069950673631254 -0.18825488791777256
P 8.77532335225083 3.0993340332545025 7.90956079175924 -0.430279256247517 -0.18910283774036465 -0.5554163897691984
P 8.880944094705201 5.663506364371871 1.1988756941928569 -0.2129595897533042 -0.929581833742283 0.9113681389477336
P 2.525939246147861 2.6743507820599017 -0.07258196898048157 -0.07211430146774676 -0.4474151445968553 0.35165209336191694
P 5.007150211424059 6.733682150557453 4.370650536630536 0.595865241812864 0.4033076127546796 0.5056280054921615
P 5.4493863267337606 3.871404315470549 9.84262335354621 -0.29441085235126074 -0.5686778827647948 0.3863218768299605
P 5.319879132303988 2.827855142031588 6.280621938894898 -1.3603819954902765 0.7356679477665201 0.6250207803308978
P 1.8265155158260957 5.657343309169257 4.309021829830507 0.21081426127552724 -1.1579235623786124 -1.450474992923631
P 8.809174025212489 8.224274253318933 12.869863480125947 0.6750739882335471 1.3415633201218766 -0.25829816578910353
Ni 5.434873623389881 1.8581611435880192 0.41185262220603797 -0.04433533158226558 1.1221412625726803 -0.6227245280975534
Ni 1.0435307211778755 4.065356031742023 6.047756249219855 -1.7604317634292908 1.5069472169787466 0.6402180568966264
Ni 0.03492643978295551 4.166631266710721 3.0317101868277403 -0.11389935582433287 1.8824349793076804 -0.9907524917143324
Ni 5.894399507336855 6.108750198238536 8.845979827787021 0.4239607702286569 0.6210432837403885 0.44788514225473836
Ni 4.4424464392887675 4.21437649226989 0.7915484890180794 -1.5840561434476075 -0.791484797625824 -2.201724340068176
Ni 9.028608314043273 0.025662482104895062 5.0990092575607395 -0.6456574827446429 0.3275672844985713 -1.7373049476038402
Ni 8.118136847554162 8.24457174051317 6.930917446689122 -0.3759929841001266 -1.057799663071817 0.8919007742517413
Ni 3.944346103542201 5.555274626973875 2.792186921352988 -0.842771106604626 0.28178519316745015 0.5585958159384444
Ni 7.412070303241555 7.096130688932719 0.5044377648164396 0.9973959651727791 -0.476282976671141 -0.005416028809248737
Ni 7.368550645471003 7.025670729977089 4.471493988689828 -0.829860826300861 0.1966045454340485 0.8706320946809523
Ni 5.243293022667915 6.469325832113608 0.5259973866689361 -1.487428944440161 0.28721073505839567 -0.4336327461007822
Ni 3.9336714705041413 7.766067706039585 8.520440424648365 0.8360792964067472 -2.2307585225169966 -1.424019884055896
Ni 3.4969987119117687 0.9795844103854875 1.3319312584294036 -1.7492803747981618 0.06869961935924297 0.07984612289436573
Ni 7.344461218623661 1.2163361462451718 6.69470267162703 0.9563323623632496 1.8311324723789626 0.8097203467972441
Ni 2.483296070778878 2.0886114322869473 10.993920815142722 1.2000929966578104 0.9995572344901561 0.2839441484919819
Ni 2.893305312102458 4.053029921336795 9.346157888131833 1.686489921834502 0.6567435653554755 0.4991902202866177
Ni 0.7321783389749373 3.4625760188564523 9.690156933260594 -1.0661647472070606 -0.8003373629204474 -0.2435454329599612
Ni 2.3585587858397514 8.195811640594288 0.5281572238290138 0.6951342493185318 -0.8417843172113243 -2.209266671191808
Ni 1.4358719225119263 -0.3307853809653112 2.280192955621967 -1.087987499509107 2.2663662444182777 1.8980755140584151
Ni 6.553560403969689 3.5525400177796347 7.927034160394315 0.02789389819679067 -0.938157491226436 -1.4677170678335303
Ni 4.280490943739845 3.916243309908726 11.843917763762715 2.87965430969328 -0.7605544265955547 -0.6758879994944101
Ni 0.2434499066337825 5.537754205073032 7.93477211608059 1.0535699412611854 -0.814666892169242 0.34653225563684836
Ni 3.864650787913194 4.783471902543571 5.218905591804041 -0.35883524137391754 0.1476887935699521 0.08379867978421052
Ni 1.539961127296189 6.5563835999157964 2.1378946538076082 -0.3399582019637564 0.5762276700875948 1.5291147542147214
P 7.800333554875673 0.23070585251496473 3.3193320386614533 -0.1663768568977586 0.36501000272606166 -0.8239953686590196
P 2.588520089619909 5.988690561484627 8.218086287563855 0.17725905102790118 -0.42002081174430245 0.5804985295488067
P 1.4510673595159753 8.665264841005351 6.222597881297956 0.11051655539502901 -0.48636350083559465 1.9230265275767982
P 2.409699227438685 2.192580697374153 8.6218097661486 -0.6982560827769652 -1.1570460448696653 -0.4880655711283659
P 3.074847882793819 6.042054500544384 0.6010002923038574 0.7474361440460418 2.106794069147178 -1.8035612476289131
P 5.128630672281564 8.809995150830801 1.3428319316657629 0.605614350779828 0.09485956558406243 -0.8992222476138192
P 7.593050079969803 2.0930676533391366 13.138594829673206 0.10405820136419497 0.17065028746213193 -0.36341669009701283
P 0.05360105061470748 4.246981637608268 11.544088818607777 -0.7750582766386845 0.7874844182171792 0.6051836910003126
