# total energy = -340891.63603167783 ev
CRYSTAL
PRIMVEC
9.10674161714950 0.00000000000000 0.00000000000000
0.00000000000000 9.10674161714950 0.00000000000000
0.00000000000000 0.00000000000000 13.32863688025161
PRIMCOORD
 96 1
Ni 6.4009102596111465 1.978412338975499 11.543866202720904 0.5079710518030413 -0.3973765919822253 0.18226370333134417
Ni 4.859484926604612 0.30704199634362744 6.191405110797581 -0.8133384031658057 -0.22216028241596578 -0.5161461314146659
Ni 2.878449845986535 1.7594043050784982 4.65531997119107 -0.1810282882623463 -0.3443992684542456 1.7001597060121105
Ni 3.6463394225273067 4.407672144961636 4.734092377212346 -1.1135262672101598 -0.07538217358574115 0.7839959454479466
Ni 5.321715820883378 4.519056704094831 3.050645584260261 -0.2771073280758066 -0.07743262835686665 -1.085624398593569
Ni 7.449833888547506 6.286292807133803 2.4945742689539396 -0.3702483683068656 -0.5111592197230358 0.13562312065466967
Ni 5.1348910125588345 4.286497838377849 11.762135679856751 -0.2802834118109431 0.5380066789331831 -0.25066147517945214
Ni 5.655787537606635 8.04422182003835 12.558082217253826 -0.6273448004783841 -0.5381632591157054 -0.37512292279034753
Ni 1.8763621902021699 6.643186018844205 0.4032510809171339 0.24260492342356282 -0.11298892819492155 0.09754071196065137
Ni 2.804075085587483 1.3302126701027503 0.23558503602194222 -0.9853932842849481 0.9304051009745267 1.6453335022008502
Ni 0.6659742075462973 0.1593160733254732 4.969382354799499 -0.35442014302535735 0.38504866654449166 -0.9488633076797142
Ni 8.715261197381876 2.644661570124595 1.5590905907783104 0.5377254002473384 -0.9784865298627857 -0.6404366006653357
Ni 6.964745072314333 0.7183825960145851 4.84010760137171 -0.0782173290416911 0.42793029639936625 0.5256720686272303
Ni 0.6910414250649004 7.478019254463394 2.3650199385524457 0.009268055565487264 0.7036188897507752 0.06652292342289834
Ni 7.638716820522128 4.103552502066283 3.69974955259519 1.5724674101687435 -0.41878411112372393 1.155477671941281
Ni 7.534772469451382 3.7357676271457336 12.804501544012483 -0.39563672647298315 0.5583680161983545 -0.07586322698721774
Ni 8.29371922553031 8.567149148510786 6.934517064209451 -0.8351274740164393 0.65329777289872 -0.10035735547384006
Ni 6.925549655544709 0.6848260737765016 0.37472421218320084 1.4342117369872331 0.6862937682087664 -0.5667552118207851
Ni 1.6809952580556207 6.48794339113236 9.34050914485953 0.8095725083654702 1.0773991824702993 -1.0527199345560645
Ni 0.08901202651750413 4.957564535946816 1.2686101150985396 0.47286238102536626 0.4453978570565103 0.7705369917295632
Ni 6.310908330258406 2.03620372253034 7.194358817728506 1.8919043522506966 -0.5100850128222506 1.190704099243743
Ni 3.0906460370062874 4.26619891087332 0.039969489823857014 0.1906735246615942 -1.095081944462043 0.43798125287746503
Ni 6.022379429349483 5.797725215527491 4.983204567525552 0.11676382185632149 0.2890719566368506 0.3492576249878114
Ni 5.342324377609601 2.8597263848159153 9.473942036599823 -0.853662299595833 -0.5093615043926647 -0.051560131465478935
P -0.04146754885234289 5.520233685697746 12.49633031168386 0.16982830578146882 2.241170976099572 -0.195135931308322
P 4.079501596934178 6.084705970327948 12.742403582253566 -0.6026580963649815 0.6075786735950505 -0.3524175107730318
P 2.5799854897579886 8.47029894931354 1.660215494583286 -0.47553247165836166 0.29289878658210844 -0.8728596984598903
P 6.5117484142354725 7.806481218228916 5.947597597591323 -0.10814676961127181 -0.3300342579818252 -0.946387592445712
P 4.744293749392953 1.1197012263186814 12.834970880775453 1.2274433636463056 -1.2015078747274663 -1.4762269050767545
P 3.92330276133181 6.259518986199162 8.17982484835304 -0.02863180480407972 -0.880097096748594 -0.007904085338425095
P 5.019563234219959 1.3489998784660717 3.7573560692911965 -0.47538874699164585 -1.0784407363609363 1.1765442628035931
P 0.2970418831571209 5.748776478274532 3.5211189905553355 -0.4393413664497853 -0.8443574772551393 -0.24879562561530702
Ni 1.4367706560742588 1.045198971534226 2.6153588069880653 0.3782028472672519 -1.0309331776982762 -0.19865268621232884
Ni 2.0968090893058626 6.460532098270703 4.469745518517657 -0.6493511295461462 0.4335417290488727 0.1838991820522381
Ni 5.782398569053681 5.352259832929225 9.446671898236291 0.09587360867087359 1.4545705031492433 -0.44873694873207237
Ni 8.71371305127341 2.4247883957552157 10.172989198393852 -0.35215191581647093 -0.493624296163066 0.3755373846199468
Ni 2.317356162569515 5.0173685094426625 6.935995999080126 0.3332098274963294 0.7254498695829377 0.5367974891164304
Ni 0.39997083251554966 8.867808229516628 8.903635973163249 1.539575287426413 0.8275018391503812 1.0846615204596675
Ni 1.266082994245015 0.8636396813268272 11.389080733448148 -0.4673278243603823 1.3144847187375297 1.053746576048366
Ni 4.27446783244089 6.916880037337302 1.6093661803136414 0.110640482567403 1.023792967109069 -0.550319177751949
Ni 5.794228226670721 7.800807718078481 7.960595520629944 -1.1192528852812917 0.4337417608748207 1.197150883310351
Ni 5.240192268159941 2.7770735961074795 5.39420639640101 -0.34584422843088825 0.5285424481964898 -1.506657967873102
Ni 1.1456190135227589 7.277661827802497 6.658493541160205 -0.3707235081710712 -0.666572378520439 0.6169290044616988
Ni 5.154925844550743 4.221503022047735 7.473713586933497 -0.455804397101815 0.9595727236774183 -1.1458388632999363
Ni 8.106757816078549 7.078515597802928 9.110496524153884 -0.1390254614679993 0.12176770282881609 1.325802200632878
Ni 4.72471425449177 0.36875292157543077 10.64262387376781 -0.43512115772085064 -0.4156962162270196 -0.771596286232013
Ni 8.259942320140317 7.539644576322141 4.547570823390225 -0.034542770971876 -0.9705641896919156 0.4125563850464572
Ni 7.088833536278761 5.8658436442999795 7.38265254350773 -0.6205434612858345 2.1759557157445037 -2.8834824251901177
Ni 2.7729027083564364 5.060798561156031 2.33260449106372 -0.6502193910837124 -0.14709306896748217 0.44635250766029577
Ni 2.1987772774028613 5.539831394082559 11.509584783834388 -0.6118099380675786 -1.0603149732945032 0.6551654222350781
Ni 1.2469497296927423 3.241080305040075 3.438682031627904 -0.9337853303006692 1.7252953247374738 1.5564419812747645
Ni 3.7277354808653413 2.6548429074732094 2.6056282533592685 0.2392612037623105 0.5898971971548873 -0.8076634642682154
Ni 1.0653339776860937 3.4502985914864843 8.405825038615216 0.09583195679966076 -0.19861746209901923 -0.5951137083588203
Ni 3.421594141287169 2.5601327926023707 7.386650403164296 0.468377091560503 0.3778053547185171 -0.6054770538710154
Ni 3.827181101479723 6.952833454020962 6.058944819083079 0.818335599270081 0.08763270881832004 -0.06833400848970812
Ni 0.7338258087836205 7.615503735636958 11.59170209612413 0.20240623971749014 -1.159588608785861 -0.21298247257143962
P 0.10335787689789191 5.570475580288363 8.020534273904646 1.459392607128235 0.519299332331667 -0.2726582911655175
P 8.52331840015758 1.5571799963456276 7.993770470386 -0.10422223774588503 0.20371004613057822 0.45014797014698604
P 1.7472103777888777 3.3081696719875238 10.516988174369098 0.26387000344992617 -0.035986188286621895 -0.007646203691348123
P 4.1230591430329495 6.352808449346939 3.721088470014935 0.5879719551077164 -0.5985139922896208 0.45968959108883406
P 6.90828327306441 3.9010640978207918 10.508697396621175 1.3514134734430792 0.11326172224033396 0.4545155030870624
P 6.335478319673937 7.8498566294913985 10.276366199449555 -0.6546100639522403 -0.6662000827826849 0.18116018585452026
P 2.4893916221873056 8.769837901076198 5.924738764962737 1.252429858388314 0.7781194320625114 -1.6901396027719473
P 6.94223320654888 4.1351528961626105 1.6136445276180953 -0.01024584609772429 -0.07585937033247579 -0.26291355307392783
Ni 5.282392909728352 2.8343641088625224 0.573579026444705 -0.16253794276764266 1.2280827970025172 0.009742166988428383
Ni 1.4092045486017557 1.2519857579161628 7.0283237902922915 -0.2565079066579002 0.6880655153972085 0.04272864921677803
Ni 7.002191994655573 0.5888610498836238 9.270613990759033 -0.6964293139808715 0.6166299851640412 -0.7364948145431897
Ni 2.4487846604364334 1.4924583822699493 9.387225819693754 0.6729628554278152 -0.5639606797947836 -0.30047274227462445
Ni 6.573136960807043 2.0872379036588193 2.5142339031830905 0.32731583060939756 0.4354073215027017 0.6661807995089752
Ni 3.996129375622396 6.505701537670642 10.480440998119134 0.6505510633915184 2.3393932875082806 0.26513935708065306
Ni 8.131154777399605 7.366707549264715 0.20782313360042748 0.9787582954669337 -0.3236548368180426 -0.4832210985518711
Ni 7.7182368900463745 4.057253826681346 8.32304111282465 0.19078896719353594 -3.447204249501218 1.3498921517025462
Ni 3.0930684303289455 8.397372160862993 12.50664642881133 0.6939183746335598 -1.0215669059920276 -0.07037597862040139
Ni 0.13301124959427907 4.923004450760775 10.350806528389672 -0.976295435748738 -0.31199745508477233 -0.07229633557156583
Ni 8.48522489914751 2.5980896924852224 6.02735626375111 1.525966952614359 -0.3194932492411852 -0.8321262252962701
Ni 3.563440751789879 2.497669650496689 11.488298685517167 -0.24837679291033352 0.18863721095785577 -0.35942119578437454
Ni 0.777227629597364 3.525656880001503 12.569890929364693 1.7317559927611532 -0.7569363702269931 -0.11924467929664624
Ni 3.035158659130516 8.450209476870745 7.948452591094486 0.624773183096466 0.04136030811434167 1.7172853099488037
Ni 5.891060212384339 7.909451147925511 3.674771581146369 -0.4284213771031719 0.022985919372212026 -0.415397196929362
Ni 3.5952961346570134 8.682558887525992 3.7090794095841493 -0.7949246765453084 -0.48603285696905324 0.36724531981448366
Ni 3.39019409551076 4.409675628160827 9.400568107126183 -0.42603899291392433 -0.7015144418132628 -0.18231872493899567
Ni 7.097239058973549 6.14183256173033 11.370473838572753 0.7450956688383232 -0.603416828907877 0.6182724058634707
Ni 0.6255056682710055 0.16246063127402136 0.4591118352073 -0.47490357982511117 -0.4310475018721093 -0.3961473475608145
Ni 5.0138715205858935 0.4449207994377588 1.6421677536553023 -1.6839856673554097 -0.8060796647208633 0.7761278555537794
Ni 6.030493536306207 5.651662183564665 0.2804421141776434 0.35941193981299396 0.5741178228334435 0.7648995909381278
Ni 7.907074288311924 8.92596388274405 11.344176300235011 0.2894810191498111 0.43575442042947526 0.8151890832212993
Ni 0.08127402799772028 5.271574100452721 5.658832832069405 -0.32329282549293353 -0.9568725511374359 0.2508887606989098
Ni 7.93634335650374 9.099793370499297 2.672764975364153 0.3653090220237193 -0.7304560645482775 -1.0726614106749979
P 8.657788549790542 1.7233051805258053 3.6763843851217177 -0.35517373336193026 0.6241998270914992 0.6137503496234011
P 1.9002127470143555 2.969963494480483 1.4404525117898626 -0.17697520123889518 0.7846412923414293 -1.02986899809982
P 4.799325790178 1.0540962582869962 8.412835408464021 -0.6587670235434073 -0.7674344415448395 -0.4892277097572671
P 8.590680969359465 1.7332042088781707 12.601999479654271 -0.6878572560411443 -1.1655538252303603 -0.32313624531041124
P 6.401055967480179 7.810051061020202 1.3314265987866236 -0.22331727883854444 0.23371404869183623 0.7169359185746556
P 1.6686374094133392 3.3442779032820313 5.785828168021022 0.4979208666558909 -0.9150949529800176 0.16770097502582088
P 7.007073208268146 4.092105327605451 6.067542494030152 -1.472347110406374 0.26663136824514727 -0.2893275242910824
P 2.5390962190108666 8.529255995820636 10.419355706049984 -0.7383313535312962 -0.7568713213170126 -1.386355793846219
