# total energy = -340891.193117697 ev
CRYSTAL
PRIMVEC
9.06401274039824 0.00000000000000 0.00000000000000

0.00000000000000 9.06401274039824 0.00000000000000

0.00000000000000 0.00000000000000 13.26609885002222

PRIMCOORD
 96 1
Ni 6.107748817501812 2.1833575485459167 11.36457626422583 0.721707114711054 -1.268695685427873 0.9518357600444769
Ni 4.723637795951196 0.15436376480914463 6.116825519991471 -0.6556562458285676 0.6286038696964658 -0.382749843207986
Ni 2.793846007489354 1.4812137914444752 4.960950874555136 1.3471672965722155 -0.2535781346056149 0.04102657892400676
Ni 3.621082206232272 3.9629948997762026 4.991754922299398 0.15319995319616841 0.8685878105574136 -0.6002883105812242
Ni 4.850724320424433 4.455895919735879 2.5896881815685786 1.761611899780321 0.7134412751578358 -0.6652423468551059
Ni 7.542908359545494 6.109887924539519 2.5591759950387836 -0.8368655397534683 -0.16731582377226023 -0.8625979115225659
Ni 4.993065578560637 4.640973998561857 11.570412745330433 -0.36989638428408556 0.15802025740294723 -0.35299652320495334
Ni 5.778924558544528 7.927004968994028 12.31832886103236 -1.2144166123693343 -0.1827288158932208 0.40518914604810863
Ni 1.6017289065857745 7.008657312865405 0.40625177611067886 -0.08077840490064797 -1.1922842992466693 0.5668326020259399
Ni 2.782135302859198 1.5066292835365482 0.3152925941412167 -0.47071962365075065 -0.026235793768077397 0.6047468605732101
Ni 0.7268939506487364 9.206861714495064 4.554079119964037 -0.4459676135170513 -0.5849470522384635 2.473634183103443
Ni 8.694028930230655 2.3038817277000874 1.3840385094476435 -0.7010033065047993 1.1799502031613485 0.17636225024524466
Ni 7.023839534425399 0.5355281660937037 4.895787873218356 -0.7736981630663643 1.4086655130870127 -1.5598805746426683
Ni 0.9551656764132176 7.6304939159241325 2.8304147674199776 0.060589588657598885 -1.0108623750903298 -0.8792884848043696
Ni 7.840053893516405 3.808725400700923 3.5916903316934117 1.366559585055898 0.3138136823579047 0.38192811863763904
Ni 7.595733426561401 3.8715662019399897 12.85946674469232 -0.08888303628565337 -0.14363082145049458 -0.06733667757344533
Ni 7.759076002521191 8.760477208592635 6.931297775808548 0.7349051014585666 0.2707824142990433 1.558730005977993
Ni 6.608218288209307 0.843475284203745 0.5284935857040254 1.6945958387710878 -0.8453596932674086 -3.182143053956668
Ni 1.8560832357896815 6.451501505658686 9.226333026945916 0.05730191904526261 -0.36507376608446157 -0.7144077528361632
Ni 9.525189846546994 4.918940081296381 1.3286664548148066 -1.1148087334670091 -0.14178116983626549 -0.031884507413422504
Ni 6.400135744715112 1.96735305780191 6.94778793442592 1.3392961213542547 0.5455798632947507 -0.7879526161028494
Ni 3.241345386974996 4.41622273539672 0.43115877708065303 0.15098623337430125 -0.7079260017665615 -0.3614374548834549
Ni 6.087445428669343 5.567542714365056 4.689512693890766 -0.13466281362392937 -0.1561119846366408 0.2032755296963209
Ni 5.221243038591253 3.1557448494152465 9.31735203140033 0.18007543743077373 -0.11951104558415544 -0.4825168733959948
P 0.0831423772689615 5.678277759617859 12.582722490892891 0.12633603892578887 -1.0894368303611237 -0.2530811403645383
P 3.9398907309663973 6.222544540521108 12.662279144669835 -0.06827101646225661 0.5230269176948993 -0.26461845158017655
P 2.631201360520681 8.654663922329132 1.4774186892551202 -0.6352753681793705 0.008513179677333726 -0.2087517223195437
P 6.240781334418844 7.722656798802949 5.777982807607164 -0.3195040478744626 -1.15861107536394 -0.07880868276878686
P 4.5793749670862045 0.8373280706742 12.500247224971284 1.0922832986709834 1.0098627301812222 0.10015218144156945
P 4.141021176588046 5.6651168129282405 8.07962481772667 -0.6329179236907875 1.5296845106752623 0.37169332828350826
P 4.975118833074794 1.0057338042240862 3.9411859784057546 -0.3055627552030221 0.6521446331308833 -0.1335911778263054
P 0.2547658353882793 5.647052235275066 3.6024357189527385 1.369253072727661 0.30778933054069574 0.4161096496153544
Ni 1.2987733403641444 0.9597611309391381 2.5485638487686693 1.3145376834626523 0.5635606161428875 -1.5677383801241904
Ni 2.038505558844269 6.496957530209951 4.913312235704382 -0.6289656239112588 0.7313978596362565 -1.7249878207993838
Ni 6.056745617073106 5.734166462984379 9.218160912940847 0.498417089566019 -0.6777206818277748 0.1803160926866701
Ni 8.450243240035078 2.7334343616998864 10.55075389813165 1.1731735465591473 -0.6903568825345465 -0.5955482247930776
Ni 2.2992500171226804 5.182421871462028 6.812606340057022 0.6714070809049212 -0.4107396435526926 2.0775410858193317
Ni 0.449850584424545 9.259886189794146 9.00720326456377 -0.058672831250860244 -1.8752469461996737 2.016833226416314
Ni 1.3471207850214617 0.8590998295918746 11.336744306302178 -0.3247866364296406 0.7443958145578212 0.1314705319388768
Ni 3.9760289502856185 6.859499917049729 1.6695784813377081 0.4887937075436421 0.7041210261981744 -0.9656251005190853
Ni 5.324708745521002 7.6198074447484725 7.988685576585525 1.1194657726230464 0.21424874087837298 -0.28984740135029435
Ni 5.800107156625545 3.005599476196562 4.612251048172923 -0.6336784560058957 -0.5437037293179604 0.4666732214955189
Ni 0.7530572238027196 7.450428236216172 7.008081748048056 0.21791487687605052 -0.24973536382075703 -0.08570206745451048
Ni 5.414868481555185 4.3685278996661605 7.026720984117293 0.5804915875702712 -0.0735335504127766 -0.8886902377342437
Ni 8.198254618190669 7.117334827196345 9.316449255718316 0.7257974827303435 0.31767419375457545 -0.5042951456133509
Ni 4.499711357957378 0.10113806842431168 10.37140971384827 1.388109543312532 -0.4884304106669524 0.21087262531728843
Ni 8.121364597000564 7.400458333254831 4.660287597188743 0.5680425631736411 -0.6826181191293921 -0.008269696207959951
Ni 7.398509570487429 6.219770952582387 6.8061591077014265 -0.06476583152247556 -0.6692689515159956 1.3664521129437563
Ni 2.4722729588293797 5.221179590501152 2.4964811244069502 -1.4818573638896542 -0.2554426986181794 1.5524045779805973
Ni 2.3733030022839636 5.146066115833888 11.483347463290626 0.0744699461841169 0.2955683629944716 0.3851345413900787
Ni 1.4026469278731164 2.946202999848718 3.7966512291546137 -1.1868407596335948 1.3985335668593333 0.07953990450785656
Ni 3.709945788425811 2.661094474971343 2.5743926598476894 -1.2978165140532294 -2.3289258123180536 0.33008439449347027
Ni 1.0187044066434003 3.28962031952934 8.278058719519006 -0.5994061650865871 0.18256297973931784 -0.055377191218723976
Ni 3.612788634454723 2.9001124943964385 7.259063358062426 -0.6233500774966941 -0.5487088958420356 -0.5178021789608501
Ni 4.051876609995485 6.681337680044812 6.022225324051472 1.1295774071357514 0.5000140017394937 0.10242117998140424
Ni 0.5055299090937304 7.465864250136572 11.444518138549817 1.5444043333839401 -0.3745318261735679 -0.8449511449750804
P 0.20354963065708848 5.525975151335724 8.228338076911635 -0.3866252670029922 -0.3867512510578952 -1.6812268736633498
P 8.51991830697936 1.600913145427327 7.918428600014885 -0.2844210881284005 1.561822785970704 -0.6430668391993313
P 1.7347614235028062 3.199895656112995 10.545580159584517 -0.5533697916528146 -1.1060309872743792 0.1466816924616764
P 4.0381174384563385 5.953207398040385 3.7516130555967315 -0.6917810165755828 1.2270276162651255 2.0251000944107966
P 6.787096582231085 4.076421956851881 10.55663100407762 0.6967864402099742 1.1417883473796464 -0.5342389843606347
P 6.365384319365252 7.942649455210476 9.950873959853176 -0.9752608238366365 -0.6156172276288107 0.7415809708168455
P 2.4181426739599567 8.597633153340785 5.94971231467708 0.33598996134462783 -1.3485472076388776 -0.22866131675927717
P 6.782211079293271 4.073838713183465 1.704746851279664 0.5480334670415659 -0.41700259374326887 -1.031380806758656
Ni 5.108124157953211 2.7559584336859073 0.3668332905332121 0.015189049035612549 0.6444326091986062 0.39074648826021735
Ni 1.6913357378347882 1.0634443741778057 7.325951241048679 -0.6268328938389721 1.7113308921375818 -1.8708740139429585
Ni 6.980957689529679 1.022620060203948 9.275258755624446 -1.1388313216338515 -0.5273695109343111 0.07006127559345997
Ni 2.9804921605421244 1.4649892084042428 9.460890645636878 -1.3954680405601323 1.8885968851440182 -0.650780405793505
Ni 6.508940155226256 1.9700269415990435 2.4715940642652936 -0.48292207925421343 0.9014336534428411 1.5669307966212302
Ni 4.017732473508024 6.716922994578862 10.19795532512888 0.19205549261078536 0.22889143049221222 0.4864303495177881
Ni 8.155889422028633 7.338913685856409 0.18730148118339013 -0.9353274779768085 0.5034831912350167 0.9012408207057446
Ni 7.584484986587698 3.87295299590935 8.328191774712037 0.540211914114618 -0.23700197541448856 -0.1351577509824769
Ni 3.069836135417861 8.274800206891651 12.465900960996786 0.6843019345897182 0.17555415252165252 -0.984449175204124
Ni 0.2798097029526152 5.060610602480084 10.429661405370425 -1.1121368430618008 -0.8925643759776692 0.03418461630150887
Ni 8.685880382659052 2.538920645474534 5.9167329038436245 0.9343599718572166 -0.8664681931112497 -0.5720321439490084
Ni 3.73101961835237 2.7082364059167325 11.481145814564107 -1.2546330366872198 -0.6098381590531885 0.2541936567024268
Ni 0.91107831780557 3.094417738325743 12.676726274785937 0.6739013080816845 0.48458378322735246 -0.3987891560590358
Ni 3.2308945801339974 8.608609672928338 8.100267200640538 -0.202827900635941 -1.0248574038178413 -0.10792694029098186
Ni 5.599049223106871 7.52080123215157 3.4609129411788433 0.2366363645449538 1.0901958200143353 0.5848220966248251
Ni 3.3085731704439354 8.592792970467329 3.5747098099796846 -0.3159153020819398 -0.499426761777456 0.6776528047043169
Ni 3.1016689486230535 4.1566022147143915 9.188723718337629 0.0517305956050722 0.6991248585351637 0.6857605214131157
Ni 7.145850211690518 6.072553255521242 11.522150502394108 0.45512279765375807 -0.27929379420416417 -0.5476745410402504
Ni 0.3198934870748602 9.358412009708854 0.3766151732242839 1.1132763559828827 -0.8928070881160945 -0.3204216745927256
Ni 4.854603717933495 0.37637588328447263 1.776516611598581 -1.9035527351229022 -0.9193637555587005 0.6657609383627373
Ni 5.856566892802979 5.59024806660851 0.37265419959937807 0.17879682782866627 0.6588045616495621 0.7227856924872134
Ni 7.7866940497410715 -0.23364124698963964 11.364628835500486 -0.23744626204075883 0.5973320561663777 -0.4473624369820489
Ni 0.2385204051184424 5.089316331244562 5.838515911169112 -0.9820850458473216 -0.8796417543787302 -0.8766667309108064
Ni 7.9061396113635185 8.939627423000559 2.387632300232736 0.10369181916371174 -1.0021656186472805 0.4850573804296614
P 8.521196332794261 1.6430245492289577 3.595073021297107 -0.627860306662222 0.22181189793761155 0.29169088231693635
P 1.7171409824803419 3.161491433575865 1.6219534385062604 1.1266877442927823 -0.5626568733816955 -0.77188604955829
P 4.854223029392886 1.3563298220990458 8.133206729817358 -1.2295056454919728 -1.7727596888670245 1.3231573068108633
P 8.263424870737746 1.5566535705751186 12.368315985618155 -0.2706312334331597 1.1591121833700746 0.7173778912080806
P 6.298002447677495 7.590730091456257 1.3731870732377183 -0.0798234971865464 0.8239205495570263 -0.3347373198844493
P 1.7940038116318324 3.154185839201325 5.9531221963193905 0.16794625826740753 0.5762387258311882 1.0698105714897639
P 7.267471136402158 4.105762166517374 5.887613856092201 -0.9789205320764108 0.5933666437607266 0.25693573822393817
P 2.2434247618462617 8.274056957836178 10.149282482409472 0.710016822857319 1.4638213323235498 0.8065193233614432
