# total energy = -340887.9263925606 ev
CRYSTAL
PRIMVEC
9.09103568746671 0.00000000000000 0.00000000000000

0.00000000000000 9.09103568746671 0.00000000000000

0.00000000000000 0.00000000000000 13.30564966457518

PRIMCOORD
 96 1
Ni -0.07569287346545904 7.578860207280118 11.802244542776899 0.2608255601966476 1.190122258598344 -0.682363837026741
Ni 4.825558185340019 5.726461654512867 11.764575835794744 0.23108406726815683 -0.7463375116652243 -0.8466773836375677
Ni 2.523462453960645 2.859821688818324 8.368881221477546 -0.5734040845958707 -1.3958169392591186 1.0489859214349289
Ni 2.072437984116618 2.845757856381641 12.868133948489767 1.102709379100314 0.9568686944826941 -1.3182344155879493
Ni 3.265136430484173 6.997470283562767 8.214641798398032 -0.17620207051829653 -0.13496388980411594 -0.5688108087982332
Ni 8.48607285532243 4.783075774883251 6.137363746802883 0.24305640913868468 0.6480516940084323 -0.13625149826728794
Ni 5.148408140946946 5.567768532977809 7.367883629554621 -3.0583416085272748 -0.8552643539756303 -0.3584513756719375
Ni 2.8964858363407164 7.144517788193242 12.53430838531929 0.44936686900658745 -0.2955961309086135 1.2549004314159937
Ni 1.6877417117244577 6.449417188252213 10.484519807881894 -0.1884430926691787 -0.12351759564038726 0.530096680057487
Ni 5.761507597656638 0.7976638480238785 1.2080850245182244 -2.781954189336628 -1.0589216924914022 0.11371217951419126
Ni 2.450743258316801 1.29223619772453 6.153197603916633 -0.2934492597689398 -0.6829757595791269 0.30983001511980834
Ni 3.5026851968516732 4.872131561922518 0.550274035365034 -0.8313780342763359 0.06013116096394159 0.5180515759674948
Ni 0.09710135375320594 0.7475567858123304 7.178930086139315 0.47073967825540863 0.46687633864526046 -0.39462268338617196
Ni 7.962047367723674 5.320792362449454 1.8326273680333793 0.11256418195267709 -0.26406977816555816 -0.3269841583015917
Ni 5.448312322106436 8.34130720068653 3.851426422516567 0.4898224059184726 -1.2085164448348154 0.798080962786103
Ni 1.5670945751587058 8.748149236372651 0.6387616326646156 -0.5749292629911453 1.3671380832671876 -0.17077292908292524
Ni 6.331051901681036 2.05719231702139 3.8773595113393737 -0.7531740749710835 0.04620760890431397 1.065066114826243
Ni 4.8457311938577945 3.062742699690462 7.0138468755158625 -0.8036337742835321 0.1278535040115798 1.7828191299855554
Ni 4.259104833499506 0.9644498096592186 3.277527512327223 -0.45599697272859535 0.2571792216933119 -0.1942733261977106
Ni 7.143917779828134 5.924155319779904 12.760756996932306 -0.12652244390498213 0.8838313669800456 1.1421205339080849
Ni 5.734098124614234 4.020819693229374 0.7250337445312175 1.0761524545473917 0.36645470559238824 0.1560731609789054
Ni 1.0703149219573258 5.487994693526035 12.974046334174217 -0.807170840902513 -0.8490453696491119 -1.0642690728462447
Ni 3.875335846762512 8.295288377289962 1.7613354650156245 -0.4707013688183055 -0.6646551068930683 -0.6728011330389704
Ni 6.697520647224101 1.939981592001253 12.84927914016806 -0.4400119101542486 0.969509523175156 -1.9052589191807316
P 5.066943368829871 6.471344766686136 9.552152263684247 0.25744327398797595 0.2889775971508313 0.05112047282489905
P 2.753620208194323 4.800812385797258 11.761236698332562 0.14656753548131535 0.29319446344565636 -0.5113276269801
P 0.47661937213377303 1.9885186323241038 0.732925672739546 -0.7112694643174976 -0.6894251147488966 0.6243818611953182
P 6.937805815377925 4.144357779190643 7.521297586580319 -0.12066161424883091 -1.2341282318656486 -0.25120680615996094
P 4.232622646112268 2.4819164201948785 0.4311496473016379 0.17221248974292921 -0.5606712104102344 0.05200416098143302
P 2.104802071689075 8.761131235544973 11.288313741369283 -3.47253450073589 0.02531611016728543 2.149281034666795
P 2.51432596294651 4.876767990198347 2.6555552046426114 1.890218222797525 0.4154265075054007 1.066543470702718
P 7.2690649791321915 0.1574676499045062 11.702225875624256 1.9196085030341843 0.37322236333352493 0.6064371037914394
Ni 8.385571454166948 3.6254778178744758 13.167124480547843 0.16785549832581415 0.5285923275978187 -0.6652012092045253
Ni 1.535785047743104 6.6541018600763335 1.6643641130748585 1.516227870949724 -0.5084353930339695 1.3116395359792508
Ni 4.247222849663213 3.3631196147133697 2.825494846609099 0.6608604157373263 1.1965438458539714 -0.20130400779224686
Ni 1.4322290585470765 3.4805757977010505 6.423821376858884 -0.6831205126871074 0.4738075185474549 -1.025736463988685
Ni 0.858441058994919 4.049565548539517 1.6800516045116651 0.05634649711052877 -1.3021778763457188 0.16743795117242133
Ni 7.319711139768753 2.3470236304757446 1.8394392811845148 1.7701911568089 1.3993007840426612 -0.5564561438876223
Ni 0.9767317990722493 8.516700555050408 4.752645350632889 0.929597774581883 0.24022716722000564 0.8553026634127335
Ni 2.5590811323620177 1.8982537375187873 1.6420101650602756 -0.6524696205704699 -1.013261728560442 0.4611792882604832
Ni 1.496657229509437 8.512773227569706 9.094371336007677 -0.8465783961658583 0.7395392577964683 -0.29380690021867467
Ni 2.446661383226904 1.6128679405877284 10.391645785791942 0.34603731827830086 -0.5052194571998331 0.3589586543256592
Ni 6.764985224155338 6.8328225335558095 6.3807780494910995 0.22346588860126676 1.3675139785493673 -2.5439705667351604
Ni 6.637683449358396 1.8639259862059792 8.276846301995162 -0.14928570574342678 -0.5476429164713665 0.8479943026767783
Ni 1.2835088033229687 3.773207150192573 10.592561314158889 -0.19279082811491313 -0.3032022253906455 -0.4211688093058166
Ni 3.436375181471476 4.664674124168734 5.120146837846807 0.13705471089487364 -0.6687405898163515 0.025745227284904044
Ni 5.843245100848761 3.89034514692603 9.442181639603072 0.37973342497916535 0.1676986610329757 0.714809359149956
Ni 7.826454568245249 0.07589651266816215 4.756170854329687 -1.258851959864574 -0.22717881867647968 1.6674413898434832
Ni 0.33443011705350034 1.5675127628071137 11.780968791612343 0.35285871207550845 -1.5106426635524628 0.6413619406930825
Ni 6.561318748344734 7.323047549920183 1.6587085796819299 -0.6342595253203464 0.407553275404911 -0.8732736460688574
Ni 6.856895596446782 6.281905761957242 3.8510145985932436 0.993706946356966 -0.2777413621153797 1.3292701045768203
Ni 8.012657164216897 9.225946806750635 0.5289882840610591 1.332120429541422 -0.37405514364746545 -0.019620859554721048
Ni 5.381175022465258 0.8897705866893575 5.995246310905706 -0.2253566778660764 -1.2291688309778444 -0.10011104379098888
Ni 3.73887030784393 8.100422024167598 5.983829788104163 0.292669958400754 0.004148732061050919 0.07219863365143694
Ni 2.444561353949029 2.1254750871777737 3.9631679803783926 -2.0973694333991686 1.320093837394191 0.11130922649965345
Ni 7.6960709323002545 2.3492145701119695 10.56508547655489 -0.8742640350065847 0.536576888465192 -0.8590343625410238
P 6.445053491051432 4.276514167123454 3.087934869092719 -0.39235265640507266 -0.9766600181770083 -0.9265281345176237
P 4.41441608970396 2.1519845476725163 9.37424251060125 0.8856139128017652 0.9576824486332408 0.7226766777131748
P 8.778413294667232 6.7622942775481905 5.027313725418114 -1.0744961498908914 0.1221076026667381 0.4848861449591197
P 4.87721345095426 6.62311960995079 0.4681219809388361 -0.15510334086646835 -0.19004643260055654 0.9506103722778081
P 8.899942261708976 7.092235241106388 0.548142187461736 -1.3210793412359119 -0.14899311420367245 0.9416737319098106
P 1.735224191890453 8.248351359274064 6.875095850188372 0.8130640664584964 0.26322157123264994 0.578149569700656
P 2.038392054914693 9.046362484866838 2.9605467294553445 1.1784947016617446 -0.3651470425245582 -1.1417765203051047
P 4.83417648731156 6.4115893881429455 5.065859717358344 0.5651176762173622 0.35939805585592294 0.521098847434251
Ni 6.963706176471726 6.077384728778151 8.549239190510896 0.9306426709066294 -0.6087760363372613 1.4701403325630422
Ni 5.676670051244792 8.241996725225428 8.278575417010972 -1.0178874002579115 -0.06227006168381534 -0.006940178763259015
Ni 8.655857040576139 7.682070737114416 2.8017172423827614 0.8930202325681652 0.2926697012904379 0.17246085830830943
Ni 0.7354811629127532 5.338010784320868 3.83342435335618 0.18049221325321818 -0.016411351478487865 -0.17216569566539383
Ni 2.7703568051664837 6.901968952116514 4.023761552425567 -0.20666655765574082 0.38965711185078056 -0.7083733737166252
Ni 1.6797688732971978 6.131758214107046 6.1286618073016585 0.09827913278857267 0.42719547511587075 -0.1746979751689443
Ni 4.688156269730435 6.0126838267407425 2.9241298581076625 -0.5138416516512054 -1.0447641700440975 -1.626304253483541
Ni 7.973483890804054 -0.3601386572911832 9.070022814730905 0.5512589159573991 1.2398515075026713 0.02978057369654226
Ni 6.055884429028472 4.316114719220539 5.417808260465812 -0.17954964683429078 0.7518970080308728 -1.467954380655317
Ni 4.611646112143413 3.036233239195719 11.547600992625341 -0.2907454876845315 -0.033537726746129336 0.024991379838015026
Ni 3.6699420741432642 8.101740224363667 10.307980073899223 3.1635951157511513 -0.02508136844866003 -1.1983137932702008
Ni 3.7924983282343576 0.7358848049038255 7.998186053374806 -0.037144213150465066 -1.162849796035636 0.16565514824038566
Ni 8.432617564612865 3.4619028100960434 3.8855296252442524 -1.2236116486050412 1.3292371944563557 -0.39841506054906867
Ni 8.847268800081219 6.963351626074163 7.4460674468388595 1.3186105679804452 1.0918654944072743 -1.082149295560775
Ni 7.406748716852658 2.4099154163819967 6.098751390301058 1.3854332820319495 -0.14831639985162198 -0.447204571247946
Ni 3.5683133845442483 0.5657678877385561 12.553415015333627 0.7796263556253412 1.069496896904087 0.7499128877213085
Ni 0.042215134003219475 1.322363890481587 3.1760715524090712 0.9065051544284776 -1.2624227079349677 -2.50122880489226
Ni 5.748934695096888 0.6238986981780398 10.405390522870817 -1.584982769026935 0.47466909521680184 -0.8560035461345
Ni 5.499631219394785 8.143768083028686 12.409581191870808 -0.7726990323778885 0.4251607040740291 0.7336349764968914
Ni 8.900360449357382 3.35850136850921 8.368534853012234 -0.27931076348502865 -0.09852081648573355 -0.04699128114787391
Ni 6.81783141546396 7.408257828801261 10.6255063189212 -0.07197134813197928 -1.2495975311458416 -0.10621998490220418
Ni 3.6454871877472224 4.887931782203677 9.658238288153145 -1.0746280474830654 -0.4116215319370137 0.22202915615474023
Ni 1.3318185677499452 5.4017480365597725 8.440345854176165 -0.9073950132325985 -0.7703834968708345 0.0882168634565642
Ni 8.347970929953554 5.0089152870953235 10.85247402868039 0.2798689499813438 0.062417128784640896 -0.48497279113565506
P 7.0958534733687015 9.20885565938091 6.972971760194717 0.9261589241036631 -0.5461506481965562 -0.15143591931721018
P 3.0242694360369122 4.604873290446368 7.480716111716641 1.3880830609499708 2.0037781930045684 -1.9853125301002132
P 7.1213811019932685 0.16980600373971372 2.688765667651303 -0.16509567619248988 0.5330035692916368 0.6975832250796568
P 0.4739056979370375 2.1361297811763467 5.014447182400896 0.1443119066779192 -0.9101016135304844 2.676026281753546
P -0.35707225090405126 6.678011284322277 9.527643740176778 1.3380733046907471 0.4883879874647912 1.6286974363060662
P 0.3962346150738912 1.5325940941650333 9.40229108346285 0.17971496876756146 0.20646806849168958 0.005935391647828488
P 4.211676899548521 2.4090335859060055 5.122169593320086 -0.12201941382830599 0.5258103939773073 -1.82464943575778
P 6.618637729284155 4.069720374985622 11.796217186018321 -0.24235732618913097 -0.8689086842319422 -0.42868568650815203
