# total energy = -381174.54643960105 ev
CRYSTAL
PRIMVEC
9.15615333116960 0.00000000000000 0.00000000000000
0.00000000000000 9.15615333116960 0.00000000000000
0.00000000000000 0.00000000000000 13.40095591832827
PRIMCOORD
 96 1
Ni 3.6874392688117497 5.847980116491656 2.9146278915915107 -0.010773179356104027 0.6212345738155881 -1.5895799014793142
Ni 0.9271246052970525 4.940211619074533 9.921759607418096 1.3290687871992917 -0.29580361893372925 1.2939110083512362
Ni 0.012745365264361942 3.7871223087780637 0.10989764448421742 0.9987388523539186 0.33422592746566954 -0.48235386545556924
Ni 8.381844798886958 6.300001088022562 9.524152738782 -1.4714960752599882 0.28170368919723743 0.21060857302262437
Ni 3.212747661939925 8.333005877679984 3.519265456009943 0.2810907382035869 0.49747478025740777 0.7962963600818543
Ni 3.6867342450147986 2.2874817557439253 7.0591139444295745 -0.6197101667512617 -0.08982765958710981 2.102504954853521
Ni 9.145678567887579 8.923431261090268 9.17009985972171 -0.7566106114564582 -0.7795605353844122 0.04438084010822034
Ni 4.191796812074762 3.5374156985124894 3.468462539940035 0.6093324230613636 -0.4981309257841679 0.47402580520584814
Ni 8.994382292292524 2.713847185988378 3.3840492166772966 -1.4867918250767944 1.151992541606158 -1.2748709610006494
Ni 0.18524546045655024 4.392087663481312 7.913237455821288 -1.0188875593876516 0.3985215042199459 -1.4498900669544386
Ni 4.165646838515124 8.068438830759195 1.2631609216916229 0.164094231511169 -0.3030687851365748 0.443697586535952
Ni 7.354533565197198 4.060433482011687 9.2447298332826 0.2786111663148428 0.32505865914410464 -0.18505515003355227
Ni 3.5523310720869476 6.296036473683864 9.15803937471724 0.24116022055723627 -0.2218090697241341 -1.0770412849102484
Ni 3.793980267530224 2.6224229962149197 11.649852592278036 0.2557833697870498 -1.7024158490361392 1.1468436504153667
Ni 1.2179057188499307 3.193162650229817 11.35903851657361 -0.06829132817723078 -0.49663942884030593 -0.41994522131136064
Ni 9.155713711802623 5.9516277707966685 3.4285142434972107 0.3061132283898535 -0.45121060708354555 0.29173613373257495
Ni 1.870693661754158 0.6809998821661183 11.009059210075181 -0.1783080611177058 0.4177914081931514 -0.08969139111956166
Ni 7.5874203220212255 6.120146770574386 0.8138565808172807 0.5575396067597882 -0.8073922128846999 -2.7949655139946317
Ni 0.5841085533126669 8.606262113994365 6.892621201356602 -1.41501408101286 0.22690062531442856 -0.5466193603028585
Ni 6.840067628793485 8.091732084518203 10.053169633862527 0.5387134751922206 0.27987666329082767 1.032296890815022
Ni 1.6121147390308497 5.461453108851542 1.3889820322184063 0.15501206670424272 0.5113430535990676 -0.7149427994040267
Ni 3.886411634156469 6.8043036943663315 11.415858856531262 -0.34761057630269165 -0.3725551620631713 -0.5399224078986572
Ni 4.908055209011 3.805855798239906 6.080790877244064 1.253767603363131 0.6483005767944447 -1.0746046504442976
Ni 6.580151907701932 5.930358026896444 11.338159740415332 0.18320884085343284 -0.547491992715799 -0.983327660005171
P 0.314562390277826 6.9866210170272325 0.3392528730162444 1.0448418173595682 0.26155189683971086 0.23066497745286726
Ni 4.110444390829176 1.712850736615986 9.40265974187624 -1.7402249494641129 0.6915989824717637 -0.45185595397702827
P 3.631293737345466 0.906211951371907 12.840219349126802 -1.7715535843740648 -0.8396456736017669 1.9289801740570713
Ni 7.533298300413723 6.942726418552124 5.16168614654116 -0.5999751502161796 0.14096972967856367 -0.9000845956141144
P 2.0926296593424265 2.7752483493955697 9.086102225814574 -0.5606326438628151 -1.3531340556786116 1.550960132224587
P 6.030901745264231 6.188753826555609 8.919904310874871 0.5946187710002727 -0.06630823630893096 0.5139565799625149
P 2.5834269397056397 8.187487134758644 9.905919462369715 0.29994258080276726 -1.4922703316928623 0.5144959974057527
Ni 5.206335212040539 6.912556893734544 7.022408757452725 -0.1605453378176461 -0.020368793464339112 0.178760318163776
Ni 0.25739320088298184 1.1510017073652377 5.115291918240498 -0.42939865341477657 -0.8845186228550572 -0.6338419781669535
Ni 5.131602689563727 5.736000362768132 4.786312249122683 0.15116981014001707 1.1553892259925327 -0.10310535053262242
Ni 2.7013490368606092 3.7241829116320693 0.053295220972896226 -0.5373880715125777 0.3161263896514814 -0.24594427220944093
Ni 1.5285282164027174 7.7529544158534085 2.169976263559881 -0.11109299672378932 -0.46415816838314905 -1.0618013280320422
Ni 6.521799743312722 2.2943305583428786 4.984404708144195 -1.2003385370097135 0.1081169448146009 0.05626910690537405
Ni 8.190774193760015 2.918359024023427 6.5282218691722225 0.8732857302537154 0.0949572675041913 -0.660119938026876
Ni 2.3805448969414646 5.809524273021599 4.798654743645931 -0.7485910835860914 0.8626367351803015 0.17542508314295593
Ni 4.463752874633727 9.078069532605936 11.210315120029767 0.48036974514600495 1.1373336540424026 1.9270590457749586
Ni 1.2532576263827622 1.5737962378588994 13.19247670654317 1.014993366539568 0.5617004230056971 -0.1683360375066585
Ni 8.067660557736588 1.8307178968517128 0.8991195950976435 0.1314111394558511 -0.09985084815106675 -0.01595292378483059
Ni 6.341789771260024 2.2868408250194245 7.432652033130016 -2.228798056356516 -0.6466913233257959 1.7709385764978856
Ni 7.4397773515558265 7.5542017981856615 7.636078867010017 0.518141821688456 0.2939285133982034 -0.06268786594752429
Ni 2.5791510161578977 3.4764082496932054 5.451146942801567 -0.17554001145426543 0.6359076024467306 -0.40073805225529047
Ni 2.6706118305441846 0.7381773120988488 1.6214888086843364 0.6262703364672827 0.3265200741809796 -0.9683124175432613
Ni 2.5375729244442 1.6834686409742208 3.7328098391838522 -0.1496294622360907 0.04378820082954394 0.44043485662428017
Ni 5.550331888033411 7.138027166460773 12.972232766067584 0.8617304213159482 0.6116091349106821 0.7083592326492382
Ni 8.38042559513985 1.4118055753178853 11.75849401254223 -0.5115749671042158 0.6869812811940943 -0.05886103600226637
Ni 4.449927083290921 2.396687195045682 0.8122936254648192 -0.42326760081637427 0.6950823130346738 1.2929607286228249
Ni 7.286558283787268 0.7867278144797966 3.5314065151626326 0.8267330793051567 -1.969872541396059 -1.5296315459501397
Ni 4.7173783184719635 8.30439289890762 9.246377940859889 -0.11375126028224282 -0.5399267787740314 -2.287230489461796
Ni 4.953314074313973 4.163687421728792 8.524374973401482 0.5815814782003403 0.5363161786046377 -0.7632756821814596
Ni 5.277405273234487 4.492347541099677 1.654776919284275 -0.41056532275835744 1.014197095890518 -0.5641218879629962
Ni 8.270899690475842 7.881131404600394 2.3144786734752265 0.2939444542378034 0.2380432721948094 0.8380209935141503
Ni 5.861110040190719 1.5544584422853849 12.769918404802253 0.8490409987737378 -0.5277256087221492 -1.4096720999746561
P 7.954215819499917 4.089431019218751 1.819005345669118 -0.8695789708260895 0.8475333038799597 1.1761807088165872
Ni 3.423751212598848 4.259616438880171 10.350991829231708 -1.698427296702036 1.561273598335453 -0.5858824195685394
P 3.7627944097066486 5.996987353784922 0.6408391629688881 -0.9738744850120711 0.5400933862588827 0.7581370754033137
Ni 1.993248772431949 5.6711564857550485 12.2554021095559 1.290075179544914 -0.12309927715604607 0.21180876397831264
P 0.6762872101103947 8.049980025893568 4.145612259682544 -0.42939531098066697 0.13667110230320978 0.736365745164493
P 7.975860965681636 0.8481665181151378 7.492232953279626 1.0110068710879943 -0.3010990630047137 1.0695159230674807
P 3.6034315631360885 5.472440492700129 6.545482133583033 0.5205985107590646 0.8336706869652546 -1.0410612672712136
Ni 4.618308740770529 8.524598383539736 5.385642907142247 0.904382708768836 0.39681300616927145 -1.5529511945126866
Ni 1.7790497243037282 4.089321145380266 3.2262932749945925 0.8229941810880148 -0.15593406429787984 -0.09122248305210741
Ni 6.157760247949384 1.3556325753919798 9.993267332735346 2.0507499337684165 -0.10973494003399811 0.561388291081917
Ni 2.475411800320814 4.527671980172887 8.002314007912432 -0.13032484837020783 0.1878172861597217 -0.07597661263663046
Ni 9.107131162885452 8.038827831287252 11.311706698184537 -0.12080842423934034 -0.18861818479446224 0.35078486026561523
Ni 6.737674367477854 8.934189741108678 1.0618125345896463 -1.2143371652816506 0.25016499515900786 -0.650054583371074
Ni 9.001469154874865 9.040803989052808 0.050283762183062436 -0.8272406150691948 -1.4150847863497953 0.8999616968830051
Ni 2.168689824034276 8.149452474336117 13.025059191996274 0.37957350236253334 0.2961646018175738 -0.15482411906315272
Ni 0.379247865840425 6.344472524149721 6.287111971152848 -0.004909264376159288 -0.49539707179277265 -0.15981205919604735
Ni 7.122516642927851 4.294803535655274 4.265979965359145 0.48748810135834114 0.9371030818199926 -0.8071808682048421
Ni 6.692305628336392 3.7016404624360497 -0.1061253093628689 0.13760801229518235 0.12716316281277454 0.25184469685427596
Ni 8.587180690710651 1.947641973307102 9.493170147559624 0.4843734669887593 1.3122383459055142 -1.1431939694779214
Ni 2.430043061179353 0.5672127037995007 6.0711558572241735 1.1245704408394632 0.21818304293577265 -2.1819307023810164
Ni 5.023294553276272 0.932471798770032 2.5415311294756533 -0.8391031708347355 -1.4996414273459526 1.4693551176575856
Ni 1.2287008234811685 6.869184195992243 8.649070792699105 0.6570294720270105 0.6617847273238087 -0.792422478948745
Ni 6.508834630371389 2.6193648410437294 2.3863215139998597 -0.4532929435338709 1.0083439795438505 0.4062587249632036
Ni 7.054330769994156 0.17063132432260766 5.710991245898104 -0.31084328687567114 -1.1631817254537582 0.8844396899880059
Ni 4.698397612873528 0.36399279898198145 7.36830075715948 0.7206583617315653 -0.6765649709567767 0.4506881589211722
Ni 1.223344473854982 2.3398915767016892 6.956784776186392 -0.2269103955064415 0.4472248829629202 1.4509146515642108
Ni 0.31273940017428115 4.1186940848688245 5.013578959108158 0.15378847870978676 1.0983804127076566 2.1666755759941587
Ni 2.7072089749131893 7.556417587261794 6.696631910726774 0.6884452673341305 -1.2886451319666066 0.622690075315192
Ni 0.5034217844052409 0.8160934290457892 2.5140059017042993 -0.054080326784171386 -1.464841288947632 -0.2798419533981503
Ni 8.973735166810387 5.720810304597459 12.073711983389689 -1.203417175935037 0.31976424351438476 -1.4753149347854464
Ni 2.1545618796356334 0.48375162047030645 8.406888709139173 0.6221712266972447 0.6521112087897867 -0.029351713689239774
Ni 5.6650768000254965 3.7315444588106232 10.77422127700271 0.6916030962368218 -1.0006041876974314 0.5434052242409352
P 1.492471285072935 2.8406415956010824 1.5223487286032074 -0.21730038322050316 -1.1018524304166573 1.527596774908298
Ni 6.906403958779334 4.993399713054905 6.514820923338228 0.7963788924933316 0.3200223822717779 1.21888313278112
P 4.366917398314839 1.8516122384704439 4.990555811868763 -0.4110265786654921 -0.9148972351469147 -0.26124362157067266
Ni 4.681440417133874 4.790435264911866 12.662911357885534 -0.11890143702461457 -0.3611019259209072 -0.9879219642440727
P 5.616384377269838 7.882669638339196 3.463798395496309 -0.08167597701425287 0.2740271464885861 -0.25566587037257904
P 7.8856820127443505 3.9555039662576728 11.556528500714093 0.11616346926816123 -1.1382973035072526 -1.8475893323834052
P 6.79162242217442 8.922424084237482 12.13279664003547 0.8409533366695968 -0.7921028908257971 -0.17312188893107602
Ni 6.65151496579851 6.035269230344044 2.675058974156901 -1.3691134618260032 1.127346975143336 3.334466003864522
