# total energy = -340889.97738395154 ev
CRYSTAL
PRIMVEC
9.11593154519038 0.00000000000000 0.00000000000000

0.00000000000000 9.11593154519038 0.00000000000000

0.00000000000000 0.00000000000000 13.34208726886584

PRIMCOORD
 96 1
Ni 6.4238054976489485 2.2199663359067854 11.50865750615181 -0.5463779337160138 -1.5211785300867802 1.6134546512143826
Ni 4.870532812426454 0.5294915887752311 6.187312709777581 -0.6954204131003829 -0.2190397345091131 -0.9890308810375353
Ni 2.735645465264271 1.501330107501853 4.939707235472706 0.1948510530780515 0.4869103744780002 -0.30986112546805994
Ni 3.675561815043518 4.275581542693628 5.115849821995536 0.351612241262917 -0.6633960376749864 -0.6595491531250706
Ni 5.12904239807088 4.150529194295636 2.9309634137097706 0.22081662390387777 1.1362285939036818 -1.0902068757579286
Ni 7.566688062407149 6.1053039667641675 2.600066039163261 -0.18792990047818603 -0.5566042394297124 0.2503837960380333
Ni 5.216427717486476 4.517846538394533 11.697448447639081 -2.2762451940948862 0.7891965158122796 0.9232792885630229
Ni 5.813922332109451 7.903676702385902 12.467886868419463 -1.0947127340480824 -0.45246556253656917 0.6253948758408648
Ni 2.0785326585926844 6.140008318007144 0.46044114239745976 0.06823733501084378 1.2454107467580036 -0.2853412859498247
Ni 2.7173680225949335 1.521175490390206 0.367533391675587 -0.15592429410586692 -0.5316614534414456 0.0993523112480934
Ni 0.5046041841709624 8.879610097544978 4.349413295146245 0.7492485146644322 -0.8836570461857105 1.666011342265176
Ni 8.768614515529089 2.531512411052562 1.7952714957234273 -0.40430571500189083 -0.30271911510663996 -0.8093339099921029
Ni 7.130217261904463 0.5674858796986885 4.81506601558563 -1.1464885810687933 0.9171317809043882 0.012987413398603438
Ni 0.695124417864905 7.3303484221850805 2.1951336268915527 -0.2915885524111172 1.0320199830045518 -0.015501180959392657
Ni 7.627883310606282 3.8345618923694964 3.8757030028487915 0.4515667048713836 -0.3526337405488959 0.24084268931681746
Ni 7.94327630884755 3.898601311198472 12.365846777514976 0.2986788835989953 0.7832822072103736 0.8980847915752662
Ni 8.041655441659266 0.14292869008106932 6.993681574588484 -0.6153940558744112 -0.2354729403644719 0.2209541779230066
Ni 6.617719592642539 0.6955565130182848 0.28999965943842143 1.524169494394304 -0.01827103039504595 0.49259662622950007
Ni 1.991265846286665 6.483286950724971 9.373803887936196 0.7651649287843725 -0.19262216374753277 -1.9962201781516524
Ni 0.15819058260825386 4.9766787188812005 1.2033494500300124 -0.559902707675326 -0.7691110579163142 0.1988041241885286
Ni 6.227895013655565 2.1372210256276944 7.169610848314077 0.7119418077941739 0.4962054266266808 0.47674011881321765
Ni 3.82774317560308 4.368117363410059 0.4228935321177916 -1.3858927381668713 -0.1079020005903174 0.3954109836154222
Ni 6.054765242495435 5.571848770970169 4.78561973363526 0.6933843565069607 -0.013025979946022727 0.7509433858683519
Ni 5.395574003440503 2.6134464034276275 9.572827462538848 -1.3281470467159708 0.4477481024562418 -1.6366004932032268
P 0.2576791242842387 5.699590319162402 12.377387546801451 0.30903040203664844 -0.6862307761813149 1.0153461218932964
P 4.050727976168998 6.35086892967021 12.83181946715022 0.459249418227622 -0.9888303349909551 -0.7096136738816294
P 2.3943085259572006 8.416338458414934 1.4376635302714686 0.2689325055744981 0.30005879466565744 -0.6125609573009902
P 6.266327780884456 7.970733494543333 5.935321015159876 1.3171391256412412 -1.108986470358277 0.6445408526416964
P 4.6253962983011885 1.0643761626293549 12.808777127082745 0.536858681371669 0.3119624880817789 -0.9604466416419394
P 4.007427301515954 6.39159891163859 8.32375432326152 1.0765221791819848 -0.9579251607716665 0.3803558890545127
P 4.697266302293736 0.817560493920702 3.9211723576070905 0.6534268422774167 0.9038880285206045 -0.6613810641274868
P 0.5105751193073296 5.699034247340542 3.5068605634089565 -0.9921401160904785 -0.2010471545864344 1.8540736545561682
Ni 1.4200433462637065 1.0254420191676388 2.6320738978667912 1.2067148728497024 0.7389401907598887 -0.7761479101584375
Ni 2.147622303475931 6.535986150760603 5.071754238115178 -1.1983999252261037 0.15330228310198757 -1.1757927293495491
Ni 6.23818690032573 5.820330831958102 9.290135133795559 -1.4926182019505843 1.4646227451789229 0.052048641066123266
Ni 8.57142780112488 2.2029651236482746 10.503838458829977 0.5034325405027393 1.151186757875411 -1.1707708506549257
Ni 2.682736598804004 5.205078382761626 7.064688299867423 -1.0845663896426998 1.0819109542977237 1.442769139638941
Ni 0.43489465594531435 0.1614167107681933 9.216740946055223 0.07604089021566258 -0.016496197882810298 -0.47257441747130224
Ni 1.2265850478454112 0.8792024227636251 11.58318662736463 0.9551887356771097 0.5330765886214174 -0.27463881193065603
Ni 4.349055950631214 6.573534672633421 1.7538578188921052 -0.5212682831325797 1.0931392189133755 0.7549149689215902
Ni 5.446595872079048 8.134173030512686 8.102383042572146 0.32248138533523174 -0.703752330004846 0.07433496326814941
Ni 5.458838568091477 2.760942175193154 4.82369789112857 0.02622422380385161 -0.9838233686946671 0.15901347455415193
Ni 0.3631486286212472 7.4680081038557375 6.8032771132246666 0.7395055763450554 -0.32993269940695436 -0.2611050391102794
Ni 5.225798895074546 4.659344027229176 7.461976091978281 -0.5955119722385034 -0.6723717588110356 -0.47864119249067244
Ni 8.189597894068584 7.329218046678348 9.017969882755287 -0.34327055416644103 -0.2543908603148974 0.04383936578245354
Ni 4.685889619774367 0.30903098964329734 10.399450103969567 -1.1482564716024937 1.4288694988387134 0.37788557313714916
Ni 7.9382169668617735 7.301186557297694 4.715227422139819 0.24444660461799195 -0.7125735278409018 0.39548040340077695
Ni 7.2213127654429625 5.867706327994284 7.05784405849279 0.8369079629556297 1.5430300787442328 -0.46806521674703905
Ni 2.4724502908258095 5.169863539354319 2.7652011383927126 0.42549623303657685 -0.1164617172348704 -0.7006682917628836
Ni 2.4017562419975236 5.405318934220314 11.384856775149578 0.23239995786610299 -1.1684470876177553 1.6209568731286987
Ni 1.0291977829480712 3.481100764159573 3.710354590822102 -0.03135434594156536 -0.020314028967003725 1.6487060182175088
Ni 3.7700484451022134 2.282720408393429 2.431702076994419 -0.4741571885773898 0.6440166047071102 0.6307867362803974
Ni 0.9780118275424201 3.390670723621005 8.098940866835518 0.5386173159339885 2.2916178198962145 0.9627585776045678
Ni 3.645078140087775 2.8451916141707194 7.161084717576605 0.035353439798629434 -0.539561939235445 0.31559288574551453
Ni 4.268133826653304 7.09287840645628 5.939189816490981 0.2921765637041032 -0.05671390775227651 0.6377148308587985
Ni 0.7533004695492833 7.3481427204846055 11.135266216890528 -1.085092951570131 0.7961541780770353 0.7838856451223274
P 9.595885299689881 5.653044372893256 7.971990581497997 -1.0555067532725821 0.007942137665212127 0.6124128617589002
P 8.551782968729656 1.9137257328974455 8.164477121617763 -1.289613666527463 -1.3426848353208294 0.5259325213774685
P 1.5472470544970915 3.042050155040717 10.36850972084538 -0.030458830710489476 1.3360817281820152 0.6941299764237336
P 4.16211554323964 5.922256062125614 3.938664006980619 -0.6259911146639671 2.0841632191215393 -0.8992903818475932
P 6.759745805504524 4.159982415267258 10.495539314787 2.1519143585245843 -0.4838222224709797 -0.949726684121274
P 6.258980340090698 8.020479132771051 10.387909334683094 1.6401463015729558 -1.4091979885517152 -1.158839132214346
P 2.037483619021599 8.731485326505542 5.9434998289069725 0.2933785544320044 -0.5923492582398057 -0.9617131670591889
P 7.121693865946444 3.968137636725508 1.7054121124971289 -0.6940883245525208 1.165509088035354 -0.5546502010271351
Ni 5.629552617402541 3.0267445060423044 0.35568815027681533 0.3299563535560382 -0.28954452539789494 -0.24370844090038674
Ni 1.2486911817472284 1.4368804717551116 6.987024209809723 1.4519762600595056 -1.827490247640685 -0.13207448407146286
Ni 6.814906307046749 0.6988236628700008 9.163212196252555 0.9053121625616408 0.15342132517835513 0.279039512101513
Ni 2.593938310004993 1.5299541324303916 9.328494061979251 -0.84982518523793 -0.9143336493339608 -0.6113293988867343
Ni 6.2889991025396395 2.007236958285009 2.3957588706597894 -0.018981940419141502 -0.6039220506790696 1.2109096276573403
Ni 4.026187888555104 7.13874977379399 10.700354240675352 1.0656942353285452 -1.2322983777457615 -1.182364469029796
Ni 8.124510143116428 7.34127842406066 0.10765732789842546 0.8827625593958991 0.1067671156549258 -0.21499924589115232
Ni 7.5870530533913385 3.8915273483498907 8.487315101119902 0.2542859593059169 -0.20120553454116963 -0.1704551407321903
Ni 3.1085235275817693 8.39487043971853 12.460389014755858 -0.30436153580606934 0.626382950785747 0.9971817922794439
Ni 0.31082591655680986 4.890232340410712 10.212887096142339 -0.9952475513712086 -0.5177294167413857 -0.33458922434235927
Ni 8.562093087262834 2.4697063954425325 5.936921772732313 -0.24092599305924312 0.7682638794246704 -0.2832962304953379
Ni 3.3815183283890775 2.6138748522084048 11.318999639578324 1.3065340964318852 0.09288675812840777 1.6103639281042008
Ni 1.285984457537882 3.2834126735225384 12.960623932956041 -0.41623126279488315 0.5094967444189483 -0.7853653149916474
Ni 2.951939172104856 8.334696175848057 7.886160439997309 -0.6310068227110035 0.42129916423609376 0.3695431147097249
Ni 5.656982455303806 7.814541124121173 3.6601212502588174 -0.23479391201957625 0.2860223711772494 -0.25955569234528847
Ni 3.108860817047488 8.444406411521612 3.642189301393554 -0.4186915514099176 -0.5171812575473996 0.011341907375380466
Ni 3.591102709641317 4.262172007448442 9.473988886779233 -0.287827285596472 0.6495071955080362 -0.4893246403464475
Ni 7.357869419401404 6.221130992478184 11.395703822048452 0.3035981752774836 -0.07817464872921376 0.04321073105951913
Ni 0.38353002828214744 0.3313176189889315 0.4861754170386268 0.11119404107802787 -0.9702643990633095 0.6043033452778883
Ni 4.546899012103849 0.17546436121879141 1.6341118542237005 -0.007336385760413171 -1.0340616960249287 -0.20520051463317565
Ni 6.120554920173545 5.699535623573367 0.5312336432860093 0.6520186490759803 -0.6964941057805359 -0.694406884234204
Ni 8.088101112681848 9.01939379125651 11.239534241455058 -0.933163123335638 -0.3512854540511176 0.9313870052718217
Ni 0.10967741832013378 5.029532889752432 5.824261621623447 0.3853857381689363 -0.36442713363939816 -0.5856397074301141
Ni 7.909574710070223 0.15133449052266346 2.6415198260932096 0.14929650437670416 -1.0233692493080893 -1.5499998251938467
P 8.85236257827383 1.7162928883425759 3.9082441435454176 -0.7689264527093338 -0.03605843628545403 -0.4068523926831445
P 1.8055834374429058 3.2051159378183285 1.744370868973911 1.4531108878845813 -0.08650476586146393 -1.0920979221330547
P 4.276146730446993 1.0515956266580775 8.217778884725934 2.1719818186984208 0.17176203246907193 -0.04160327736308319
P 8.466029401053616 1.7785273527333827 12.708564780445192 -0.6682644215108813 -0.29824590982663474 -0.2818852090804242
P 6.577481870975478 7.7155512238985615 1.5117250041980352 -1.1936989202060084 0.8987213967180006 0.13155280724003796
P 1.8966333613238753 3.5246384530317707 6.0053532473608335 -1.3319803044191316 -1.9534107962956098 -0.8728468429440839
P 6.943240390786866 3.9079816047180476 6.042017523877579 -0.6718565097375139 1.147215689042805 0.23201326395064556
P 2.290231935954294 8.515437749815618 10.176930215910449 0.7293805720959117 0.9663239263583229 0.5622974331597477
