# total energy = -381169.5090576074 ev
CRYSTAL
PRIMVEC
9.22788482750474 0.00000000000000 0.00000000000000
0.00000000000000 9.22788482750474 0.00000000000000
0.00000000000000 0.00000000000000 13.50594221394461
PRIMCOORD
 96 1
Ni 2.700974187143311 7.053970444390966 10.282978962419254 -0.2962797872391994 1.4380213405413105 0.0012184457881333855
Ni 1.1383334088754737 2.5271208381654264 1.4001340363973411 0.3115662810846247 0.11426728068671288 -0.9542245719916277
Ni 0.45317772966902004 6.4664587050398525 9.125316826114423 -0.18164381035915816 -0.788641671750074 0.4070100013069313
Ni 0.38190247053046983 2.5594553463829692 10.798176382807247 0.5367177849184305 1.319070024115367 -0.7170230789718233
Ni 9.157946626644454 0.9418348306835906 8.897363157123129 -0.9281091058514985 1.4469613233434178 -0.1384806447081228
Ni 6.9845306115322305 0.0414885699047012 5.020266450202042 -1.371574007551354 1.6050296603754808 0.7976366761598327
Ni 6.353001861850728 7.922305172919098 13.250990601688729 -0.2665092408449862 0.4058982562999913 -0.48954884054211173
Ni 2.9955744082748916 2.2507733730995705 10.323901862987844 -0.08465048626154455 0.4099436300139585 -0.0856483313984396
Ni 7.1032381211528 5.986414911665194 10.056713996340005 0.9879849562715243 0.5113062868238614 -2.3653704282983323
Ni 8.377544412044681 8.00185876748058 11.187782291539772 0.4386042311734446 -1.4284162133513787 1.207462035428372
Ni 2.7875594298959383 5.377374517156681 8.542643266745745 -1.542200383754086 0.4953623619000953 -1.3521305541147615
Ni 3.5713667339741 -0.024387453857683344 6.490266647734275 -0.10075844756700066 -0.20881111480256942 0.3227721771027731
Ni 5.164782507934148 1.0252918205007875 9.125951704586274 -0.9485414055639211 0.849593271732782 0.4305260821510005
Ni 0.699964588677776 8.378374921673556 7.524970910695649 0.07416732734203355 -1.5739025999533733 -1.3544417187464417
Ni 1.9325405390841068 9.1174823519487 4.518075733390712 -1.3046070546125015 -0.9907041549749003 -0.0828352874296767
Ni 4.505865396269293 3.9414418246009095 7.743091345681062 -3.4375656979701894 0.035280677579165046 0.645943646526494
Ni 5.409819759991406 3.566651284859042 2.0689212936071404 0.85673939585926 2.2009838623577256 3.238457669387997
Ni 2.621365225273236 3.105755352372341 6.111898457068908 0.22333450522972506 1.1819780322246547 -0.5285902707152896
Ni 4.81237881663285 6.374724302588198 9.640487485636598 2.161955030590038 -2.3169287878571776 -0.4313120683874056
Ni 1.6583339432837962 8.820362918276198 11.930933380919063 0.3412213849468962 -0.08670942567310229 -0.4654025823132114
Ni 8.883029483717218 6.010416639939689 2.930546427122436 0.4032579904636667 -2.859872756190978 -0.48747241762905724
Ni 3.053285599596956 4.798813826027888 1.428982249750561 0.08322815199272117 -0.17333323361093375 -0.49177130211472725
Ni 6.199505226665051 7.071383462943051 5.553562520980181 0.396870084659452 -0.8531737899951887 -1.2480965211202826
Ni 8.681843140064572 2.8318071373454585 13.2595937586554 0.485432504380893 1.037862814938574 -0.3223340611240901
P 9.044369820953383 8.858843197747417 5.2826198280213505 1.7576742552888114 0.7349783778986633 1.7649882724517219
Ni 4.322599604830821 8.118711472263328 8.662008724550079 -2.4873631026537613 1.8783798354017003 -0.27382300089758005
P 6.02707297194102 5.114767372506328 7.9458021358969315 4.15808084925567 0.8872396213306462 1.6279854978407058
Ni 8.082501252444368 6.419193479272085 12.93233143939711 0.7921707679492551 1.1794642646638656 0.2736278541676384
P 4.162846463774286 6.234054427226263 12.181198229695852 -0.8116967537973245 1.04737203998059 0.4194392282092196
P 1.340064197729271 1.758761013184344 12.680215476936404 0.3886271279243694 0.5199382514672465 0.672472546054958
P 2.4807599451046567 6.898369851478807 6.856088606272768 -0.8003905847558861 1.1300224650929698 -0.2923465136230643
Ni 8.744195957423573 0.8466814969264005 12.004918869813176 -0.279165496156416 0.8246492001929345 0.6115299449333145
Ni 2.146719744486268 4.078319039324316 12.512795809216872 0.9618561203949564 -1.9635815661810248 -0.4373649594497049
Ni 3.7274840884331155 3.5532616240646195 3.916871658624874 -0.28118561191023833 -0.6881220796667568 -0.22589403842678513
Ni 8.992370690301026 8.53656855020476 0.018522210300871055 -0.18780880151928944 -0.8716327680313246 1.6184981271755612
Ni 3.0666568046218474 8.038751850772174 2.3009398458375414 1.6403512184949105 -0.9207475232801045 -0.013962632827679181
Ni 2.32642357240534 0.40039515160009204 8.87710425890943 0.8532488662074983 0.08521175808165325 -0.38881301868293033
Ni 8.595977672323636 4.902350693094335 11.477687364902778 0.10093122569943906 -2.0080696212910705 -0.3860912488763931
Ni 1.5430130673720857 2.090023620488384 3.587110428172145 0.34772499039336885 0.4135485737563975 1.0654826335383716
Ni 2.3225109492648617 0.3817511332203192 1.0192770852107778 -2.1005234056471176 0.3103064405355946 0.12305968216736225
Ni 7.277423673982234 6.941694770451799 1.5920398963415445 -0.0990473784131649 0.8720287179181627 0.9070011202282895
Ni 3.8346198305580224 8.351752474125723 13.081112625467727 0.8170644458671413 -2.7192616954034134 0.25312382067701567
Ni 7.066640330173697 0.7905519650531052 10.65237949466972 -1.3367957235299042 1.3553896844820077 -0.905738194355466
Ni 4.586406374500661 6.367009790924424 7.080233927221432 -0.1864407175271692 0.5802144226494845 -0.5669673278315913
Ni 5.812312409798647 7.888660305064885 10.925428913720465 0.9174855646993813 0.5252681483205921 0.9583010560538465
Ni 5.546180213167957 4.3221935779011496 5.6291416655732585 -0.1329733417366484 0.41981512349139954 -1.0623242904150478
Ni 6.148862595073193 5.526589413811267 11.913483450827917 -1.3385579576366495 0.04064477010455581 1.440398068303603
Ni 0.4773658612157733 5.041931678053968 0.2409179242980376 -0.5315079585827168 -0.44148258116250416 2.4997589052149527
Ni 3.4756551131886106 1.2786526246163292 12.903712077586068 1.0589983113656085 2.9125207214039968 -1.690696760826998
Ni 3.7662688881015898 7.419311630133188 4.787343565264644 0.12968438657273149 2.1028883063348687 -0.3178395156878462
Ni 2.0795407433950253 6.293472777229903 3.108244112893537 -0.3837134926728359 -0.3545484410731055 1.0575086141939594
Ni 1.7489609995636162 7.138045702487438 0.2432839539518555 0.8897443900303708 0.5549975570642248 2.0742629292886923
Ni 1.0129633664543727 4.515425484886123 4.549746756693631 -0.08165797929212389 -1.3234954068765723 0.19395322385413047
Ni 6.742769258566646 2.30601149130454 0.826435517751375 0.12397499489278004 0.7040279522637359 -0.2806942740961166
Ni 8.429017553265417 4.125694999709266 9.212416984836953 0.1496546590470713 0.1243794294200503 -0.6113998471133535
Ni 8.138717526434457 3.3081505489292384 2.236516291137212 1.0751224706209808 1.3026653575050986 1.1809043395445016
P 6.846296897748328 5.374227808451719 3.6711312417485007 -0.7684130034080251 0.3051971443334873 -0.220007240628705
Ni 8.172759193333576 7.894012478228747 3.6907285006245267 -1.7490623452500844 -0.3713667981820249 0.2360468105900709
P 7.05079605203171 0.9823913842269985 8.17651125127914 0.4583333341712558 1.3858071204316005 -0.3063011760309435
Ni 5.204665425889691 2.0241549790338116 6.958990594867364 2.074821115785007 -2.400061809032931 -0.3965949766211944
P 1.2609074022126951 4.623170267405539 10.333855059495676 0.381380216553969 -0.8859201311882742 -1.3020909730588672
P 3.3101345441537737 2.143637630974664 7.927339906847036 -1.157816861597419 -1.5014648537079367 0.9190313119199462
P 5.083374108534843 2.16918041600496 4.92837240534395 0.2233170217282283 -0.23773988202177768 -2.5107760822610627
Ni 7.3923662066185685 3.3829886943756637 7.012528013910092 -0.17961778106806486 -0.6512285490745171 1.6262235208442766
Ni 1.400589893904746 1.2115474466032095 6.497033455632656 -1.3616521204519516 -0.2603151962191323 -0.25272092881164215
Ni 0.5811334254013527 8.170110790405941 2.2011172023891197 1.2013361250362924 -0.260820417990325 -0.435253826643973
Ni 7.582691329902479 8.369719165763724 9.189740380814753 0.3668807373862133 -1.4952178443569604 -1.4044779573682262
Ni 6.761815612722186 3.2953607006445598 11.955838519112078 -0.09111295405743663 -0.9635517629298245 0.23417016239264832
Ni 7.342572540425115 2.6628907067169982 4.608592055053348 0.960147622344282 0.7221578290952272 1.1968181825612807
Ni 6.110659152144931 0.9872544794983013 12.843610864109797 -1.3766282821458098 -1.0859365305173492 -2.9258099823137353
Ni 6.072935559224464 8.382361367892157 7.460777130325976 0.6025549951282139 1.0264412033651935 -1.962382403666601
Ni 1.21156590237274 2.8831787718337747 8.355491613032614 0.3892673326115296 0.8106104627116812 0.0070998442695748695
Ni 5.513338171288324 7.852828428521301 3.2363345357434428 0.8847492508086247 0.020332026689132726 -0.04827940383167814
Ni 7.853077581409964 5.2322198897988175 5.6129070479057 0.9864433228160172 -0.12295529537901406 -0.7960942713733774
Ni 3.965443552875404 -0.09032530444799527 10.76636970959828 -0.9071903534209601 0.6805003014554409 0.7914210342674242
Ni 6.355585669585007 1.616873057033391 2.9525337081526706 -1.4052999390488894 -1.5001692748249649 0.44873489184954335
Ni 3.231457598644992 5.430508677635165 5.312711037452454 -0.9850461853581745 -1.9649208538177387 0.4947177863375608
Ni 1.325650241725903 6.1525537489793045 11.860783000933399 -0.7384848483900249 0.9757940706322874 -0.9022684906393106
Ni 3.9008760431727367 0.45455729844142945 3.566810927265481 1.373109984579906 1.98702154237152 0.9367115028085287
Ni 5.954541797685915 3.4062152803298744 9.719686729423094 -0.2407591284640757 0.39813043942911436 -0.24746353706744478
Ni 5.1308054362283855 0.14804387807787187 1.4715126478452627 -0.7160645717132958 -0.047134491593957537 -0.7239066934655338
Ni 3.566965032941061 2.264725934864675 1.8462487430670156 -0.3398579289404663 -0.5124504277306337 -0.01101357750168426
Ni 4.657479542962851 3.6445346322780092 0.08686115650710897 -0.49515538809561177 0.4450695271828142 -2.298308601652829
Ni 3.600083911363653 4.800142641434088 10.477234241824696 -0.1728732632553797 -2.501847926533498 3.190209633014886
Ni 8.64397190098786 0.8973268968836896 2.9248869653958898 0.10529927286014769 0.47194501141741946 -0.12218756397505409
Ni 6.969599893982006 4.840939119981393 0.6264810967148943 -0.011420326021799687 -1.2246521740544136 0.08812044708801597
Ni 4.559497862525102 5.694029382877281 3.1510984097434998 0.657254700663939 -0.22962342356223034 1.096535389079118
Ni 7.6295966681644005 6.476341769623467 7.676453098637065 0.5268550331917378 -0.15030180571276694 -0.5667657533437465
P 7.310773249523957 0.23748515116535326 1.157979575540756 0.466269558299197 -0.6731335766777246 0.513868905344715
Ni 4.969502010531281 6.329867554744169 0.9743898853470238 -0.7272547840021604 0.10812105857965894 -1.2128392405798856
P 4.587199972590475 2.8958394297317396 11.599456686688468 0.6677484011064112 -0.3203661387644418 -0.7268068978314645
Ni 1.1265678557997412 5.1504331471241365 6.880358865993932 -1.3527162514149027 -0.9795993033109903 0.5592583892231078
P 1.2378192345299632 4.434884506654755 2.4385248393224446 -0.9573147808811772 -1.0429844524358554 -0.5925413196459537
P 9.237112650045795 3.091950436763481 5.93338964022694 1.093630042506865 -0.01091150470618121 0.04905356299354133
P 0.7887128476193848 8.483877328195009 9.857528258104471 0.2097228279835614 -0.786823901815045 0.6886951785614075
Ni 0.6891245924440009 6.7491826384785165 5.235915657647313 0.14241263277267732 1.8582966914985803 0.06349082146479387
