# total energy = -340895.6588550475 ev
CRYSTAL
PRIMVEC
9.01621796728039 0.00000000000000 0.00000000000000
0.00000000000000 9.01621796728039 0.00000000000000
0.00000000000000 0.00000000000000 13.19614636839714
PRIMCOORD
 96 1
Ni 6.444044362753442 1.9839917476299103 11.407962917522818 -1.117781700052404 0.1126783389330382 0.6696890697725498
Ni 4.580878954087428 0.1567604762626504 6.016637755969447 -0.22826459554149076 0.6884696928141627 -1.0433364364586353
Ni 2.7940177993316775 1.8122778736229406 4.752961591415316 0.35360536043354585 -1.4057403690204175 -0.09874295979886864
Ni 3.422267877609737 4.246440375534499 4.709731530417614 0.06598787685503474 0.8053461289889485 -0.09209537257536397
Ni 5.205702869481651 4.498885466546374 2.4797539104336717 -0.4226240536951045 0.23938821625847803 1.042423694836379
Ni 7.144469267044933 5.945204063085098 2.587368784993135 0.7056842569202363 0.33817565614203693 -0.333139122159394
Ni 4.969973846855649 4.542686254150777 11.424312927453204 0.5772054606198317 0.008926870175984626 -0.42702835341038714
Ni 5.719167474933104 7.846715447395725 12.498532202371155 -0.7235724500545667 0.39951343581957 -0.3725873008526874
Ni 1.7031185209003163 6.557053640611324 0.2870808929020171 0.550539007072239 -0.10897440771888973 0.8276458209274132
Ni 2.6280202076098442 1.2901216339082842 0.4014561278043754 -0.12513070576377805 1.6697659242116016 0.17321907663057265
Ni 0.566082352750863 0.02970122571560826 4.786427088194086 -1.0159804130431855 0.05608321614681308 -0.052327862869438906
Ni 8.672988724141366 2.237608946996781 1.4794856564978764 -0.053725257437597804 0.818951378477209 -0.9623153194195619
Ni 6.821977177494852 0.5990573672641574 4.6600738075254755 -0.10534915226147663 0.10087183321641338 0.05485448594603456
Ni 0.8657030018077183 7.377953251360211 2.7719821622577454 0.3463707903583196 -0.903882886314282 -0.29207834756334217
Ni 7.609462683908227 3.648169222490001 3.9260779167032656 -0.6371520163767931 0.5190195963077191 -0.35979194886023197
Ni 7.747077221002916 3.8790475197699417 12.298848216526727 0.1345859376394069 0.3328606716870267 0.9390301236393763
Ni 7.783980601749072 -0.10970663716222652 6.800198502637207 0.8392394393022836 -1.2106694866220762 0.15869774308594603
Ni 6.916800743414059 0.6292472720016179 0.3734156894656158 -0.2663477755664574 0.3686769100546876 0.30069668535997246
Ni 1.7181305240623854 6.609284592153585 9.403468289898585 0.8047167229350658 0.29122679819632424 -1.9122502628969003
Ni -0.0011982553875309143 4.7856012026147186 1.365075258344868 0.439142877285734 -0.17027464929026803 -0.23555547277594915
Ni 6.321757396454858 1.835963478611983 7.0774237675173275 0.18599514534931838 0.2965633799178892 -0.858283086197296
Ni 3.1907133639711445 4.51207619364914 0.28739916540148924 0.3759359056099461 -0.7741920719836474 -0.07224748461150139
Ni 5.980782059768297 5.621630027361174 4.68248091278576 0.05050057985271302 -0.4667449552737188 0.6915442179744283
Ni 5.2452029210450295 2.571344260536711 9.307690808102773 -0.5133279452395805 1.5683790990319828 0.5146397220724686
P 0.06411342539649043 5.699611297840895 12.402635706496222 0.6225139547486441 -0.8099278348223599 -0.5566818867451833
P 4.006329470904433 6.209956291824434 12.631232900592977 0.08520738720627906 0.7530316358559482 -1.8618245021461808
P 2.2944111211235283 8.37425436932525 1.4190084718673093 0.17059320897195135 0.43043095133403286 -0.3038115768398703
P 6.384158642031243 7.632084375159657 5.672798868409447 -0.4048507888720834 0.16281330791621637 0.11535460021362069
P 4.714174722704862 1.1797450917400867 12.687395824855345 0.3013811130215068 -0.3235085410481654 -0.16900735254207022
P 3.9755841671310668 6.288532632699768 8.211975065954189 -0.10008610409032441 -1.6996457424901696 0.48699856331643226
P 4.845919701806455 1.0657350136714006 3.74069816089885 -0.9508556555193947 0.19132195687887052 0.5385496959208467
P 0.08707142158362335 5.398154045153942 3.578174518016863 0.9230085514001394 -0.2937361948817393 -0.547399947222625
Ni 1.3734405055122962 1.1106898771945695 2.70202983400975 1.0436089733937317 0.01470413897939403 -0.8146360389313066
Ni 1.8574942074714549 6.371923634048703 4.827453585484393 0.6045833384121523 -0.22219859185306892 -0.26025786061863565
Ni 6.0771744476395755 5.79347012842176 9.175491411608165 -0.39690453744181325 -1.1834471605710135 0.4276749858554505
Ni 8.435744976871982 2.3144631902120816 10.105041860377973 1.4463450299156573 0.6810397188986786 -0.23840862595402812
Ni 2.305645328895263 5.251559354816356 7.002192443562791 0.4474339136499327 0.5984713119771435 0.14029790042251966
Ni 0.6951242696614721 9.126576625088733 9.089716522189532 0.32403793118907415 -0.9391026287485247 0.270059934310722
Ni 1.30453856667474 1.2455003704553838 11.36481219924453 0.957866282509273 -1.0672906332813876 -0.6855111244064711
Ni 4.018032522018166 6.70809332647978 1.566791499752499 0.09751834336314817 1.1092314964895478 0.230358501956042
Ni 5.55946320345579 7.7946377715614235 8.077163671071563 0.81176745913426 1.0191408130490385 -0.3381679428325531
Ni 5.151966209514125 2.792043247564415 5.07306077667758 1.0211424168600995 -0.24273759234668515 -0.7197178521951669
Ni 0.9683328093712013 7.458648403492654 7.025733789061987 -1.569669278598316 -0.4264683671418591 0.06358055296512276
Ni 5.14197623984231 4.412735502454139 7.361958480423568 -0.5456251147103893 0.3353687828208611 -0.4566124948254072
Ni 8.183498242658645 7.15352155003275 9.242554943572003 0.3184838341400644 0.7347456930625669 -0.9624567300934328
Ni 4.68342040271338 0.39680105439141666 10.62532633321188 -0.5454461659303639 0.11079834830150595 -0.5097183735114512
Ni 8.290069940782162 6.930766865274746 4.758292881186926 -0.3637113385192962 1.0574353377538628 0.5221164900654879
Ni 7.371677963551924 6.097596181670858 7.013157968034688 -0.5077517367033836 -0.35585893235441296 -0.1886284692071074
Ni 2.3212163375804837 5.156438253699343 2.5757694203877284 -0.269853988947503 0.2547698409208709 -0.24196986094272518
Ni 2.4601472425200166 5.281862863902069 11.149846625316384 -0.46511590431072797 -0.27515457522481 1.6020816334907506
Ni 1.1007269561771 3.381803090708016 3.747019431419526 -0.16753333909970503 -0.054273159521267815 0.02146536896262755
Ni 3.6379267987109554 2.664662118030654 2.574489117415348 -1.0680701917598896 -0.1139201817599393 0.6394942913567245
Ni 1.0420313762461275 3.4927927357080577 8.045967556392428 -0.3653355043862805 -1.1211714424602433 0.5612911033824205
Ni 3.844380161116395 2.362258162441588 7.039259919478646 -0.8794810604311499 1.1174556841715528 -0.41669714668770813
Ni 4.357628377333079 6.834230217913621 6.176522351809068 -0.8797006326411236 -1.283707585455673 -1.5941958029847705
Ni 0.88783240755005 7.5669421992762045 11.431083205636027 -0.09893604964628122 -0.2821433478378173 0.3723710710768232
P 0.17716147299226817 5.507124057296143 8.058161089771637 0.5080934363135184 1.1038596906546732 -1.3884129334855637
P 8.551909931070238 1.468354233612657 8.005086220213778 -0.3467348585659577 1.5828914337155449 -0.41075584150260874
P 1.7738327195790595 3.222766019371238 10.17686866037215 0.11569887092691686 0.09195601878402228 0.031525838522423126
P 4.020935744251311 6.108668097516516 3.7323852077964905 -0.7874288823888955 -0.422071266515428 0.20803978385418365
P 6.903862470418521 4.008709752486887 10.307826523632272 -1.4242389420452375 0.4282460278675721 0.11342344462917885
P 6.308828139677437 7.835481239623991 10.2950261987739 -0.35514442278589153 0.03752525063896763 -0.5095198843473999
P 2.345875694125985 8.350487618373169 5.609734930801584 1.5360528760954513 0.5633186753354105 1.440634095573809
P 7.005394102615554 3.8400884412934846 1.2830628367457715 -0.952437655294534 0.40887662220202486 0.5603109988573383
Ni 4.942528478912502 2.9868386399466975 0.7217843250067706 0.9418143712527327 -0.47734072851169407 -2.114730293275119
Ni 1.4872792754367907 1.1359172554813375 6.841502699445468 0.33778253446867634 0.087942526749255 0.3902242972081602
Ni 6.805540611870556 0.7186016000120495 9.243887540609451 -0.045094835456109435 -0.7574485339767213 -0.7451103241263426
Ni 2.8043594015099917 1.534948020612682 9.045034850075258 -0.2880769397134329 -0.20301713382861164 1.145820351357175
Ni 6.3536748085832215 2.053173189229043 2.4817726416697 0.7053129896237466 -0.19571802906403715 0.38239965895741884
Ni 4.172290997753805 6.978471675323099 10.379033007820116 -0.05976992096978093 -0.22141569094045738 0.09141043069319742
Ni 8.06711689922562 7.225579165210682 0.33680623743002125 0.04735740623804102 0.004274201895321671 0.11624651590027077
Ni 7.4588197116368455 3.5808902029132086 8.290888613387036 0.5289345414285859 0.7371357905612983 -1.083278781179528
Ni 3.220980808184397 8.308832690680221 12.404760829106012 -0.08272575843500592 -0.3181827579598778 0.1445278793434672
Ni 0.09268672222586755 4.986329266516906 10.105107678770215 -0.07000239733106654 -1.7045439511227352 1.281838136347102
Ni 8.505251002323268 2.3050051774090727 5.875636727350628 0.031156628108462474 -0.20389773666135202 0.07113111161887105
Ni 3.4024141653197213 2.7027646557861518 11.557963935064384 0.8957759409364314 -0.11783648609520996 -0.13168984703853448
Ni 1.1885539368387903 3.42208755324743 12.342738264690471 -0.77244989248156 0.6894045459236062 0.9321141132458335
Ni 3.055497140895139 8.213071438077016 7.901259058884576 0.034396989422631086 0.9952989734344342 0.3414820948074506
Ni 5.319676882677876 7.865685570310435 3.5447225455652664 1.0489013321409226 -0.2740672556979022 0.4884250113503137
Ni 2.9850624449779724 8.503177272156735 3.4997631739330397 0.5932792262532428 -0.15882938356780388 0.62206992523269
Ni 3.492576346473289 4.433445755465113 9.210698841726822 0.08589721418445206 -0.7344885827464382 -0.18546395543619673
Ni 7.260715367206227 6.178940501507607 11.240648957956141 -0.03662793563567886 -0.766781638452189 1.497026872541241
Ni 0.4889495083957974 9.080954561425028 0.34779249920358346 0.015470841942089485 0.1380281305517365 -0.18308259968821372
Ni 4.579463407843316 0.423812742243214 1.6527250746099642 0.22231480571595905 -0.9858619963912505 -0.6721768691914102
Ni 5.950550680427504 5.6895491984241575 0.311693365113318 0.6586433534813496 -0.8762327286971812 0.4306417817932584
Ni 8.067964423728464 8.874609393636973 11.076304039014852 -0.3431448272218542 0.3136871840823694 1.1488627377279246
Ni 0.01826866114533588 4.686963776432715 5.712756943853085 0.4386574530088832 0.23295711592115365 0.9650694851259316
Ni 8.154168485129391 8.78295953649437 2.5268906987407567 -1.5233349143081505 0.41558283057760687 -0.3807094157391895
P 8.535915160133596 1.619231627555037 3.6518748881354126 -0.6472065723993176 0.5282159180950065 0.32826148235211855
P 1.8322127318759946 3.279450982662486 1.369706889590727 -0.7556047958997633 -1.2222903586904563 1.051165445584751
P 4.77680137373413 0.8183597421057914 8.189951149963807 -0.5227998892857577 -0.35245839131329626 0.21677870638907829
P 8.439648999315931 1.702370174796742 12.288211784016042 0.140920364497867 -0.31250550506944247 1.3424040708556173
P 6.319836941996288 7.73769133794483 1.53636176361317 -0.17870735343865352 0.1943455741965427 -0.09824905088158561
P 1.9355025266055217 3.33198848562067 6.0076116200141625 -0.7395392577964683 -0.6168112479369119 -0.045460446325644284
P 6.77366828083277 3.9380045700262594 6.083674239278936 0.9770472263130979 -0.016148841845720574 -0.6228834222729208
P 2.4812361766918363 8.51417705825747 10.264622609667105 0.2507427220393488 0.9335176784615794 -0.15696379111397482
