# total energy = -381174.8466656564 ev
CRYSTAL
PRIMVEC
9.14226738709852 0.00000000000000 0.00000000000000
0.00000000000000 9.14226738709852 0.00000000000000
0.00000000000000 0.00000000000000 13.38063243556805
PRIMCOORD
 96 1
Ni 3.8760289086536632 2.789607538739287 4.640912156040387 -0.15178276113366765 0.16567725972757272 -0.03968086352938972
Ni 6.928622917094275 4.313075011138257 1.1712040169306162 -0.2611464338711761 -0.25371286041126634 -0.28080020354636154
Ni 7.154848328787221 8.74062949712877 12.989917993014538 1.0094909486641002 -1.6383015350547332 0.7606217894983803
Ni 7.226459710876162 8.6386475020819 7.978925016185595 -0.7028953813211894 -0.22488256644313528 1.5087323339036274
Ni 4.384311560255712 5.421556672764699 4.758514629503849 1.3115570035677735 -1.2535243770040734 0.43750097080693684
Ni 8.385434116441992 8.547435098264542 10.789205964642454 -0.5226481941992418 0.5663039832159794 0.10585951623899188
Ni 4.3781588141627905 9.033547750943358 9.151951087048337 1.9278344904884026 0.2162698850734598 0.8479421092826042
Ni 7.3177269682991035 1.5927750030534138 11.81458989917082 0.4838363635383667 0.21932461273938358 0.16068340605740714
Ni 6.1475624271942895 8.211374483658723 2.3394697090554897 0.984407523332911 -1.1585601675213466 -0.5148073579985843
Ni 2.028065790159344 7.227291657227508 0.8310065262370597 0.21657147547427863 -2.113753531184147 0.15565895625962226
Ni 4.269996646220206 3.73031944768934 8.795771998368098 0.7369606984360146 -0.09431757703766336 -0.2941807386183256
Ni 6.801728242845009 3.1962373169279656 9.802638269878317 0.09331561813571025 0.2757060768529058 1.039316773776281
Ni 2.691456153815648 3.7037794448546415 6.518174413730242 1.6590030292681428 -2.228145253263866 -0.5565893270313769
Ni 1.3660741934454133 1.0552005260699058 9.94258627380288 -1.460152625222711 -0.7561048754646333 0.32368748982819096
Ni 0.9502472940539421 8.471590846278092 5.221684761647468 0.48849134581187476 -1.0874046304224434 -0.5898321482449068
Ni 3.9199575044582544 9.01470553742551 2.583197992063293 -1.2335286506084369 0.5399015819630508 -1.0400433675296603
Ni 5.365231162098293 4.401371031592105 2.994304738694325 -0.09823131026977276 -0.9401066445330067 -0.890716267025337
Ni 8.961689527629293 3.94251147862057 8.73561313489818 -0.39864645983358443 0.6474649682670268 0.5032687612313655
Ni 3.8095554809543537 8.434436670763032 13.67273201840787 2.3424788684121403 0.41956546937443867 -0.0650674219232944
Ni 8.455802150137712 6.361153225067892 7.365423092580504 -1.508095728760893 -1.2937500572933396 0.29395576709171306
Ni 0.7077321899562886 0.5482654447116849 12.367370709848766 -0.7286606632107516 -0.19282219557348085 0.5320275785316126
Ni 6.62350887830501 4.8499181067139885 12.277412625145747 0.19685548510259002 0.8729833685219481 -1.3609404390969078
Ni 7.750009949365552 3.507476675007362 3.088491122161055 0.26011027929717784 -0.298768357989008 1.2378884702390294
Ni 2.603763523023215 2.8990404818778837 10.804980947381436 -0.934640736322429 0.16454340323344566 -0.5732719298933805
P 0.7831275566037146 3.79141722204149 3.7598773130578778 0.11326737866728881 -0.04797549943801415 0.3119830569070691
Ni 3.118326912464547 1.7064773851599069 8.897384645804042 0.6112257834293344 0.4698511050028682 -2.6643884404043017
P 5.612456362462027 5.149171951973443 10.260081685599046 0.5342353848162089 -0.6111476218932314 0.09391468517228987
Ni 7.172383198038668 0.8589023273564247 3.8326817610682546 -0.4326035335053195 -0.5016906181109683 0.2055427284639428
P 8.719328013627273 4.871749841736125 11.191748234988419 0.2199488765869438 0.7207866597793134 -1.4570960977845742
P 5.24245050826777 1.8072068895459596 2.9726009954185497 -0.3110680012919675 0.414609410920744 0.40605586492377815
P 2.3167786008792155 4.804499321291053 0.6201291533863089 -0.7924790432182933 0.4411388246698403 -0.021312131214214908
Ni 5.719283759335419 1.7737827592105624 8.098346800900902 -0.33397601623839257 0.05447781933290617 1.4301892460914016
Ni 7.848783008485801 6.511945786816264 9.67738188998247 0.5582497454529354 -1.6748590224637927 0.1825131003379889
Ni 5.408766640396203 0.06246088645089415 11.588591215714285 -1.3408089584543554 0.4720733094651676 0.8758830586672465
Ni 5.796746192686574 2.8004594103771745 13.083569553826832 -0.2993957071603618 0.1327823087717649 0.13643944590837792
Ni 7.670901907846899 6.481730592407486 0.5442081063520434 -0.38320621401911426 1.3341364315301862 0.4959154061900878
Ni 2.5199015023540134 1.874027723413963 2.9384006865641488 0.8678198220431378 1.3341384884127152 1.5554359086077536
Ni 6.156841828805458 2.910066056600118 4.7446522091462 1.2945237022345704 -1.024578696235158 -0.4335039338324018
Ni -0.08051595072862294 5.289597182266578 2.140500139750104 1.9131560625406212 0.08044981791663564 1.0764540449482105
Ni 2.165007816497943 5.182001834915022 5.021804622489402 -1.2687453077188862 0.1275231172553546 -1.4758062725995682
Ni 3.688868406403593 3.177422530212909 1.203693807517579 1.3654144157078616 -1.6800282253695584 -0.646343453068074
Ni 4.026583771444507 8.4797548912424 6.706613919217162 1.2990010212796337 0.2117650552245708 0.9489191006183142
Ni 3.263140431204344 7.33703543746441 4.900683290227773 -0.4022727437322621 1.2116377640726166 -0.13362743038087954
Ni 0.3961893085926653 2.2623089705350425 2.0534584384105927 0.6203922804199509 1.114688405839061 0.31287548681435146
Ni -0.150443327126158 6.20450046978971 4.928434643519102 1.6892309749147487 -0.49636380658141616 -1.2827987004881587
Ni 1.9161461502343067 -0.18014198341569265 7.466713932197026 0.7431228613826685 0.7405820972386858 -0.4008864049076967
Ni 0.10398780855769828 2.720199443141274 11.08589448961413 0.20149426942618198 1.274921611732927 0.3956346695904541
Ni 6.510556162141488 4.871841264412097 8.17570044126765 1.0919662816511968 0.2735594628235482 -0.37863890636340597
Ni 1.8038608196053814 5.019927714951693 11.843572715907493 0.17300387529597303 -0.5610316790734466 0.017794090758627416
Ni 0.4748758915750867 4.403034924294797 6.4578811589266465 -1.3386965400970428 -0.9670592618624507 -0.12985047983695056
Ni 2.06309895959185 0.9335352288862434 0.9657333811368551 0.8146483802264809 -1.3984335509463595 -1.265257863390918
Ni 7.80305338596456 7.9571280217803295 5.747931969078034 -1.4165870819269346 0.24144149924308095 -1.5108977169860625
Ni 7.16740066219819 4.99229064000533 5.428576105825837 -0.9551661099692903 -0.17148358199670466 0.38163886953199433
Ni 8.643712318330753 2.3308302661761267 5.1071870022600185 0.7293767154411697 0.156796155187859 -0.794535925747322
Ni 4.155992569283006 6.749525894864943 2.492303739158318 -0.036258982332034326 -0.43369111014254347 0.8445171427614552
Ni 4.828278359311394 2.124013888592056 10.76314044549605 0.07423983245118182 -0.03044366120183789 -0.3292559850549039
P 2.0116737043575474 3.7510266837970194 8.380022808251203 -0.9391021145278923 0.7862310054260524 3.0562415314651363
Ni 6.192505814702171 7.215434136153928 11.10575149483527 0.13656671551486155 -1.406917162937338 0.24480758750183645
P 4.067504561209616 1.7355680806542273 6.646548306876737 -0.09423273063334094 -0.7437355552660031 -0.5387967789346463
Ni 1.7960533230773643 2.785530087390932 13.07069724104996 -0.4992575831894434 0.6301961538842501 -0.4228582811930976
P 1.4469649771455217 8.19034726818514 10.602946889977469 -0.2637710159782167 -1.7168446228669594 0.5307970485586213
P 5.627102275152758 6.990644060473743 13.197210682740423 0.14657499168048305 0.9261468399188049 0.20621224372714164
P 0.37314348043362 8.406123068014477 1.1656107776146436 -1.0789313028441097 -0.010656451272581647 -1.4127558811063021
Ni 4.659045843819451 0.2614981085364991 4.554098097164046 0.1336369434625763 1.1065650054009781 1.344301544988646
Ni 5.501871493606183 6.8606684420442186 8.817796635236535 -1.1802726194977737 0.7357170558369006 -0.8613319003259489
Ni 1.761806388658218 1.4951904387208013 5.331700067232007 1.4826040122476918 0.1117051763864915 -1.064687905551218
Ni 9.028903479003976 4.577387109641178 13.334402292984425 0.5251010266151085 -0.8051959765643294 -0.46779730779763307
Ni 3.726863670537595 5.702059727182277 7.101208816340875 0.9141814400268127 1.4928259470860161 0.5615674969722586
Ni 5.773808243285176 0.8899010140982825 1.0673432858925191 -1.8884888988112443 1.1866754377003241 -0.4489166688430462
Ni 3.0167928885299404 9.240364128527428 11.622671760863163 -0.12340935219729714 0.463244398319628 -0.8455360709442727
Ni 1.2503696547351315 5.70650286923452 9.49434820732578 -1.05695402724207 0.13907456953837985 -0.17009107252455222
Ni 3.661011917034896 6.60470323385755 12.076449127277408 0.08430955798235804 1.0576909054080947 0.08356213829337222
Ni 4.473914924975962 5.384594484869181 0.6797486230679903 0.586129502582339 -0.39987364737246617 -0.04552703789752159
Ni 4.149821538654889 4.173719426153995 11.873304284360378 1.0696084827812868 0.1626119905386877 1.169955553842482
Ni 8.477405328469917 1.660500921413541 9.007440177366007 -1.6328677656336714 -1.5994488238535938 0.24610265216417618
Ni 7.503534414944787 2.873277571788947 6.979297592158847 0.03838168510199196 0.589998498619442 0.6870098204391846
Ni 0.8624211861545905 2.001964616169311 7.336145894827201 0.24005464619788333 1.3295123024946136 0.6824715662491988
Ni 7.9680896006293835 0.6490900286807487 1.6448009052688535 0.2010093593699635 -0.27351061186348385 -0.2766455579480397
Ni 6.304663153584736 0.7173717969107861 6.178694591043067 0.36864117172074573 0.5668302880330948 -1.077530565841841
Ni 1.4889828390222961 6.4835590459269286 6.830692775046488 1.0071890400038008 1.4475747885577006 0.602123306907434
Ni 2.8767150644054986 4.47994882159012 2.8384199338943072 -0.9817351187070706 0.339017435317042 0.2904567527995191
Ni 3.4916514097965923 5.418585435795606 10.070986679525404 -0.3525918315673669 0.6626334484773492 -0.5147127414022491
Ni 8.691462381990979 7.890883150770951 3.1671822762772748 -1.6357160337157441 -0.5095594793360838 0.1406930789784093
Ni 0.3039886256480491 8.004091850427194 8.691202741591217 0.4263842920684851 -0.20691801154491463 0.5197202219191694
Ni 1.8007158795519411 6.668013436968225 3.2780679257370675 -0.9637214557384692 0.2937043132025393 -0.8605608264878792
Ni 0.3423258105901869 6.845382570621684 12.308670038060606 -0.17047082446147413 0.9476767435707806 -0.5635377333247521
Ni 2.910276328754854 7.362780063018151 9.040919161306988 -0.8648949350868589 0.3674147555128124 -0.5658470981842191
Ni 7.140321265575255 6.032388140004645 3.0919962675578248 -0.3815954178885686 -0.4870836668310708 -0.1849692751879653
P 6.703366585766633 0.565461135835276 9.962857423746172 -0.8894515413803004 0.37517768728768286 -1.449535768938813
Ni 5.772903158793053 7.266777110979855 4.415515033791748 -0.37579809448050117 0.4620655475201784 1.522607549223823
P 6.114467418492391 6.657755812724155 6.5927853738178275 -0.27918503654044174 -0.21253998571738233 0.5398905262194572
Ni 1.4893028183881982 -0.17396912433405687 2.9061796786445444 1.1432556759537924 0.5311814284812336 1.0534696682378955
P 8.937032831919618 0.2544229076430188 6.79360168117785 -0.00989591895747328 0.7120577645467479 0.42849079688852654
P 8.284722896591132 2.494422002560591 0.31308426768051273 -0.8226812778332864 0.09536170203146158 -0.5893598365941785
P 3.901709538334224 1.6682078529979885 12.871379351349121 0.021786756857788286 -0.012444910631572116 0.11649077070059292
Ni 5.283279875356907 3.871000661475198 6.5781870009186045 -1.3539280123348165 -0.8963199863653595 -0.11469382670117023
