# total energy = -340887.2345421734 ev
CRYSTAL
PRIMVEC
9.07722766837055 0.00000000000000 0.00000000000000
0.00000000000000 9.07722766837055 0.00000000000000
0.00000000000000 0.00000000000000 13.28544023289893
PRIMCOORD
 96 1
Ni 6.781342491588046 1.9433345550115562 11.206468197400799 -0.41982129413898667 1.0683812952424052 0.3448816074073028
Ni 4.936559395379888 0.5978552492824812 5.6096839226897846 -0.8804711922585611 0.6168328452034667 0.31165729813653426
Ni 3.140375775125803 2.149387618918447 4.404548538827266 0.1572756659274388 -0.0500012716187913 1.2154144575062291
Ni 3.7394364802182767 4.6705966300727555 4.785335508649949 0.0019437539899321362 0.13046523060281404 0.2156438214536867
Ni 4.262883880361659 2.8610967170983446 2.213353933281683 0.4849712484737584 0.498175148758542 -0.3367859748833619
Ni 5.321116137777043 4.869406066446707 2.6482793032697174 0.7878885956341334 -1.188081059798599 -0.7995104961437779
Ni 5.600322577984622 3.0599152306997817 13.19573624665412 0.4055933234650627 -0.40301347855302855 0.811925581978679
Ni 5.551777565395457 8.058517475938858 12.825019553003166 1.0952233551359138 -0.29331324841170775 -1.142295626033368
Ni 2.026436572635679 6.542901880015086 0.1879331024015632 0.558255144769574 0.5286020977898316 -0.4272854637265157
Ni 0.5793785527369978 0.34879337382945663 0.24622978047774047 1.3181554827208977 -1.6377459196615793 -0.13493072257333535
Ni 8.021010371971315 9.050249964799976 6.954396202696386 2.008325188945302 0.671706871533527 1.0841951223462103
Ni 9.01109080543018 2.460355278095639 1.0269648396209494 0.3628569609388009 0.7016877341663335 1.435907122411785
Ni 7.0775596561023 1.1369772058467624 4.835355570705407 0.825325914544985 0.5795310234292149 -0.9164003020550024
Ni 0.9096289662603312 7.610374755010084 2.2753441352214603 0.8478346371704625 -0.5485584863071004 -0.06967406745737033
Ni 7.887538819033564 4.207322170926677 3.9069685138475614 -0.6754398562133981 -0.3772068019025697 -0.5681610910293764
Ni 8.021800090762499 4.14673167746507 12.892058508870036 -1.3860518894525549 -1.0056790311171777 -1.6506649417160926
Ni 8.488696363675047 7.373023410735309 9.143943291453462 0.708564920902141 0.5460825139627822 -1.082349070276407
Ni 6.9676071995778885 0.9917506433160863 0.25332181831168116 0.34014923492864 -0.9793339654647456 -0.6188131088582891
Ni 2.0790572603655577 6.556036628185715 9.106106684128214 -0.12137869492051354 1.2167442320612465 0.9507656669087496
Ni 0.6193564780259285 5.044705483634808 1.4754406947984198 -0.8910772499091816 -0.5091295908875166 0.21221088451273776
Ni 6.260427637912948 2.416385188158856 6.862088968679842 0.6781220310312515 -1.3328915033794917 0.7765654573118302
Ni 3.648709591506851 4.423106022697365 0.005452690550170452 -0.40177497816023716 0.6359487400973112 1.3954343591087193
Ni 6.204539148288511 5.868336796703338 4.5575034528385725 1.803798303340384 0.24511971942561656 1.7642935603775423
Ni 5.133508000119438 2.87684570678462 9.542772158625102 0.7052962774531982 0.7177941528098929 -0.1588790058588167
P 0.22719483444193647 5.741763936654102 12.452602694644298 1.750587009424727 -0.09444407531319865 -0.6689663326739124
P 4.085696399856702 6.392011127533841 12.515150238351646 0.4600518595242593 -0.46273120612863533 -0.5578365691749166
P 2.548113913419508 8.563411023103136 1.0994283466327868 0.10672906332813875 0.8852696420884688 0.20985755378921275
P 6.7511970191107435 8.246098381914008 5.663782383054202 -2.562690254631851 -1.460396622912717 -1.0930818833128788
P 4.944783363481193 1.1400180770541988 12.334521580907168 0.6318370319217828 -0.574572650982675 1.1281154778782443
P 4.389002879036651 6.2405757414035055 8.37647006166567 -1.3389222829546037 1.4610337422760837 -0.06610923292424743
P 4.957300860182849 1.3257835375323712 3.397485520466927 0.78557434567866 -1.0491489293753544 1.154254083946825
P 0.3178436589969926 5.920303924054305 3.5568044786678867 0.9557512930487991 -0.4731012365090497 0.8537674577151297
Ni 1.0403047331327364 0.2211448623232606 4.373805784781457 -0.08861049935055706 -0.14672874364952795 1.1380386505292273
Ni 2.083024008776452 6.882344801812362 4.643221527423839 -0.027684867509778124 -1.0652838872640042 -0.009386069200590286
Ni 6.425288243493431 6.079772656508766 9.176492413768763 -0.11401119881184882 -1.1705643910710744 0.690239640230392
Ni 8.869558674485853 2.731138051197245 10.118363692055405 -0.24785383052732796 0.2358184966293487 0.13060304173225895
Ni 2.7158701545676687 5.580107592375783 6.955114211390441 -0.18545521368544834 0.5538025083148592 -0.7441212207401958
Ni 0.7771450156729369 0.2742647975648079 8.52814962521535 0.3337065646270898 0.8242807611099223 -0.40471914839022555
Ni 1.8191580830183287 1.2839647505095058 11.553443402565032 -1.4625046703946556 -0.6959593163229886 -0.932980832121503
Ni 4.425938117672649 7.030376227635868 1.4464652769439181 -0.07567013713980517 -0.2993658823636908 0.28791187489047837
Ni 5.968622005956348 7.885777836901497 7.914283054372281 -0.4477694426124805 0.887583120712994 -1.0949572459587207
Ni 5.547592963524925 3.11574925695931 4.542211955417535 0.22911537357756023 0.10910064888410888 -0.025575277365943047
Ni 1.145999969966738 7.540489180603953 6.842931480072992 0.07398323635568547 1.3928416586808787 -0.5249125647533863
Ni 5.175363096052243 4.753489871464726 7.2345729985221 0.06377672813632887 -0.8658583274413928 -0.7849264276820158
Ni 0.5299503259135532 7.686687006475512 11.413800242660308 1.772313088247909 -0.6143298762759549 -0.29995749320110277
Ni 4.88858624812227 0.3667853464272473 10.302633225444069 -0.3826233449324507 0.7111031139429623 0.29643302498761204
Ni 8.19031881901939 7.9168582638097424 4.117210718238725 0.8338725185634155 -1.197938669318969 0.8807879521680315
Ni 7.8241797711890655 6.614394123686041 6.553933434577467 -0.4755059892958004 -0.9184885520425988 0.8447945647925581
Ni 2.863674649704052 5.330102592987079 2.45626507939095 -0.3724674874453714 0.9229193341204428 0.5004117513985447
Ni 2.3619490549320004 5.172540078304444 11.126223690988917 0.20105641055781504 0.9371488474562636 0.6951949273531383
Ni 1.1378758513677658 3.5702641915824738 3.5125638873520537 0.900326022200959 0.6159239602359521 0.3684362547987913
Ni 1.9549080200547846 1.3491664755334352 2.593118807289568 -0.8169567166446834 0.3730115328742995 -1.8281067981787613
Ni 1.1591347181373668 3.388837645842077 8.207771604304577 -0.35151453934278815 0.23847213220211186 -1.2018092080179688
Ni 3.8493072416953256 2.485853210100681 6.887384478511971 0.3561294124069802 1.6707306021177162 -0.6322527793029628
Ni 4.692817682955754 7.351455918231222 5.837423390780814 -0.8768657342954899 -1.4065600367082356 0.07937509679521813
Ni 8.291094198556584 7.354478634983689 0.1104544272043268 -0.41772147418716443 1.1041826212117305 1.2711642015730236
P 0.5435598130816414 5.784926153344729 7.864541663200607 -1.0104592261146406 -1.0563369624833614 0.2102689302950185
P 8.245435744307612 1.9046474114709762 7.840641323232905 1.8327736075268113 0.7866266982025742 1.3118868761033664
P 1.990100431013684 3.175686190042006 10.340416277127154 -1.2710443881657079 1.4083927190416001 0.1327350004735972
P 4.42112718710566 6.417917534775704 3.6743273429146934 -2.048489934089646 2.1000012145950606 -0.0532935692168179
P 6.933013885632992 4.298893241794198 10.289400443216604 -0.19008577047892425 -1.1868309894415818 1.4900370714869693
P 6.738080425395085 8.073286125056766 10.1514574480198 -0.5488683042380353 -0.8082509613405693 1.5639768561992289
P 2.9272787826906415 8.746480547018296 5.603612165225145 -1.4043540301958524 0.2996443328360581 0.7137150976445127
P 7.222468515671006 4.08777508495074 1.5819374508193367 0.8251752478997336 0.021032652300583134 1.0450184521467487
Ni 3.0288711127014745 1.8269100352904206 0.44897328724364205 -0.7743059718536923 -1.0824565423885486 -1.1052822820338126
Ni 1.8276089818067567 1.4112093253926246 6.568932645273492 -0.6067664621064002 -0.6462537215677451 -0.2551714472346638
Ni 6.822208169724999 0.7755610394768244 8.990470067752767 0.10832468995003279 1.4730765323732309 -0.6038842554625986
Ni 2.9227401689481987 1.7397868058904937 9.119883192282025 -0.35414272099425465 -1.3481535717448847 -0.4375729616954529
Ni 6.955062471193776 2.129272482811942 2.261540395385196 -1.2427748517970532 0.14610525113291611 2.0997088801656227
Ni 4.289416616299977 7.247975524903533 10.26738635112026 0.12020472921707039 -1.7350462334766503 0.4943637454322518
Ni 7.427967868701319 6.265283954617361 11.49492160924723 -1.413103237143392 -0.18050352610712783 -0.7774871977951513
Ni 7.619542754769817 4.101962791509616 8.279140397681738 0.7373761887068785 -0.23259047661035426 -1.448957013617208
Ni 3.2481496970538433 8.402871177805459 12.082323523358118 -0.897876275108886 0.9105497568114964 0.6248947962759946
Ni 9.077409029434751 5.166984815083694 10.018310859826009 0.6617369048050087 -0.03290086449307882 0.1804572462502247
Ni 8.809630818630643 2.794651411908986 5.97836822510687 -0.07586579809037902 -0.26026994480349375 -0.5437554084915023
Ni 3.6441074371720137 2.7054131885050805 11.631562022299953 0.4461162232797736 -0.07648286284908765 -0.9411463986514308
Ni 1.254745155235661 3.7532429432227867 12.718005395015611 1.0069249877091369 -0.9918038157969823 -0.6188773864373213
Ni 3.5262577927357515 8.385887685181238 8.096239710197796 -0.2205374021005621 0.5049957712248012 -0.6858001164017996
Ni 5.937160335493736 8.338976573539352 3.4886635473843515 -1.261543133543492 -0.13544597164685707 0.04758057799244064
Ni 3.253387257312622 8.455900340772157 3.332121313071018 1.0884906643977705 0.12789695565500556 -0.19509967875374787
Ni 3.261275367996987 4.418140779263132 8.946295740197575 0.8979572648584665 -0.981582138068974 0.3166249265544547
Ni 4.936187229053008 4.541019207726021 11.368722730970369 1.6240200854350548 2.0929569061537694 -1.125737721674687
Ni 8.522327491506545 0.2746287943869518 2.308677529991455 -0.6845500460447823 1.0877645848650235 0.20058075647297716
Ni 4.658532994745343 0.38153311792194006 1.4004183173585933 0.6478784016553616 0.28967642299006885 0.13454479998882635
Ni 6.14855080916174 5.426112428094708 0.4919067578016514 -1.2253034344851672 2.1736625488349532 -1.7909600139251347
Ni 8.563901193387318 0.4489796413028815 10.530783891940164 -0.01614627074255929 -0.8256182489744233 0.6578108302777251
Ni 0.3415361304552911 5.107528975057698 5.694936335505076 1.2227652414443457 -0.06369162462169031 0.04920911473479912
Ni 7.71453594039914 6.355239278992573 2.306419115793216 -1.279814935269486 -0.7119749750249544 -0.02404752786750697
P 8.791104197333992 1.9937040903251835 3.7939234459190483 0.31628374116495206 -0.5988837169242137 -0.7793867288107094
P 2.3616404291975144 3.52757399072106 1.5188843055410797 -2.526464439530597 -0.688542197923311 0.24652097064851736
P 4.855681298489562 1.2174105185903286 8.163743420111892 0.2849887877064124 -1.527920219685988 0.12773240505268327
P 8.71272233800201 1.7757507811856084 12.292313380825203 -0.1681455187624072 0.8806516837004834 -0.693155014104974
P 6.7169395625827875 8.1681522295013 1.4828413583668465 -0.12083927747727577 0.09327242360260066 -0.7291057211679701
P 2.266347695061191 3.667553915765472 6.061203372242936 -1.7962989096395452 -0.7074526616745687 -0.7326399595734737
P 6.888562702639509 4.237903350323255 6.085966956544452 1.4414607052401627 1.8287655148086825 -1.9266852073753078
P 2.2508982538819167 8.730776943469445 9.923452924886211 0.35175519459868454 -0.6059473086392145 1.5475467356676638
