# total energy = -381169.9389967922 ev
CRYSTAL
PRIMVEC
9.25057847615969 0.00000000000000 0.00000000000000

0.00000000000000 9.25057847615969 0.00000000000000

0.00000000000000 0.00000000000000 13.53915666265842

PRIMCOORD
 96 1
Ni 4.783113385228333 8.92548544858586 11.518627048291341 -0.3673157680411029 -0.2961931410626641 0.19069100816309095
Ni -0.02448535631068844 5.584213485914274 7.4836468012026724 1.2782113382277922 -1.328925576753208 0.8021674741506508
Ni 8.990757530692559 6.512490540228741 4.722972599032149 0.5710502396517133 -0.7230286617359548 -0.9743424257874254
Ni 8.852627892084676 0.6476413283962285 9.555260209609514 -0.41179173896629084 -0.286451488294868 0.040620858845155844
Ni 5.062601114351017 2.027717563166948 11.796383069113235 -0.7181093700574666 0.5556796707329139 0.13630754831620395
Ni 5.309628563412417 5.743702710347604 1.080229832419519 0.7689699043527596 -0.338735642410565 0.105061960038361
Ni 1.986543238130538 6.020165500291022 3.717147944901859 1.4738908007444098 -1.0116558175259027 -0.031069981931927133
Ni 5.7169222855036566 3.53301795443854 8.717023661415448 0.9543976072343822 0.9297029327011795 -0.35775075006048707
Ni 1.4781961961790997 4.564836734237739 0.7015296485640793 -0.8030514194175009 0.24841227413395928 0.1540695002853153
Ni 4.15216842602065 4.251343878439287 12.82724071380318 -0.6518111610508646 0.8004553765555504 -1.6122133226081137
Ni 3.6909530816788525 0.9218414268312431 9.599411370816835 0.2846437456621678 -0.2132097580908973 0.5032615621425139
Ni 6.033560338002261 1.309891170406813 9.53378684166815 0.22611541040897187 0.16370573782349873 0.7210530260668228
Ni 6.441991881252673 3.4826578049219776 2.087115527907184 -0.10007684811894377 0.705573956594617 -2.2337052638501467
Ni 4.631690665273043 4.748867743510789 3.623552441452434 -0.29583627194387757 -1.0623561720942478 -0.17323707435270164
Ni 3.825632254495095 3.44066017839641 10.160785504074994 1.2345162113326869 -2.3130446223114225 -0.18070921436003073
Ni 3.380559169687905 7.64403980715837 9.76376269932546 0.7831734495466511 0.0975311988789546 1.5216945504912502
Ni 8.677495939357353 2.9666605345263446 0.31840213782424825 -0.19779650885962063 -0.6278510506908412 0.2408570874945207
Ni 6.645680369901677 3.780350672591427 4.312356994190837 1.5867676288414996 0.08680738470354728 1.184749681432521
Ni 4.320538205842646 5.621271303504896 9.161203140336655 -0.0710354665812712 0.5305839041065508 1.8435956378429796
Ni 1.970993015621842 -0.05742296622411065 11.376371651659142 0.09869102351501068 0.287937071701459 -0.7222588734494657
Ni 2.5572946828444167 3.271707612127033 2.8153053437943223 -0.42590272444637617 -0.06633523289212448 -0.06373019116910959
Ni 3.603340852422541 7.159624011863681 7.19561523774981 0.15249341404744707 -1.2787736384891653 -0.9211563286827491
Ni 0.37160776529659545 1.6588877466028698 6.583997512264565 0.4689013394950892 -0.94630737402708 -0.7807823236066553
Ni 1.4710177472399277 4.594688351153599 5.516827646613503 -0.34507803968882506 -0.5775649008417795 0.5394464967035033
P 3.249191703985352 0.5322875391867178 13.2908482577528 1.122234850727751 -0.24384496647825105 -1.4441781041713257
Ni 4.3471798720086445 3.0974822160956355 1.1653203539685901 0.06469821150933375 0.13061795413059438 0.5106989922571656
P 9.158211503240096 8.912469884594346 7.177350895500453 1.3278541980659002 -0.06803087542699252 0.41563888062652293
Ni 7.786637475196173 5.078771125621213 9.081131982697885 -1.881425821316876 -0.08192023181457504 0.5387168176263302
P 0.608071978734749 6.550195898316454 13.131438588294827 -0.08701307295645015 -0.677045510137621 0.10321590796855773
P 8.760020350422241 3.514979326305311 5.089802440518072 0.4651624412779473 -0.0964968440771693 -0.0843236990497451
P 6.488291026794626 1.779265525011948 3.4228750161148995 -0.2562741933805393 -1.0536223917656757 -0.5186143904495004
Ni 3.4443881615439436 0.1968347350162302 6.615285744026113 0.6316861081662153 0.20826115583637034 0.49198804611122365
Ni 5.522623134062461 6.292918808243967 5.312927319716167 0.7240697014059594 1.9894350369090188 -0.33219372752698917
Ni 1.8862299645527278 6.231735481847468 8.571071733602718 0.3088432257265068 -0.9334279469612505 -0.03206808417913832
Ni 3.344509665157037 4.361351758316391 7.544613664061573 -0.43078010714333553 -0.03980556203271209 -1.2115390337112233
Ni 5.045126771508109 8.370228722909498 8.588577528412625 2.542767290455679 0.9725102576746929 -0.6248150920779949
Ni 1.5058276742477938 1.8345562328849256 9.42628586857264 0.5969795579229654 0.26202215160791004 1.0242822480406617
Ni 2.8419812371008812 2.3183522394181133 5.87713120494661 -0.504407502821499 0.6889864845495811 -0.10195683875047602
Ni 2.6990690493930627 6.715781254000961 0.7347725275689869 -1.8740210442123728 -0.6535852222321518 -0.7785750315426914
Ni 4.559443646954829 2.366640259343986 4.180431718602933 0.27906290914028065 0.48057929005364974 0.5040161809203513
Ni 1.4545332162997158 7.112732829295817 10.806264047210941 -1.5120554847395895 -2.0894622627369497 0.4056825407447594
Ni 7.551404513760343 7.564031553453604 6.958584888905629 -0.5229711247562993 -0.7889522610119574 -0.4402188839587322
Ni 0.49234539121048504 3.764356422313298 12.008433155695379 0.5773270737993605 0.4241206928452889 0.16346456834697007
Ni 3.6582522865757947 6.725947639805279 11.936485856121534 -2.0109263740135757 -0.3642882940686888 -0.29883006446487886
Ni 8.71562682405744 7.368640833745885 9.011675863922132 1.3413069811366964 0.014643460944787683 0.5330858445927981
Ni 5.461671072129209 4.201094735865084 6.251299530380271 -1.2589645741830382 -0.5326685545497213 0.2849990721190575
Ni 7.454402947296224 2.9175492131113137 6.866004173920929 -0.3949250451179392 0.33278790946756237 -0.4736910475742487
Ni 7.078875711876527 8.47044024012348 10.107129373428243 -1.078827944497026 0.16620716408911376 1.2888155961062
Ni 1.4032480089301678 8.699586320886661 0.1351685284204724 -0.03211539247730598 -0.762770460410267 0.4728335846699598
Ni 1.0451951163533775 1.9051566482248228 4.262803495122079 0.23199937999357462 0.7493439025917159 -0.25383755891458865
Ni 7.859966811202379 5.071740685938519 0.44807859777154235 -0.4314933311602762 0.6739254764514007 -0.4037351872104014
Ni 2.441671701799687 8.404529868098223 2.6281124867797656 0.12156175746559711 0.33740638207618023 -0.3062260998186339
Ni 8.182654742059512 7.428112803114359 0.911084854116721 -0.5447949054996101 -0.8417912591898599 -2.5093936000912396
Ni 0.5300683253974042 8.7700757292842 4.688596524157333 0.8182114149873909 -0.43235207961614563 -0.18167877736215163
Ni 2.13055624468341 2.1225544942550805 0.4425513770999505 -0.7094982313496877 1.4545666464945013 2.2102298064360255
Ni 4.256283687374233 6.883679254317935 2.903174739133763 0.7277247816600435 1.3304998632188636 0.33596527875427945
P 2.587164800917337 4.95203819976212 10.325055427492556 -0.05002338310597836 2.7817767832184996 1.4773954714635589
Ni 0.04828061946304926 3.06131245404388 8.196673068763662 0.09949449325291253 2.1811130915757277 0.6223833427080507
P 6.163715977917401 6.552277278485673 10.168759502767733 0.12099354366695292 -0.6419913467469653 -0.2565559862870162
Ni 8.686552255738087 0.6314833428781207 0.6123938490239 -0.3635835546921803 -0.5908955565124147 -2.6174077007793892
P 3.009342703863122 0.8127549045757132 3.9084563843043503 -1.8376443053555511 0.6633327885372188 1.25828837405162
P 5.516897025952478 8.479450303611564 6.321351386413347 0.17459615948375737 -0.08003252787355894 0.09047892001786353
P 5.976789537564505 8.328425358533057 2.0688104831122955 0.627944381735596 -0.6253087438849618 0.327470611019707
Ni 4.932084701873211 9.090460266087398 4.108037616086096 1.5533412308622538 -0.7273486292675474 1.0356827765681196
Ni 7.961084885112287 2.9099822398738877 10.033394862082428 -0.34174151911642436 -0.4329917700826737 0.9798412441184674
Ni 7.2220469157831815 7.968152327109101 4.656548819898484 -0.919334702092978 0.5510830525011671 0.22956403107920464
Ni 7.285589139704795 1.6050493795590801 12.201704567861906 0.26016684356672615 0.3308855502385269 -0.10448860403339424
Ni 5.965947859527509 6.00438401331908 7.769079877146497 0.6144638307506579 0.2786829000930426 -0.3677603117776892
Ni 4.290769844133553 1.0009495992450532 2.169108030706605 -0.3863501589647346 -0.03586097556266727 -1.1134434776883662
Ni 0.539844336787761 7.118727204183166 2.5126236391237193 -0.7267835007926967 -0.40070617057609054 -0.8544565133623543
Ni 2.5493299347302067 2.065996457123512 11.866596810270583 0.1393026263887859 1.4814177052490745 -1.9615341967336928
Ni 6.095206193325253 4.4102780681608245 11.052988077296565 -0.021669771663949774 -0.02128024953501496 -2.038766793264611
Ni 0.6388625293713905 4.699478904739862 9.951929642259211 -1.4467389229199663 -0.1122628486621744 -0.6883136268522726
Ni 7.654270947012395 5.352393987955964 6.106390142767854 -1.7195296258982902 -1.494537273350168 -1.2745125492199663
Ni 8.165726183349866 5.886901665989848 11.459880324279608 0.34611805091756515 -0.10922149073268932 0.08846446069099603
Ni 8.07246185061181 1.045287622138676 4.696814738123262 -1.3397666332327702 1.0106829120896723 0.49281645554979
Ni 1.1201895564949584 7.171696016845149 6.479069125058207 0.9948230622392803 1.1971706808046931 -0.24317339433252314
Ni 4.2051927421538124 8.266141213291505 0.8190989513314917 1.944115229926297 0.25122968897809633 -0.9813633371899486
Ni 8.89765045778951 8.161924195574093 11.914660966196033 -0.5874366514295366 1.2890948179095154 0.32637557818331536
Ni 7.195682766973078 0.5624453502519169 7.597335486276807 -0.5133647120147867 0.4162587735987089 -0.3137128951139823
Ni 8.548015591674892 2.230823265368571 2.491313081364479 -0.8619885600733412 -1.094950046869869 0.9049614640904414
Ni 7.174535944453816 6.100432770194624 2.979941590121666 -1.6162463550269068 1.5782979008075915 -0.09816908957326964
Ni 6.578807937709313 8.822073231200548 13.134674440664572 0.02090743957662851 -2.7666106170010223 -1.6861137694420059
Ni 5.134024831180071 2.0432955374112334 7.0760774118712435 -0.5525776347688226 -1.1990234177427157 -0.12985947869801506
Ni 8.165032389960126 8.712481627357286 2.6469318637409147 -0.7170981551841328 1.9213558247425944 1.6896114981826194
Ni 1.8418271876093961 8.567885834357034 8.546430042514874 -1.8040754682611706 1.7844852048340687 -0.8017612398511675
Ni 6.52458104636727 1.059561264810251 1.0657156747061673 -1.0080112787947801 2.4448349994835636 2.5788164707697523
Ni 8.503733072252448 4.430065055636197 2.7803881100755095 2.4851175011526943 0.17692120807250822 0.42104591057470714
P 0.09824761939209214 1.725778679952293 11.661221941155587 0.6757111075969137 -0.7719207594509674 -1.0290981813720663
Ni 2.9056067162292636 7.887561286956953 4.919614922014958 0.15942999326628024 -0.4249737848742036 0.11376180180520407
P 3.3654344737915824 5.098484108468345 1.809616673168421 -0.3902173552296247 -1.7839617282304305 0.4326055903878485
Ni 1.0166755827458167 0.9112448891252877 2.0337036125336208 1.7674264495795688 -0.28224542063332037 1.9967590813742582
P 3.071340081170249 2.285494184480048 8.070609884790132 0.3745058580316389 -0.26768757742380345 -0.959056189052316
P 6.2920307527051005 3.722747320085984 12.946222579912101 0.5013098377327818 -0.7032514791090275 2.3659782370856606
P 3.5563386629123186 5.548913278244325 5.3564966195339565 -1.4920764705145013 -0.23937613207362005 0.931725105337531
Ni 5.705664331432816 6.381326587253847 12.396614257486073 1.9914782925912928 0.5760080978776209 -0.06485684857438508
