# total energy = -381166.4939143681 ev
CRYSTAL
PRIMVEC
9.29011831898612 0.00000000000000 0.00000000000000

0.00000000000000 9.29011831898612 0.00000000000000

0.00000000000000 0.00000000000000 13.59702721938273

PRIMCOORD
 96 1
Ni 8.396808233464215 5.227586627548421 6.135508942569542 0.4391853004878952 -0.20028765071259055 0.33218935665161503
Ni 1.4891873546709404 5.2414567739041065 9.873453928670871 1.1173710948775466 0.09413785692668948 2.074623655062221
Ni 5.931229464203475 4.91241937027003 9.836823921928854 -0.4727124857110634 0.17729376092057852 -1.0524558822614005
Ni 5.729150814820437 1.5775177977719854 10.931207268758635 0.07139876345796091 -1.472227039888742 -2.061181670624702
Ni 8.639986365417618 7.39474822250418 4.802293381043683 -0.8598473453606224 -0.849383212604505 -0.7550229552543642
Ni 0.19280804050940228 4.972563594989862 13.541401590772503 -0.40690741429079597 0.8201325432695037 -0.4852242450248288
Ni 5.509253718879992 2.746474780788212 8.535574727847925 0.6724890011151903 0.5714199642863063 0.5075049107999002
Ni 7.788844323344465 2.9242504811649046 7.508849453274799 0.7730096216397719 1.2417322694651518 2.74062087780548
Ni 8.792437203794579 1.6918327012594019 11.97229134990065 -0.4758258345290644 0.24411853185461183 -3.9076690281931796
Ni 0.7450990597612902 4.8200755961404145 3.992399463430842 -2.057877031731501 1.5361937725486898 -0.7382475355682383
Ni 6.272288280687021 1.828406727766392 13.02589758125889 -0.15065456106649538 -0.42858309949201673 1.9135052183499237
Ni 2.2788195246603724 2.1046483901148956 11.922526045146371 -0.48353683002007697 0.38647742857121825 -0.552004792984488
Ni 5.733582201164483 8.478682044470684 5.1497103543697165 0.8269986742617176 0.7137606061704675 -0.030765820427947014
Ni 2.0923575638398977 6.800199242952154 12.612493827926293 -0.043003500144719486 -3.2203388483000994 -0.01370372273933769
Ni 1.4641783566873463 3.2308522495350966 5.548973618909286 0.5114232720176999 -0.7187791424309814 0.5336800265333713
Ni 8.122183051668886 5.384821876758053 11.292806536409243 1.1064562477372557 -0.013985258535498495 -0.23141779645849178
Ni 6.649885131743182 4.8955020651704295 1.1257003350180055 -2.0456491222067417 0.5274702981782334 1.053668671622579
Ni 1.1578181313883182 4.075240375733779 7.617530829133221 -0.7298305151491365 0.504317257100538 0.781503518043396
Ni 1.3018985733376354 1.1326233310422902 0.5297699149012829 -0.46612274830868755 -0.8587865081962758 -0.15169714339839682
Ni 8.188449464230914 0.5748641482639745 0.20815717367006134 -0.24659270442671724 -1.1887922269330107 1.0011225220947468
Ni 9.432628533678477 7.087942071535312 10.162214025188355 -0.842853124795471 -0.20055967342705458 1.5743934235468626
Ni 2.6794279983039626 3.8825261654174064 3.554235687280313 1.572338597900363 -0.7949457595912309 -1.2175690419553868
Ni 5.597983637060271 3.8804823394306345 3.5607489890954307 -0.7684099180842314 -1.126137785326583 -1.1817921414660937
Ni 1.3266846084863086 5.9682227145640505 5.964661812288006 0.39329445149305164 0.18353357118270328 -0.13905374360277342
P 7.319135951111732 1.2965195949451755 9.107900815841052 -0.061687963928100206 0.202951827808315 -0.015651590494327884
Ni 1.6700566643821566 7.324208355606174 3.9579312671757414 -0.2925794555694768 -1.4385311902981937 0.18887452377964245
P 2.538478326161656 4.422189127106479 11.662713956696079 0.11051398429186772 -0.616605302573693 0.31972027765032685
Ni 0.5454887947631852 8.858527104112294 11.939073603544728 0.6487515482889343 -0.36853395671892014 -0.10093662501607778
P 3.737247298230391 7.155304718035698 0.39674192648134254 -0.35197990901498094 -0.45294018818014253 0.5537055777256786
P 5.023343380643028 3.2851901504288716 0.5941179180711806 1.67878355432918 -2.4781757797275383 0.7428503244475723
P 9.21798035447679 2.67227460735026 -0.01310464062245835 -0.3867373671008243 2.779127004300478 2.988638744714498
Ni 8.297366809089628 2.8476070066609482 5.355420510926524 -0.06643499169478236 0.40623944168949394 -1.4483859716050862
Ni 1.8658830642692965 5.977076197134022 1.595719926207816 1.3850848975535952 -0.4343454558970907 -0.7894181449047822
Ni 4.150053696967762 5.97113052153614 2.7274820633002252 -0.35414889164184166 -1.0753538699054963 -0.5787851464021257
Ni 0.6251673508574987 9.144541970724818 9.574088233305664 1.8084764255423436 2.3310788541053142 -0.36697972485792285
Ni 3.5516028678046254 1.4402470124058684 4.52893815839559 0.7300485446972137 1.0365163282130085 0.038343118554572675
Ni 2.969484066299422 8.878909623271285 12.711113076847113 0.4421621237280321 0.9372396073978567 -0.28756014797801444
Ni 4.549807479744158 0.6777076138947262 6.710322924195659 -0.4522081951101244 -0.9862867426334948 -0.37759735247276904
Ni 4.069870687459441 4.958489066035499 8.058509511074623 1.4067235588692935 -2.3490801757787416 0.5954045001263616
Ni 5.187676280097634 3.6235455425390057 11.645975950876228 -1.0005663924809607 0.3933160487596065 0.8184443569338035
Ni 7.932404518678967 6.971165286745646 0.8597391173829662 -1.2743850225031665 -0.24038400451284406 0.16143699639398001
Ni 6.282284447785961 5.2113010504810955 7.110823632469038 -0.3731696557187186 0.5316195444599167 0.943118177665821
Ni 3.4812766736234186 2.5799958640474965 7.163607296601055 -0.42228106853338887 1.3728184214814163 0.08633790126629645
Ni 7.2060937938069864 3.935823573081552 12.785923611045659 1.1434572504416372 -0.7558724477388531 0.2207261210726005
Ni 9.073314635085806 1.1322610164355442 6.984805967183726 1.3543851544768932 -0.11895620152194998 0.5617518450689228
Ni 2.632884506514287 8.667763818601475 8.051683132278804 0.030508453001502293 0.11471465263677663 0.9400667924340069
Ni 0.8377921423322816 8.430206208111697 6.3341613963893 -1.6567214323228177 -0.5659525134138317 0.6771876921424402
Ni 2.532439749382556 7.657203349560094 10.556894474458495 0.7703870964152604 0.7023513358922613 -1.8995484990595157
Ni 3.627243009551439 1.4024269415324615 0.39557787468069455 1.497660649470498 1.2102596527781673 0.9295088144125023
Ni 0.6241435798404883 7.874796496206357 0.362878516915964 0.05192419967311702 0.3214783979920141 0.24019708531301862
Ni 0.5447855328213732 2.546449247510067 3.5245258895271427 -0.022248012764922973 -1.072747542630901 -1.4721411650431548
Ni 2.258780739871883 6.123776452393657 8.049317868205021 0.7008732086848382 2.9921375018963756 -0.6309075781289779
Ni 5.5213494526744356 6.153495540264949 4.884228506829755 0.8050224271009426 -0.29671790321788255 0.49308230761666694
Ni 4.16887547628231 4.9590186027684355 13.555582956085267 -1.7401650427604545 2.4968000796969454 -0.596324697947786
Ni 7.322545424462392 1.923788370521801 2.107824681500702 -0.13044543310847212 -0.2390028078946013 0.24808085893646953
Ni 6.062062197711259 8.651952037558356 13.03321262026791 1.2670041566580632 0.6999560961872073 0.4542576214399854
P 2.452321770701087 1.679922769827393 2.331564170296277 0.3838667304212486 0.02209786034030388 1.2078926952078874
Ni 4.251557527565367 4.254911260207297 5.34209476549277 -0.9324267593902458 -2.5384331818566994 0.9303207687908366
P 7.100938946787558 7.178362791213737 6.4604094566040295 -0.2306282106776609 0.23132497963436935 -0.16956245371459183
Ni 8.639791272937062 0.48811952832630234 4.759476155632618 -1.70793266508931 0.3097325703099956 -0.5512823129961667
P 4.6323966298459975 6.988788640822495 9.227948651221364 -0.3459486152192364 -0.5439911786513921 0.4258746994219182
P 7.738501173243018 7.4106807750828825 12.239867190065238 2.202693388849665 1.0183003194256142 0.1825321265013824
P 9.372242765887481 6.403474038683429 2.5248590129952557 -1.5856139748530305 0.4437397526277971 0.7612023445921987
Ni 6.716002902415261 0.9648159274101726 6.8506306491757565 1.2037683886268689 -1.1236834102488196 0.36919678711389964
Ni 2.0135123313411 8.572131342656782 2.025562543556746 3.1756422767236727 0.3648603645220749 -0.7180538342291828
Ni 6.1126468908838705 6.196750330239546 12.276347625905498 -0.8893877780219005 -0.9177866408795678 1.5863356835104034
Ni 5.2752728038670655 8.492970246141846 11.037930287717007 -2.1042399352667567 -0.33963912806144086 -1.492599432897507
Ni 1.5707081411887853 0.3712907188751559 4.1686720226954455 -0.3378776652856439 0.49862509181176706 -0.5153807140035511
Ni 6.0302156727901 8.653131882559812 8.68045040390846 -0.5673167407512101 -0.23417299060612576 -1.241380799663004
Ni 3.9310112918945155 8.084084277251828 3.5341123624169164 0.23669704257956012 0.9386925377942995 0.512367381098524
Ni 7.464479849125599 4.948530059409045 3.849196008632213 1.7232867789478774 0.28224876306743 0.17558963374527822
Ni 7.813491006721313 -0.2754882337688343 10.733968770916999 -0.5784812420084617 1.6530064453650755 0.2538599275120918
Ni 6.9173104719942 7.0666769911547584 10.04674807606566 -0.22769946706664013 -1.9719026844522107 -0.3068755604771747
Ni 4.400784694954101 0.7512658401704692 9.062554820277263 -1.7518501924078669 1.2443182850247732 0.696228253713659
Ni 9.21567640518261 9.030412869599834 2.3928863819939394 -2.6719904211212757 0.01991936463174634 0.9345977988996356
Ni 4.447300316389412 6.862145750587594 6.965797456494933 0.32645965325668935 2.3234061680514047 -0.47630174572421846
Ni 5.952828988836407 3.126375581138552 6.275218383942603 -0.9885174317362267 0.0450783803958772 -0.6854787285066388
Ni 1.448032131391846 2.023155473951416 8.58252512681133 0.9009456580628291 -1.7898207581143692 -0.1926509601029392
Ni 8.03663964400435 4.840309473409458 8.845763410824901 0.9988344973915183 0.7780808655150923 -0.29185671847083927
Ni 8.206035657835276 8.350998661006154 8.256713252189103 0.8166597542295548 -0.7540330805372693 -1.6290859299937364
Ni 6.118211671638764 1.595549917046189 4.675079148544298 0.39022121188436665 -0.6549484211282657 -1.432370055792804
Ni 6.376597726957376 6.86728318590889 2.926718865549838 1.0866685235873672 1.2192343454729517 -0.9945250713828873
Ni 7.447729766152189 3.208704607932984 10.464503320726458 -0.6975395163259148 -1.1777945902709266 -0.2860138865368171
Ni 5.003155953964592 1.301991474518852 2.5935789457532215 -0.6211877797380527 0.2846095499901227 -0.8428883489087807
Ni 2.0187240876073687 3.5284890539178564 13.840413332637272 0.6195188766760622 0.09036913391287663 0.3455148701159275
Ni 2.9245106044723124 8.5319237114261 5.7422963319626295 2.360584319763599 -0.7891664339052924 -0.7793129381499804
Ni 3.2524053235774217 3.354494431616692 9.485802382771604 -0.31995861891337796 -0.30807883675665654 1.6653181728528934
Ni 0.3819780707623501 3.407438814792213 10.008771931207809 -0.3942874115339403 -1.3582762620011835 0.7977297500942713
P 3.3958726177307073 6.029091568497375 5.192963286320689 -1.901002715007539 2.7309810407228707 -1.0712951264550905
Ni 5.169179654917346 8.3778285221416 1.4122419513280287 -0.48946322280684085 0.18302295009487188 1.047222658886919
P 2.010706715668349 1.2105488418470405 6.389555583713512 -0.3036871354468641 -0.5231580439561249 0.06464293279136608
Ni 4.236098771010872 5.751214845359454 11.151207485010229 -2.2716406054433396 0.9024816350913812 -0.8196718015830011
P 6.759025439436816 -0.06639368718029426 2.994609190759537 0.23842379546267972 -0.02045312564802929 0.7395053192347393
P 2.9130373085920227 0.6292531448074188 10.564169565959592 -0.5458637130837567 -1.0521028697973558 -0.29665413985948264
P 0.159528050362066 6.3655146160381975 8.2299400607742 -0.4781663097367829 -0.22256548827418443 -1.871550214074377
Ni 8.532220995205993 3.962030996302844 1.8642071269601432 1.5982869423350086 -0.2310231321232344 0.33635505799353044
