# total energy = -340858.51025869924 ev
CRYSTAL
PRIMVEC
9.29399175966408 0.00000000000000 0.00000000000000
0.00000000000000 9.29399175966408 0.00000000000000
0.00000000000000 0.00000000000000 13.60269639135490
PRIMCOORD
 96 1
Ni 2.643871112565513 4.5012474716069635 0.851504366659228 1.9454516893495335 1.5402735990450183 -2.21810406697778
Ni 2.320468083420391 8.500210455840906 4.896862028054693 2.2673795161741404 -1.8733427871984254 0.6261343251100507
Ni 3.9675678802752037 1.2810280518202384 5.024441581504072 -0.21536511387100327 0.07789491270526586 -1.1868240474630463
Ni 0.5101425573544043 2.2543692144581207 8.57042005733158 -0.7320036115410555 0.9975147501388305 0.5509416418272963
Ni 0.09322617193289351 8.203685650688877 6.380453558350687 -0.07543899496560558 0.4019539269402626 -0.9264456021061465
Ni 2.0753111703879443 6.944256835576781 0.6928289757838145 0.2786800718795652 0.09235299711212482 -0.8102057710740949
Ni 1.5793373033784472 0.07967367323762042 7.973220679733983 -0.853402361066227 0.30409696929077307 -1.387974046175932
Ni 4.929114967447237 3.4107276616298927 2.9386309886939292 -0.3557146934670648 0.5722758845286983 -0.28748018666969843
Ni 5.398721780007078 5.558485497310426 8.302161069133286 0.6157031024743977 4.065135984195818 0.37212630205586883
Ni 8.03512052324671 3.7011741962108693 4.981089757224754 -0.3983659524786881 -2.753443740601761 -0.4726026996060764
Ni 0.7269221255327312 7.257064714185208 3.85848615850406 -1.6473672448014276 -0.49866340124887026 -1.4229140525862267
Ni 6.632536353997122 1.236231011831748 1.7780493516941964 0.6840859619241703 -0.559026989938592 -0.6486165653729669
Ni 3.315148250998849 1.6867944354006303 10.940430692901897 1.3867049496555215 1.844050208881895 -1.8127033191394974
Ni 8.826912852039122 1.8858717375901448 6.341318418105141 -2.0606476524981026 0.4158489397547999 2.0136705124176157
Ni 6.206871534189478 5.1326719736356 11.068908045949385 -0.002893776608027274 0.666717902959368 0.8147111151436163
Ni 1.2506831689234705 0.6901485885778643 10.352399838115224 -1.9443795393312775 0.8800654721797101 0.1601337042015242
Ni 6.877879146863546 4.315860219189865 6.674639065792113 -0.8818102227849587 0.8108092089860488 1.2919436002122202
Ni 3.37603319061806 1.4947619789188498 2.369113765371378 2.1876488358117165 1.1156692816950915 -1.427117034923981
Ni 7.299064262672341 7.536609396503424 7.621019287910783 0.6195327606331331 -0.7274848977350955 -0.13956333624934028
Ni 1.8864758470505703 1.370910245539883 12.621329949367942 -2.20114095676088 -0.015902787273185514 1.6632435497120517
Ni 0.8971164897197079 7.606314334244852 10.12728913577804 -0.6255797381581613 0.2937364519920554 0.9973291164905855
Ni 6.5715770624443195 5.398721780007078 1.632187587173997 0.7179713018177054 0.5714269062648417 0.7670418340921114
Ni 9.200085206731623 2.0460165085531474 1.6064107011972173 -1.224911341253071 1.340526137106614 -1.2727037781460016
Ni 6.772773394741173 9.118855719283614 5.058230817724437 -0.043102487616429 -1.7587998842528225 0.5508681082768836
P 4.99697969483229 9.058742180975408 3.25107175463025 0.6803573481196734 5.423109113134285 -0.3500654656010874
P 1.0666435453027068 5.668256833265625 12.344650604690484 3.5495511246012605 -0.8021993558298507 -0.6165978463745252
P 8.936024314583701 4.107237987525624 7.348258290133561 0.6910263977977453 0.028108071090125784 -0.2496852273091119
P 7.331314413867376 0.27149794430534674 13.462166672355222 -0.6222470742405025 -0.4923341165967327 0.3758448885580366
P 9.112926152579742 1.9488106493748034 11.385266229386774 1.3831519421969405 -0.3486091927705351 0.4576221670368441
P 8.763388418777435 0.7133835678250064 4.641362761059759 -1.8429868006143872 -3.4130312031639347 1.731493997349018
P 7.406168223009968 5.218037287389601 13.105708632333945 -0.350510523558306 1.7593161617676085 0.05889446034336309
P 4.37158699341621 9.16807669932076 11.057114899882706 0.7493145920156773 -1.8373524851467455 0.19360869603051817
Ni 0.4488570466929722 2.1611318897351883 3.7691169931261923 0.11096135624193149 4.687611629507359 -0.2674291815560943
Ni 9.12945086982031 5.405896741598594 1.2971001516650715 0.45964228279066643 -1.9251937104314458 0.6841908629331507
Ni 2.5042381812818877 5.138490012439084 7.372444044731496 -0.17574364282463925 -1.834836403593111 0.4028862089465449
Ni 1.4528367823653063 0.9933046568070272 5.528503080089915 1.0145665634147947 1.366295532761234 1.6662949349438658
Ni 6.412110752875334 5.192357988325659 4.214170009016822 -0.9245386148914205 0.1138862431982103 0.42837535435658486
Ni 0.06795766730204146 9.159712106791789 0.5857454622279255 -0.02362483850779157 0.4299223871287306 -0.4455282119867875
Ni 3.936312186191948 4.405472887150243 10.503158606861549 3.2021310670428207 -2.438630413334749 -2.0098547382159513
Ni 2.950052375092654 8.82659685632136 9.617826898615993 2.2915453147870664 -0.7080530142627289 -0.35218971103294183
Ni 2.769423646425371 2.1699797698325005 7.601064158334167 0.8819117813598294 0.2244305665073812 0.9633496742213474
Ni 4.12223849012758 0.6774158199504303 13.071470496314527 -0.1323043406940818 0.1982654780762392 2.184397161643638
Ni 7.359382268797923 2.9058780325479874 10.905132112429639 0.1527158144708983 0.3923063765481696 0.5765436586661167
Ni 4.916819016429649 7.217026197946533 3.7906093489297987 -0.055811707652981296 -3.033128856707073 2.5910739479808664
Ni 3.2726468269599764 5.729950350162637 12.1704412360896 -0.789139437322099 1.7379513229385877 1.2239304653970404
Ni 0.03389239952822136 3.9210049818639305 13.044400816092436 1.6565175438421278 -1.356302168993948 -0.40944149356655934
Ni 0.6266538960896139 6.567859465764777 8.15609483679571 -1.16772023675406 -0.8159169625262592 -1.465715206912153
Ni 2.399085959201021 3.6817218715851614 11.90937858566373 -0.9820927591568055 -1.2291073816122895 2.258173938415472
Ni 7.957543574536351 5.211773136984571 9.019091224190575 0.4569107427921163 0.11376437290836536 -0.3750853846841928
Ni 2.29527207192479 8.294181247860646 11.907759572309788 0.016288966968010656 -0.22796351936130418 1.0476615461965504
Ni 3.1651153430042025 4.614578406382824 5.186000898003641 1.1481690540950098 0.9217677370145028 -0.8348243409537236
Ni 8.328652663071706 0.0650979060563032 2.719723096416564 0.5748408170423971 -0.9918058726795114 0.6105588392692969
Ni 4.458327817941642 6.812942026863634 10.000429866685323 1.5920299056817033 1.7037823903663625 1.3792268961109215
Ni 4.8540102205287745 3.7934263578137224 7.4205841335340645 -4.123147527713596 -3.2498096040657063 -2.536605898839974
Ni 2.901881616117479 7.123844637173793 8.074396932166078 0.6385368125394616 2.1166349664969997 0.02503894524649881
Ni 6.544364254750068 1.8259254911325178 4.027541079308757 -0.0030588414309818284 1.0575705777801463 0.21351906180120003
P 4.058927818674967 6.58727461442369 2.076791703265572 0.6562985073982568 -4.54594358821019 -3.855980084459321
P 6.000777268267326 6.9445635373028445 5.776099665943311 1.8477657100602694 -0.41970379472451586 0.3714778698385925
P 2.168511319144081 9.236424714274154 0.9069309449537009 1.1352767715133738 0.5789990621851449 -1.1740176397269972
P 7.8227435189361305 3.835518846217845 2.867706679241613 0.1191534051344206 0.060069454488070745 -0.7362343617929514
P 1.662221121348853 2.8418145477677674 0.7408882068586033 -1.0227460139017934 -2.3013391609490363 -0.5496650891077178
P 5.295716470008646 2.456718001725633 0.8930159805821722 -2.3034718910213234 1.4540951061747216 -0.6848223258695625
P 3.63864422006096 0.25082160097289985 6.93345721722271 0.23035567374256455 -0.5744515520237783 0.26891656473489817
P 8.930066865904735 8.736733250585115 8.718988232234487 -0.029400821759620333 -0.5213559577503795 -0.09794411804665712
Ni 5.011218090114939 1.6641263896471183 8.897864114067366 -0.9030897009890253 -0.6984535434997519 0.2700717613852639
Ni 4.54452959094854 7.55697253231562 12.66760659283489 0.6129088275587121 0.43386697359877535 0.016874921378467713
Ni 6.668383279979613 9.166348016864772 9.479446797413372 1.21543965431721 -1.213758667070361 1.7823290777230143
Ni 7.179980347034888 7.362858221693295 3.4736117388635286 1.638698770493152 -0.608381886222636 -0.8602862326702538
Ni 0.5186465597588583 4.07272010235607 10.691052448839828 -0.8800189352124909 -0.7105706384782601 -1.9636707834607212
Ni 2.4801667427818486 5.8834592110526565 9.902640344828292 -3.529636645065521 -0.43511807239705713 -0.35725401292972664
Ni 5.73903058005242 8.244495568238557 1.3362650326840542 -0.06724720318343258 -0.6279299835578928 0.0026698335226792726
Ni 8.420068365421663 5.831171213754887 5.796843855415159 0.8403923219598044 1.440935685974628 0.2781373120022178
Ni 6.121311046609801 0.8149641088960025 11.73001291046832 0.9738783416668131 0.855305748736527 -0.07159570996011541
Ni 2.168492731160683 5.426845398887818 2.674575672941027 0.15162823783367432 1.1714087413492404 2.493257613761325
Ni 4.9986340253546855 4.794640201556477 0.020133574217233642 0.1247578958053916 -1.1119434961040722 -0.6830400371581591
Ni 8.57058456098465 5.9883976713244484 11.216062604714896 -1.6103919531286588 0.868238654748111 -0.4337885549523562
Ni 9.271611766846027 7.1538549363694015 13.129622072975105 -1.0144264382925046 1.088519460753177 0.41773792924739667
Ni 6.931310305140274 7.48079897635179 12.7101284636555 -0.45396965788592136 -0.6028367880346909 -0.22073794814714243
Ni 5.804934275189014 1.4573257803558541 6.532790446887481 -0.11625988563670946 0.4163983845003667 0.00016557904358681163
Ni 5.130078949951619 8.268065131186859 8.05389810407508 -1.6641753174977016 0.22516307379803158 -1.0303947886963027
Ni 3.917826436702921 7.2715540472437254 6.054600632993746 0.11379265504313953 -0.5636274648250809 0.15421451050361182
Ni 1.4673075274404264 3.3515714044666693 6.137319017911912 -1.399770781700544 0.14851848856009905 -0.03008679208305141
Ni 2.9274493872810345 8.13171297897293 2.558748371994853 0.7349428966750375 0.6376289560132116 1.0779941357418208
Ni 8.493156316141473 8.997057958070094 11.479900441062043 -0.08060254144441603 0.4842436262791144 0.07772033480061454
Ni 1.68468469928499 0.5028161036981955 3.1803100900326635 -2.753883399242341 -0.5789764364773254 -0.8029822567424623
Ni 7.31102562998877 3.202272721816232 13.547673254783046 -2.675718263594824 -1.8121055376544986 0.8418395959292923
Ni 0.5290957946258832 4.522103188979198 4.213149528728288 2.323556320476024 1.8208416319759158 -1.4269085184576005
Ni 6.2500142436555715 3.6554198750773965 9.071719381584522 0.7594946178724726 -1.677224437372176 0.6479642765009487
P 5.226764345594828 3.2937348941246825 5.232644654142693 0.3905461993239532 0.5545257596341289 0.2827431862053453
P 2.7101651553534594 2.970610684730526 3.928077709546761 -1.1194279774065754 -0.13614762569957198 -0.28099072229061284
P 1.6534661811685298 6.56271059436361 5.673140825903375 -0.0595518914217039 -1.0090291785363332 1.1655455977002442
P 5.318310163828568 3.214373499008144 11.76815545240043 -0.5135907119826638 -1.0537871994783143 0.18337776233112935
P 6.820442278164611 6.918874944247204 9.981331643143342 -0.34087017225506455 0.42830259213712046 -0.7922828680470871
P 8.756994152488621 7.322633825620643 1.764378819304348 -0.46175984335430154 1.5225712966692488 1.7918773835330817
P 7.0645303821516885 1.4532643059834538 8.225087854773005 1.2339107165382037 2.0167401524818747 -0.3815288263166913
P 2.2259760698181132 3.6071190002184372 9.376895963609016 0.3989333949463839 -0.37782129555811705 -0.6452561335411661
