# total energy = -340858.5437395859 ev
CRYSTAL
PRIMVEC
9.35812525425575 0.00000000000000 0.00000000000000
0.00000000000000 9.35812525425575 0.00000000000000
0.00000000000000 0.00000000000000 13.69656224340081
PRIMCOORD
 96 1
Ni 6.993486147705399 2.88034675363787 10.018610586708276 1.092254245205261 1.809309205856284 -1.999516589514737
Ni 7.5539536318817575 0.563906595235363 10.154576661261967 0.7218467256127117 -0.3506560479972348 0.6246425710558726
Ni 3.1337460713404877 7.174294487218371 1.4180049137232218 -0.5052441397901815 0.8333960931476292 -0.7310746719688829
Ni 2.411626330202942 1.6947190648745538 5.1275274264684345 -0.4674658926001433 -0.29480088870082777 -0.365516510048835
Ni 1.3259153455946902 2.7050877824459576 12.98887488758544 -0.2319857531468198 0.4246418554560816 -0.6351637823021706
Ni 6.793315846883367 4.911481066023 0.26273872678257926 0.7221390600421499 0.644402270181303 1.6413243810414568
Ni 0.8400517723665931 7.197437131161002 10.04231939723341 -0.3413792506809991 -0.6447874214348638 -0.699323347699215
Ni 3.752655048206589 5.937870894160431 7.39522578908639 -1.2893953798690698 -0.15930298077011273 -0.2280257400578073
Ni 1.2412523857285414 2.6190398200308764 7.338385471640718 -0.7662311652653578 -2.7781109043311383 -0.9625073808257103
Ni 5.174640908445458 6.135673589273815 10.799752960118596 -0.9363235233414907 0.9333631551615862 -1.433741482219034
Ni 3.4064512016001807 5.2603613364739665 2.804727486091236 2.497816436776602 0.23918561332936872 -1.2858472575064952
Ni 4.895693908590238 3.84997019351974 6.6420660820397 -0.8999773806122887 -0.3845678702533312 0.4144132357495379
Ni 8.448440683484053 7.296998226553504 0.8515660097733919 -2.3770203538324353 1.3549860212856857 -0.5241155227733877
Ni 2.5589887297842666 4.2982337549819265 4.641271747788984 -0.4973431397755499 -0.2906074194447705 3.56344073809916
Ni 7.991230754205792 7.513283219194868 11.120265945254843 -0.04221005770914666 -0.055737145661304006 0.21423125737687618
Ni 7.729072231193711 4.7321793846882585 2.980536715052589 -0.5045887655943697 -0.9505211549981113 -1.178367174944945
Ni 6.949802418662049 3.8248997757590004 5.738448307552316 1.0446584977041686 1.0564292650868516 -0.5599893538518614
Ni 3.1842331574992 6.805050936047968 9.5325607867861 -0.35302249134688235 0.4972937745948532 0.7609192661341412
Ni 3.668226041473706 3.0493357808582653 8.688058290012261 0.9367505835765803 2.0270947562433217 2.4150716521782023
Ni 0.45985827874682805 7.302968710514441 5.810670575603934 3.0611772782038567 0.6164302104484094 -4.3377778203011035
Ni 3.3557020879322104 0.3722025903999459 2.5960328689055387 -0.08768824464660382 1.7364474846995512 1.8392242482481618
Ni 6.958701995851472 6.972664318844761 2.7216301405929 0.5653840425048714 0.5028401583343792 1.3243937503211256
Ni 6.357245922726983 2.5232313328959552 1.3525916176621648 -3.387664956485004 1.062016786476958 -1.4529972451248525
Ni 3.0872174721966283 1.9988300637438186 11.28633710899715 -0.048837333217677185 1.647354646395937 2.5407132361401277
P 2.7205941961188 4.0180046919564125 6.997546638286356 0.23805792748282872 -0.06617299628264732 -1.5054397791952847
P 6.2846643026626685 6.582131032547191 12.401456938269419 1.5145096027070368 1.1999485006601462 2.3341772905249805
P 8.202874116683168 3.4747842327643914 7.634601020168536 1.3623023524414408 1.063142672551285 0.54975327794615
P 5.825629538944935 8.743146766396041 9.02766465826058 -0.07960958140352742 -0.5806206569489678 0.050609851737067675
P 3.184925658773666 2.7624905232240007 3.4303864787583156 0.32327894153586256 -1.4903805708693172 -1.1746272482865383
P 1.7862602468587105 9.00600714880792 1.5161276652524058 -2.2627628433377356 -0.7914912253837273 -1.1277197851017224
P 3.9192109628410217 8.701783852434687 5.393761413062002 -1.760064352787543 1.6771737866398988 0.13265195384148767
P 1.6941575773547164 6.809645775585304 7.810204370372616 1.1741197125225005 0.5911755496466787 0.1028109592206552
Ni 7.2969420778015195 0.5425953364199345 2.000697945559811 -1.0323334004799123 -1.7766726507681854 -0.12676952691878166
Ni 5.216284566166731 0.8181968064694555 4.637724082476145 -1.599296871656762 1.703957482491646 -0.2056702551807426
Ni 6.886784802685631 1.9499338588913118 12.777262406921656 -0.2229897202957966 0.4761222827235606 -0.09538818439402282
Ni 4.229956872569699 5.314872416524847 13.415933872860967 0.17941646369053615 -0.18898533832589387 0.837990397386531
Ni 3.0372076504297776 6.800381231507988 5.202625446434153 0.0287125374433441 -2.573639554554503 0.875214314734996
Ni 5.832170868551041 8.069679918852406 5.647558451091171 0.02737813490263672 -0.5070570246292042 -1.0033886924211042
Ni 0.8674551707722573 8.01403650563652 13.084011461321621 0.014513877345458875 -0.48268630909432353 0.42573714540278934
Ni 3.5352096480242263 4.7074832919407426 10.602152400512352 -1.7232896071613546 -1.7643413828963421 0.23056778975337067
Ni 0.09406506838582604 5.693520883652526 11.832103914091633 -0.6464506680698996 -0.5859040168350942 -0.014188118574923952
Ni 4.709757316396084 0.9748546319416884 13.35454550650461 0.2644824402229445 0.19664568308462907 -0.12455066489059193
Ni 8.782329237155361 4.846704122484426 5.03771936929551 2.209819715481801 1.0339112864899935 0.11717956923750142
Ni 1.6686473277034373 5.458182747838013 13.578402158350983 1.2057818195124719 -0.46978939852699736 0.6065654018391876
Ni 2.364657899168544 0.5520124179401408 13.29032256398561 -0.11221168370926482 -0.1095917295879145 0.06329438918327164
Ni 5.972524032259729 6.33152979431843 7.196639818882833 0.9687505335219444 -0.3210199702983568 -1.361522536852623
Ni 3.9983713450127643 7.448627931285593 12.642694436292357 -0.32570194915505846 1.6316518909486997 -0.5740576590194694
Ni 2.775722912441502 1.0490084170615472 9.427138697499029 -0.5725067695925817 -1.8732574265734705 -2.5519386725423017
Ni 1.3097257887727118 4.4492551815675245 8.56163937492087 -0.17376800715550716 2.414893217618809 1.9678840502111206
Ni 5.394809523099031 1.8135391821974773 10.78768659331729 -2.3069174263677628 -1.4331231319087447 1.49334505281428
Ni 7.825030448333922 8.359781804101727 6.568884606141693 0.7222673580898981 0.8691868775939934 0.6543123302061635
Ni 8.995760001570886 6.242861556810774 7.260917974341286 -2.823140690877267 -5.2801850879428285 3.560368526931739
Ni 8.499610912791901 3.4217891690170723 11.608959415582921 0.5386571680329885 0.6329076392781423 1.0647424129382372
Ni 3.706893815339841 1.562404530824871 7.149564705219666 0.1429042276971152 -1.7636788096116787 -1.8268675264550212
Ni 1.3373322584980507 2.106102254408753 1.815424844451598 -1.8851593202173789 -3.544154636176038 0.5509375280622382
Ni 8.914044851183883 0.4749398335296605 0.2978672576486729 1.4419505003923876 0.5164083839371171 0.00597318686429939
P 4.924151967720665 5.488381418279934 5.007792084488176 -0.6536507853627646 1.480451227570747 1.175392408587337
P 9.075013964995936 5.340120638666869 0.7330771700871723 -0.3857402932948776 -1.726161786502827 -0.10062963529862023
P 1.1168922582098886 3.8306550228373335 10.80840922604942 1.3981666704382179 0.33525591139208066 0.30805389705599207
P 7.3888575847989015 6.462347028315213 5.409210742170328 0.898128500329008 -0.13036110092478193 -0.6402530238996199
P 0.15386910412370716 9.209284347239718 5.107106125371948 -0.18980346335181505 1.963030835883877 -0.9848782923217425
P 5.479098157951955 5.3343747497138665 2.057921946144039 0.9938732967315013 0.011539110987851094 0.2998168538581804
P 4.739048248680936 3.286414527984276 13.28626768827985 0.8469594336543608 -1.8164758988080523 -0.636152114357369
P 5.137573374010859 0.26321037629924265 1.7018115880626332 2.491159850692032 -0.582446654414113 -1.2555378078896764
Ni 4.643735742188538 7.462131706137682 3.5135240641955727 -0.0030192464422980265 0.22840266378125176 -0.04854911255329703
Ni 6.254072590956861 4.324801472795565 11.880590233054658 -0.7122236007006508 -0.9376299008577401 -1.1963972929737785
Ni 0.009226175763461493 2.4529237372869823 9.466214485629578 1.1541059884047349 0.3238911211985648 1.0608484772004698
Ni 1.4921156514665597 4.3232012333640295 1.9228879408732773 -1.2329699498914894 0.6870576429579845 -0.3470048243978927
Ni 8.323668798450854 4.871100755221361 9.624368675342177 1.5312896503788531 -1.008114637141864 -0.18718710877489053
Ni 0.9604524770578592 6.790695571790792 1.9882338584319537 -0.9622564411571686 1.3595484438453875 -1.103639347113751
Ni 7.342768817545582 0.4237424656583536 4.4020340811492 2.186314947491641 -0.003174541073239694 0.1688831682593801
Ni 5.151039716361626 3.735033698209025 3.931872506413355 0.2852620959724571 -0.9518874392180188 -0.8201256012909681
Ni 5.305383277439596 7.3369293473392725 1.1442030111747796 1.588604424939922 0.8849130300799986 -1.842068402565176
Ni 2.0787671703180024 8.967348733067114 6.43202857386906 -0.6175177870856333 0.38624011574943157 0.42708594612119993
Ni 7.009984522663287 8.85438680220116 13.101925720642035 -0.18543541619110643 -0.7141089906488218 1.263850955741062
Ni 8.094563174106534 1.3590431092650965 7.981109941660723 -1.734610945711445 -0.7633034500956016 -0.9004476353804879
Ni 6.844766819951134 6.391309498930452 9.271011477733042 0.6003111933993597 2.1841037987729353 0.172293993713142
Ni 5.799005672379312 8.640226104009846 11.235864995838966 -2.0311162186978886 -0.10615570732317202 -1.1573473781601682
Ni 3.887936107986079 8.59344483548206 7.958812336435446 0.6824815935515279 -0.0914140302376232 -0.20766260302042303
Ni 5.816336920491627 1.4917038939520122 8.518659376902384 -1.1767206404804573 -0.13658985544331317 -1.2085822650757443
Ni 0.5891492025021862 3.036262479771385 3.8255595235948094 -1.2964137201684318 -0.3725029686689972 0.43760175805085927
Ni 1.24828969597717 9.288865845051339 11.024445292556992 -1.0622273598258674 1.1536275061064196 0.27498205420268773
Ni 8.77180134615841 1.926547903690084 5.870141462080046 0.27109917420851376 -0.04696916966068685 -1.426919317090878
Ni 0.6262036355613222 0.21942370787725632 8.409661547926483 1.2893285311868763 -0.22099557268390327 0.4883383651737783
Ni 9.338987964322158 9.208582487839921 2.782360630738513 0.6841839209546151 -0.20401035097981637 0.4874472208180766
Ni 8.797713995198906 2.9799733559076858 0.792289772304158 -0.636714157508426 1.3559033908936327 -1.4194880576238136
Ni 2.0468559629405774 8.350292665016475 3.9332284987737625 -1.5003641644445902 0.29653098401805705 -0.6191643215501208
Ni 3.281117829047143 2.678725943389592 1.2918265024528288 3.1168956548120836 0.7160817981044765 -1.7840355188911596
P 6.354429127002465 1.9441411793116559 6.32231952736803 -0.8869277465171822 -1.918602430367173 -0.1833199125100004
P 2.047978937980252 6.6480215930001085 11.928664794503137 1.2295755794979597 0.14256484207982542 -2.1398258027911665
P 3.3830465301482917 9.084606043459823 11.147481245341362 0.9781905958889218 0.8376654099469444 0.40266483696435806
P 8.775320001282726 7.832619887977057 8.491951287208787 -1.438254282487723 1.271807234473661 2.20330402585047
P 1.5238490544627032 5.836475606203128 3.6032235671146635 -1.1590589615346358 0.20002719796235227 3.7572805763038777
P 7.8931482426155295 2.509802423046511 2.6073328052422666 2.4123758505135937 -0.11138507404291138 3.3221437348537433
P 5.222919477026142 4.920680103223003 8.766895816860098 -0.5640270142563447 -0.500844468060589 1.111553202644189
P 8.774075370613751 1.3612703430937851 11.970206448658306 1.0543944940450098 -1.3559805239884712 -0.028722821855989244
