# total energy = -340865.77928574017 ev
CRYSTAL
PRIMVEC
9.26297534434987 0.00000000000000 0.00000000000000
0.00000000000000 9.26297534434987 0.00000000000000
0.00000000000000 0.00000000000000 13.55730073235416
PRIMCOORD
 96 1
Ni 2.9964797941186183 8.63574194361393 0.9913411879136399 -0.06144576601030709 0.15020358957200583 1.6018800590029056
Ni 8.582933722938575 0.2975777044915072 5.284744011165273 -0.4277994272484568 0.28676670554244166 -0.5510812527289541
Ni 3.509389247764592 1.1900699806151152 13.316699305658442 0.9092768036363437 -0.6930447137793548 -1.1193742413505046
Ni 3.9228328754831936 1.3111555902745131 5.511924031687193 -0.33219938395394405 -0.9513253960669616 0.4242479624517726
Ni 3.8805103425476224 0.30669339822359215 3.208796444899146 -0.0711514233338452 0.5341983609306864 -0.986618672051617
Ni 7.917564963189173 4.614675217883038 5.330459571856218 0.9317366753017566 -0.23290749363014082 -0.7165399686878176
Ni 7.651161801178442 7.290526394135194 10.598839611324406 -0.6690432086584348 0.8073289637469322 -0.26242787168676096
Ni 0.08103621079745069 6.277740492717693 2.532463101600643 0.7280381991354042 -0.27633162625204666 0.7112905473634202
Ni 4.942352959751244 8.573290965926992 11.665161803255023 0.005122665938546016 0.23032713449747433 0.27239192487800834
Ni 4.8434984901761915 3.7851294886107483 2.6774314397931516 0.6954180991075377 -0.2440087457496249 -0.26417416495390633
Ni 6.4471973580106114 9.12064016075363 6.089844749319818 -0.8961181547671986 -1.6006605847735078 0.9380654457332619
Ni 3.5521471405268152 3.3853116971688433 8.58398136541505 0.46096794358062554 0.12702175213890382 -0.30679302806569747
Ni 5.636177578808609 1.8207211099328002 10.003565636260943 0.20133640369207903 0.15288807838270443 -0.007427917032954949
Ni 4.089973997017326 6.694666999049509 13.436138884654094 -2.799831840947997 0.20238567089219983 -0.347193286259615
Ni 1.6276529212753013 6.73157069158952 0.6522755445372277 -0.4313483209419797 0.7425675030998308 -0.18994024603999546
Ni 2.8891682283364792 2.7234721309078296 1.6539097503099194 0.1872732407307936 -1.4548288990169527 0.33068551841257887
Ni 7.2961953348567015 2.8611755177802753 0.7364611668466273 -0.34914038268365677 0.41095407355634384 0.48269119419032996
Ni 2.7637568093356695 7.059470744858571 3.113922275696694 0.14705630219227578 0.0058795987092285845 -0.5873772589465109
Ni 5.451575749333231 1.6078023657749883 1.46222267123016 -0.7842152605476043 -1.2861781584833527 1.841742643794641
Ni 5.060150213273166 3.696825547600724 6.186670627362175 -0.1565470152915304 -1.7136186597304939 -0.13763809420216944
Ni 2.8406765540275023 6.577601520555363 8.560160698814675 -1.4585058336479075 -0.5741538182777016 -0.19597565360079797
Ni 0.26884395593249166 2.4997527578590404 10.852252377145852 0.08362230210734631 -1.3709484581522131 0.16037795900184634
Ni 0.7354811440879091 4.676913147144168 6.869131428646425 -1.1819816317690806 1.8849919414015792 -0.011050601387206774
Ni 1.8122362248006088 4.500249687273908 0.4998097543512739 1.157349177932381 0.6476742560643556 -0.8672014717328485
P 0.42500382056246083 2.0641706198064456 4.694187669287207 -0.3069094990389037 1.2253728542705218 0.2936824588256684
P 7.527704869910047 4.229891234923171 2.3882950844511712 0.697717950885308 0.29494435625722754 0.08249307359890953
P 0.06285021191095316 8.082130977663535 8.361708869066751 0.6035721235388186 0.4551927316597451 -0.1406257160755836
P 0.5485607919612349 3.7057272666094976 8.815810473107108 -1.4966949431231191 -0.43999828330749385 0.4984903660061157
P 7.556308936818571 7.746394447514754 4.623459297108864 0.6556966121481997 -1.323088915466773 0.005010051620081694
P 1.4571308138533416 0.8409743878706496 2.0500946029430414 2.6195851680466817 2.2370806080802828 -2.2421582797135065
P 6.637579283907918 2.9365205567161334 7.602025423807019 -1.170086165883075 -0.7414637285126907 0.3189060092791476
P 8.483542000811484 1.8767250569952787 12.860373661312146 0.5325495124733538 -0.4716393072515425 -0.8053214463986001
Ni 8.6359179401396 2.77703065256103 7.0720433808737715 1.1058746642021728 -1.363560136107942 -0.5165279402341169
Ni 5.001385899650215 5.693524657251183 8.555524579809585 1.4848048765537525 0.43437425225249715 0.36585743832802153
Ni 8.795204058843929 6.9158483169386695 6.564173911944419 -0.4847408776305071 0.317657224473711 -0.4095898462189655
Ni 1.0263191079438458 7.5510197780735036 4.401065455787604 -2.969469885095531 -0.88366835903962 0.7781073478776535
Ni 2.5686322402203685 3.6816991093683344 6.260056547078101 1.0386698842209017 -0.8708953756446678 -0.09083784601917903
Ni 7.768829373049871 0.39240648511628684 8.158661677403892 -0.6941451459323852 -0.24206859130411862 0.5387990929274915
Ni 3.7870006095678472 5.249716997367381 4.465137454105693 0.3073635558571868 -0.2280293396022331 0.16771922985826596
Ni 2.9876984937853024 2.7999009379228 4.116769004901486 -0.6938931778225792 0.45896222600450626 -1.1729125795882767
Ni 4.989103194753614 8.699684260281527 8.885820964720228 1.2573949157030733 0.5979429502774993 2.324219922201952
Ni 6.271515773494077 6.6770580835077 12.927604334117218 2.3406662406834333 1.297324147797843 -1.676634883417293
Ni 6.01122617500654 5.7281033430573745 6.071053878163525 0.5012892689074915 1.356754168929702 0.4396858942733976
Ni 0.6746641551971699 1.075848235456759 9.13553224571763 0.8931253906874618 -0.5800485864955816 -1.336393602995479
Ni -0.09910827509101593 9.09836270579411 11.609211581447749 -0.6457094190285009 1.3775376813339566 -1.8918598721660063
Ni 5.115904060009695 1.3171765240473563 7.397133973814662 0.2628641878932311 1.1246342041978632 1.7080871883893034
Ni 7.300419251472727 6.5394658523356775 1.640975858268348 -2.1853718668520816 1.1595968363159772 0.7424006385046633
Ni 8.445026550615358 5.141293874581025 0.2139506395767269 0.8518458152123846 -0.46622122155976475 0.787811719649611
Ni 4.340342949242224 7.621603647841297 6.933297909309872 -0.3525416950557219 0.9014444520761185 -1.7980549730987032
Ni 1.215858103112955 7.606579102334296 10.168381751061252 0.8730880124206124 0.9293324367356383 -1.811650452394951
Ni 9.234343179310018 9.026695067947204 2.853825347089889 -3.8794766249193637 -2.6783940106547743 -0.9545963535087494
Ni 7.519581240804226 3.3573467755377444 10.01986198824027 -0.06041758185610885 1.1255795988302677 -0.8851086910305723
Ni 9.049065152657075 6.002370770872943 9.240533625526005 0.9727619686741827 -1.1357130877198442 -0.4622061868631008
Ni 1.5999566259202216 2.281822744207216 13.24250009673443 -1.7176252097867255 0.4193415262890907 -0.8628971879305397
Ni 5.729807730463841 1.7517953126962964 12.732284316228675 0.8331364117283393 -0.5827145633635189 -2.086458957134252
Ni 3.4142399682035967 3.1943647297943922 11.59858231759492 0.6453196397892499 0.6116050211456241 0.7314361690733596
P 5.220408944356187 8.541565276431625 0.5092598414821274 0.6628859308077873 1.6843474215702023 -1.5848758111354253
P 3.8859291829431815 5.452316787336042 6.784845766206646 -0.8368336580742685 -0.9825753552201788 -0.5083695727930406
P 2.2576185904403854 1.7559080736119002 7.337196967552262 0.7587230298137707 0.13659576898058412 0.6590668141720133
P 1.771627342246539 0.9572265771567093 11.558940489634521 1.1695470055501536 0.2781581379378242 -1.1957275206002633
P 6.703216725006946 -0.07440762586230189 10.518092405348051 -0.006615191323672479 1.6492485209845402 -0.1132043866398373
P 3.567662623710681 5.35670435902329 1.9474117457859634 -0.2507380940536585 1.4788982812613305 -0.40775947787844613
P 4.556272160286457 3.237622823208513 0.20761476465268863 0.11458635458902847 0.03751830866043216 -0.5777405071876953
P 5.525827757214943 4.376338870228792 10.13795936215333 0.28080560286300027 -2.5617093787758205 0.26770840335940993
Ni 7.7210509478186005 0.4708453577138832 1.3899622029810044 -0.7177866966107251 0.811849477325105 1.4065042437696356
Ni 0.6762481239281796 4.2385613795560655 12.056602160075144 -0.7338560913687618 1.8448228253818615 0.23834177727183467
Ni 6.266699026475802 5.599950083446162 3.438022656606328 -0.00761200801930302 -0.34086914381380007 1.244114396544083
Ni 3.2933396180449024 1.464689401482019 9.957769487687191 -0.7232289506722189 -0.6771887205837047 0.46755510987983995
Ni 5.367708773365041 7.434454500231255 4.6181043712410474 -2.31130681368471 -1.0698026010699642 0.5459017654105437
Ni 4.691224443573465 6.0250372707839395 11.1476532825041 -1.0537617455570176 0.17588839593261968 -0.014765845455264891
Ni 1.1522307275965533 9.182340837462721 6.5160990715120235 0.6731852558512664 -0.3824006873986834 1.2003804459912424
Ni 6.239002731120722 -0.13907523347515025 3.6251542045638034 1.4129643975726829 3.0711215339007625 -2.1249311450675212
Ni 6.525525074907786 4.089510848265569 12.38250604222412 -0.7100831573188804 0.46576459363832046 -1.588900358913786
Ni 4.897019959929251 7.4248302691697425 2.197475946132205 0.656896545993572 -0.8895513001829582 0.6047142075630618
Ni 2.3171332050411833 6.674399609672615 6.000217129177273 -0.43991472245475205 -0.43674918024257686 0.5216611476956241
Ni 1.765263678397395 4.500527576524963 2.807052880947434 -0.21697591000154892 0.3498476931633265 1.2299465896841333
Ni 5.526235328116488 5.202512876588289 0.7823916285583871 -0.18273858608523366 -2.5968687002857727 1.844619965342436
Ni 7.548778138114999 4.922465352350791 7.816732848444117 -0.8179620179807461 -0.08760931177955235 -0.17611748122429025
Ni 0.2719887359569229 6.8483768067826825 12.046366572661311 1.371576064433883 -0.453824904777941 2.079253183414432
Ni 2.3750267990108314 8.239786812761679 12.155190782266688 0.9461183979447255 -0.4017037586026695 0.23907711277596244
Ni 0.7654792887392219 0.002013770772640229 0.17919780983987496 -0.3659389422982343 -0.2001657804227456 0.9684299169577323
Ni 7.314684233026848 9.06231120695733 13.049552326752389 -1.4566340705464913 -1.3873644376163914 -3.0696223236474167
Ni 6.780266151349271 2.029063944423251 5.406773517980752 0.2400181365329931 0.8115355456291121 -0.21811593714326308
Ni 2.01836520825766 4.602401775961472 10.029080500995246 0.5159538128982017 0.36808067123158544 -0.4516353533257899
Ni 0.31170466771760486 3.0116062323510078 1.4726342551696616 0.06603569937383465 0.06983064763989263 0.38173682856243935
Ni 2.8206036871263462 9.13585922873637 8.254999396661896 -0.5023477920789929 -0.419529988150813 -0.20370156149014593
Ni 8.235164588219142 2.0065734410379226 2.9899808908339613 -0.956844783223294 0.7029519455907377 2.1289652059275785
Ni 1.5619784282761326 0.32027106703010566 4.073996291379207 3.9392041226869834 3.281519790684794 2.427530703877161
P 3.3227773527065882 8.521446094655293 4.944442686919173 -0.2593772577858952 -1.7002144705094462 1.2648074061170604
P 5.263704089670448 2.0427175696250526 3.7976437678832276 -0.09604021615572492 -0.9653006273001311 0.46346165653675664
P 8.026627231252954 5.531996898588348 11.702729651105056 -1.4517332908107643 -2.372922529613978 -0.9676986952186625
P 6.296674013689527 7.504491854471977 7.696668944931095 2.256568541601565 -0.7156238846314514 -0.461730789888579
P 8.720757528486478 7.473886984955863 0.5303683089922128 1.2504891897221753 0.7112203562471171 -0.35955206493528397
P 2.393830638332173 5.559257834116776 11.894362078632108 0.5165410528602394 0.6353882396081508 1.7348464587610188
P 0.8972154670940277 5.432169816634605 4.577663148535114 -0.30891187418091315 -0.568826235417201 1.1161552201925744
P 3.4827581945385546 7.73423216129361 10.209284269923936 -0.13297154196443553 0.5438572241766891 0.1382387039006458
