# total energy = -340864.926859072 ev
CRYSTAL
PRIMVEC
9.28015196769988 0.00000000000000 0.00000000000000
0.00000000000000 9.28015196769988 0.00000000000000
0.00000000000000 0.00000000000000 13.58244045686610
PRIMCOORD
 96 1
Ni 3.983941467805014 4.91676379933965 7.49043117285683 0.7412631824661104 0.1383816572364133 -2.5235860895415376
Ni 0.6205452124500886 7.183737921307296 7.623077027288776 -0.9401796638627873 -4.193798357261938 0.5903893062999573
Ni 2.086085396701792 1.197742834313434 3.350095013310828 0.31097287047499994 3.6572538646965786 0.01633216150112026
Ni 0.1582813466684732 7.232022552825777 5.05981270430633 0.970087250055497 0.5989058284114008 -0.6352440007208028
Ni 1.8003587928535272 8.871918235245698 7.45716739557164 2.598005899214009 1.9229797334992627 -0.5189506907429965
Ni 7.041640231933668 7.794047125960943 4.509397601482449 0.04193726366373423 -0.030796673665882443 0.48117989975212616
Ni 4.171298459103615 1.608426686556154 0.5621962559495214 -1.2659317495294906 0.488499573341991 -2.9041204131554434
Ni 3.574779560511176 1.4418665161748927 7.523775687465528 -0.4542244542092049 0.496141663268281 -0.8136122256524827
Ni 1.6989360102539726 5.313573824152017 3.19745599913577 0.9953210849216214 -0.3991437111849771 -1.0151931412552
Ni 0.24427030826507062 0.4499639521520565 5.709650716946324 -1.9528186712375657 0.5270087851607826 -0.9138729076474583
Ni 6.740898341943388 0.5164850106159478 2.9242176960052486 -2.828638223656729 1.1424997716243743 1.5498167626487631
Ni 6.523557179121394 5.581037088613702 3.340723915692654 2.3395863773556935 0.4205427456860435 0.040122321942182515
Ni 1.7153618795193408 7.6929491486858455 9.800165451781561 1.235156416019847 -0.8414480169178282 0.3295161806948261
Ni 7.201500132479 7.151155307188252 8.252609139058968 1.2532868070719705 0.2427165093007626 0.527145310738647
Ni 5.195019880725417 0.5733574949130573 11.793171850661476 -1.388285406768764 -1.632237331138524 1.450515102132947
Ni 1.0218561110442088 3.370681174774877 9.876322092199254 -1.420448878875186 0.6287581358861428 -1.2643317520322226
Ni 0.28268735402656536 3.3834321037978246 2.523834812623861 3.293582378276283 -1.1794100143871624 0.7305547949096709
Ni 3.9702810838735894 4.33486114034775 0.7092114979354198 1.504985979487318 -0.3144153204976456 -1.1121599829902522
Ni 6.300898489130443 0.8055032844237755 5.777495125103572 -0.046168785246578546 -0.5252596636801599 -0.26540315226500094
Ni 7.259361880992882 8.734349260110204 12.063095283452117 0.5315334125040136 1.6621192062996213 0.7037554153286396
Ni 8.924128371114037 9.191285390555521 3.4558349226800154 1.6911323057025196 -1.6562774028068636 -0.7300205196727556
Ni 1.6784825549653442 4.824509807041894 11.480883595394376 -1.4510696890848365 1.9663059070907236 1.5593252163598306
Ni 8.879732123336906 4.13621948406232 7.5356329378386135 0.6129144839856671 0.22982216983659773 0.07623937937971385
Ni 6.840845580354698 4.407088564354734 13.032922221594468 -0.3043337678919275 -0.4775510447502872 -0.8299587853313061
P 2.5729685780619924 2.458989749634165 9.027107435225345 2.745252720150537 1.2420819394950866 -0.633018968045026
P 2.0621333240611612 1.3844130943546125 5.62641703251633 2.482923064604537 0.23570613942120053 1.3091033998209585
P 6.370815155257723 5.033081226103564 7.403652470314197 -0.7903655964197163 -1.6014224026401969 1.465794653999837
P 0.6934770000035372 5.279255821585163 5.840599231554183 0.8207164407974316 -1.3362303379447373 0.26891836450711104
P 8.721505529565984 1.2499344098775198 12.66172820069916 0.5914848533569813 -1.1079068641408532 2.0704420128807053
P 5.903643017015964 3.9178296640499384 11.036588888176905 -0.19365677565963424 0.8920231587622185 0.7446927769729498
P 3.168234656117243 9.160178320624722 10.918203843519022 -0.42015270933647636 -0.2886302411137416 -0.39752005953862507
P 8.4230372768469 8.27323706120759 6.674682600484486 -2.979948673139668 -0.09127390511533312 0.43447709637894844
Ni 7.164778570511167 5.6878145189907245 10.449012344174358 0.4169198042214755 0.6081641137848751 0.3905904222983273
Ni 4.122521979522386 8.975930180288776 6.0960985238933185 -0.7256499014088859 -1.3629610690713625 1.1447875392172864
Ni 1.2575162941655456 2.025281839963547 11.9033383925954 0.6136467341660011 0.04362210756532487 0.21232272750025366
Ni 8.788962955379523 3.4967891620331213 0.36254770315827617 -0.0252744582960726 -2.1209207383565474 -2.043224829035965
Ni 7.874942212054851 3.48988472885039 5.134868718681723 -1.2850088207655996 0.2018323694918911 1.7216970658632542
Ni 7.737048431594902 5.792902961680574 6.126020518397458 0.5093409355673745 1.1684907963714972 -0.9504519923230728
Ni 8.86260096250986 8.680774941879147 9.494560762076562 -1.7168991302539784 0.23647258527357987 -0.2986716845101437
Ni 7.173603995184256 6.609380025994913 12.930048951217412 0.4063093756954809 0.4489084413129301 -0.47026710949436434
Ni 1.5046003445556217 0.7751952355911389 9.61835149534861 -0.3072236878452128 -0.21495116626203625 1.7272694177447092
Ni 2.496806369553022 5.365988123367159 9.031059852016373 -2.6433136220118736 1.1133776574474374 -0.7722087230050314
Ni 4.125955635809496 0.07963948151108041 2.1662909674926394 -0.19103656442796776 -1.41873780972135 0.23153529587296257
Ni 8.355561290729106 5.333433349704496 1.6171249731450976 -0.12586578415758967 1.4792906316037426 -1.5222612216279978
Ni 4.841752329694467 8.302831466341635 9.244507991020953 -0.39887785911810014 0.8742653205581653 -0.39410280632696
Ni 2.052806771173198 3.5535836930523614 7.050087954415173 1.0636831184357876 1.2348597107150345 -0.040593348041330087
Ni 1.6966066920700136 9.071859112828951 1.7176086043493666 -1.0971429407561297 -2.0647310785388573 -0.9520453049521216
Ni 4.509903369773388 2.2537591853383327 2.6734726256009416 1.5194911150820283 -0.36468321551426225 0.9217011454426256
Ni 2.7774474500355115 6.499503024807364 5.056919152873028 0.4512761702141583 -0.9687042536650413 1.206583746588477
Ni 5.538654633848201 7.030596850902149 6.658275291523372 -1.051887154242124 -0.3833399113835011 -1.2044188777266742
Ni 6.461537922454469 7.801397006445786 1.9479800287733398 0.18344975321964535 -1.1259840333575382 -1.109813594245263
Ni 1.5962882475736107 1.8550003285792274 0.7960384572691148 0.010194166924182443 1.339556574104493 -0.20116182578742775
Ni 3.710863711306296 4.565936928318187 10.595199796590498 2.643947141830814 -1.0246440022554548 1.6295456432389743
Ni 4.152701034240452 7.073369072056998 0.8732725233487921 -0.7490194293727617 0.45904604396756427 0.6011686563036486
Ni 4.685075521328809 7.731053453320649 3.6781251906315124 -0.4002685688180397 -1.0365556660913762 1.220166370368918
Ni 5.426847361018167 3.070059926762253 6.932423049562371 0.8496444366856916 -0.3249367888542597 -0.09220695845256377
P 5.171002847019895 5.660243187020437 4.778520157144501 -3.155857895007894 0.23124321855384047 2.1370065881748164
P 8.50198353099407 7.037983851995501 2.8947170204076897 -0.6471188977815178 1.6709347477087222 0.128591667729185
P 5.608023770999969 0.8682398968501428 8.013381665459887 0.5123396131843821 0.7692660954369396 -0.9819752597423347
P 3.0065094449943186 6.699202618435309 12.300584584557749 0.418312313693628 0.2029513135876827 0.20685630506904373
P 2.9086224003552754 3.365651332321866 2.373572445408611 -4.184229482626581 0.8860198899909322 0.23117431298911797
P 9.103226027019318 5.639910373709464 12.811922822803883 0.04334211443106084 -1.0534046193279147 0.369059490205087
P 8.274220757333087 1.8088965328106679 3.9806061811304527 0.0073389568635744565 0.22873896407474797 -0.0035249824341229614
P 8.565988740216241 1.9957338355901382 9.532741163958809 0.5729042621413165 -0.8367470118977332 -0.8451352359614284
Ni 8.866498626403338 5.170557399717783 3.893610323028041 -0.197749200561453 0.005863400759312482 1.0943082995208122
Ni 3.698994396735445 2.0506352155754035 10.973769682396604 -3.075932067915528 0.1356233777649858 2.5016432667218593
Ni 7.090351750450006 3.5517183824747685 9.146606098138507 0.4531037103412003 0.6223272926591347 -0.8768292246305995
Ni 6.98449305513359 2.0422552382044277 11.838224205194011 -0.34892209602526364 1.8344911044385503 1.3342374758844247
Ni 3.2823434066748534 4.165108597634688 4.7644755749150045 0.5102475065420438 -1.0394831241508162 0.9710642692567856
Ni 7.421068531811552 3.232007861536233 2.5142725438718636 -2.2975722377074366 0.7380089371948709 0.7509166463954745
Ni 1.557738495636695 4.670292238989978 0.4991533985029522 -0.0796139522789016 -1.2169002980231365 0.8124881393503685
Ni 4.148571366543792 5.099796239746916 2.7812764408032464 1.0323861080947188 1.8216515294717208 1.215815292489074
Ni 8.488350987519025 3.8679117257570472 11.26490939898074 0.48750815596299907 0.07937998189122458 0.7979079275433484
Ni 0.8292873863109013 3.0047369359379994 5.046120767857671 0.45544855642429305 0.40755224696364645 -0.6743587073340773
Ni 2.254251033401081 8.63625805212436 4.569282423160089 -0.25358559080478266 -0.07068476811007181 0.1635049346666023
Ni 8.239225303660938 1.2941450546121045 1.5213556592215105 1.98423086700026 -0.08892751637034363 -2.416274414237052
Ni 7.717253867107313 1.8364585846288284 7.200934971214445 0.3418091391295662 0.4336427734031112 1.3870602761124111
Ni 8.46386066605501 8.100069422511671 0.31997686130458997 1.7394898710703008 1.1495564213608396 2.0591294160813636
Ni 6.118608460893362 2.669435759425555 0.6917685239968965 0.7546090076453972 -0.5285794720820123 0.3598053185966707
Ni 0.5586827903541155 8.63420713850422 11.832546608122511 0.12807127644934072 0.6136225657962852 0.47534838067201357
Ni 4.998466258668635 2.7365126990018727 9.46880833992323 -0.1707870701503123 0.13486927320778064 -2.9421897092233396
Ni 5.210406372952525 5.95128731803766 9.081179169610428 0.02637206223562555 -0.2871580274435893 0.9945016743441195
Ni 0.7705282470863062 1.8026881110374862 7.584828880295999 -0.739716663914597 -0.008407764447721004 0.6713597726067535
Ni 1.4438246282737586 6.894883906192122 0.2348361056124302 -0.07620621214893326 1.423504120761742 -0.2653257620598463
Ni 5.827165283334663 2.8348637512472825 4.335691713963146 -0.19352102141271835 -0.09582527193144141 1.249954657374944
Ni 6.6251377243071135 0.9165764972205372 10.002571137769834 0.7574775874424439 -1.3861328792021355 -2.620826496652951
Ni 5.047177777184974 5.876053124741421 12.630311173687309 -1.2899435390630558 -0.7212512581205579 -1.3298234059771292
Ni 2.812535705228934 9.074457555424605 13.069662343866554 0.3369548963610584 -0.5010000198018468 -0.08371203360767518
P 5.391666304303471 8.91592471663348 0.30754702554524843 -0.322048154452555 -0.08450316205040286 -0.18568712719059632
P 6.091139210596475 4.898129253867978 1.477049428920014 -1.1734738514083856 -0.9192151457959782 -2.3002011906898514
P 2.833239724625 3.377028798829969 12.854530785266077 -0.523596417045124 -1.5244682565816454 -1.7499540038264185
P 3.3116315667886966 7.119073821284083 7.460223349667169 0.005401116410913279 -0.3115526542378699 0.3060013854023375
P 2.36683783900981 7.320610885033239 2.7517070920799447 1.4483492048298798 -0.1618560862092696 -0.10943489229507604
P 6.669487571323608 7.82807744381185 10.353636508700967 0.08519993100711133 -0.4490326255956202 -1.5124172389543824
P 4.673261887670722 0.6389904428183634 4.380065689375172 0.7780225014733311 0.8188104820239704 -2.5812389641683158
P 0.33406691627951024 5.903373892604271 9.43390104769629 -0.4233974415260192 -0.5356106678971808 0.5139051578992891
