# total energy = -340866.7430752689 ev
CRYSTAL
PRIMVEC
9.27903408726566 0.00000000000000 0.00000000000000
0.00000000000000 9.27903408726566 0.00000000000000
0.00000000000000 0.00000000000000 13.58080432585238
PRIMCOORD
 96 1
Ni 8.21023772640715 7.3270871096842916 12.610849282379597 -0.4967497291659251 -1.6741349998135746 0.06950231776619643
Ni 6.354560837705703 7.616936293989029 4.628297707962533 -0.770258541257196 0.5302105799275321 -0.8581018234244253
Ni 6.804658938773983 7.238871333675548 10.60375618935625 -1.332318404484841 -0.9076840052279271 -0.3903145429291213
Ni 7.841841519496542 1.737935226581436 5.823489246646857 -0.2810115482262192 -2.1145348894348612 0.7592989569218987
Ni 0.4465590775098777 2.4131148548027723 0.0331196559701283 1.107778051872473 0.27225077131445374 1.6258090590146776
Ni 8.111926361432644 6.2465528822263945 1.1418955512370301 -0.652182171237038 1.8136852234367924 3.828846975687955
Ni 1.0599254929974549 7.067979364941664 5.2681028749576 -0.4537192324380121 1.0140543996650664 -0.8503658882327484
Ni 5.555079270343404 2.4972942510320064 4.733358642251099 -0.3639823327924957 1.0132720129730872 -1.4924287116475976
Ni 0.5478100404479457 5.946673062193725 3.0481570936580185 0.4414820669418719 0.8636016701967321 0.39439282676355303
Ni 1.229202909819535 0.6011190185428058 11.960410342448164 -0.11897188525123381 0.5491863496990864 1.0553676565915564
Ni 3.067425935612342 0.45204669820321647 6.017586223547635 0.5518209591084561 0.6607627138171975 -0.2185288563109656
Ni 8.126485165740807 1.542657956558925 9.7629680743469 -0.017385028245666834 2.532303671920194 0.6798801513729388
Ni 6.513028179945876 3.99006812093657 10.908251400888524 -0.9098288194850718 -0.7426014416615597 -0.42900630307236437
Ni 4.214203186624086 3.7105743385489216 6.81382940805235 0.6387520138740613 0.4763356842859474 0.7027601412949058
Ni 3.126217894883553 2.226754736431087 8.645526489249917 -0.8823563250964158 -0.12607764305807964 -0.28377496990396933
Ni 6.642721237826828 4.2607189839452 2.5091352262886337 0.08980606232055502 -0.5653855851667683 0.15905744041820993
Ni 3.077521524578106 1.54564580549916 3.6209407261486626 0.580071212203401 -1.8832394774868468 -2.3017906466641587
Ni 2.3253908675947508 4.054112013438132 1.0276400221817588 0.2033439210404111 -1.835264235159149 2.132312010912625
Ni 5.5081366374593985 8.439003030048633 7.557893800800469 0.4467173471988823 -2.1475252283179533 -0.35441140127460896
Ni 1.5700682229236906 3.2348382666052693 7.323625102107888 -0.6938774940932954 1.1957979688268825 -0.7026860935238608
Ni 8.530679885730382 2.951011175350882 11.842352265269575 0.4194893647208646 0.3598904221113092 -1.9864772398322756
Ni 1.6744387970844514 3.6897985814769134 3.538233912611402 0.48309948537234215 -0.42556822392509286 0.9334919674299667
Ni 6.511896137800818 5.274035889281782 8.481415638545611 0.7945207562386704 0.7753698943418325 1.409103886176012
Ni 5.705845014383591 1.772007839340888 2.155885186536864 0.03211796358046727 1.3254373610942916 1.0368197183860401
P 4.932632392207024 1.3243965193781448 7.648667806476364 0.6120883885399458 0.08597177617612935 0.009506396828538467
P 3.6210594977835537 1.838816883967264 1.3590991785445592 -0.03445278236123099 1.2484713879611984 2.5210882628203484
P 3.281901526930961 2.671545230065161 5.25271545291539 -0.7703762977819829 1.2882173004005684 1.0076158431285742
P 6.83166092764381 1.5356244488052035 11.899880420113268 -0.5040038396251771 0.9097609423616138 -0.6262775355561343
P 4.857128892745244 4.306817224737399 12.427970657555662 0.48829491353035254 1.6701410481628336 -0.4063998785267582
P 2.689778531827776 5.500045319832426 3.0153056017697932 1.1181671084162808 1.617408236545492 -0.15659766602380773
P 4.708311745839992 8.986688731441301 3.6463504327882275 0.18370352110166427 0.07510629421653517 0.016895490203758
P 7.379031141881298 6.070872931960953 3.404789341293999 0.1788287095078662 0.008773375317255857 -0.2665046128592959
Ni 7.415822511595684 0.6649123771270189 3.762779111600651 -0.5268519478679443 1.7748710787830722 0.3631976321076713
Ni 4.571251134982186 -0.0871412638743364 11.86491052476835 -1.3665156191918402 0.3826865940702184 -0.9175328729975488
Ni 3.4811316654272 7.401959634835712 4.747821872509312 0.4282467991985206 0.5515319671131275 0.1678578123186593
Ni 6.596957042257761 8.789305120706265 12.72655790815549 -3.691722330787093 -0.8518373305719523 -0.11694919839425019
Ni 7.2358370895654325 0.5723716433821148 7.996852421580698 0.7092557763215785 0.3781100304431294 -2.6526431269429156
Ni 8.629455202403683 3.311399575940301 4.472376532645343 -0.5397889676445865 1.9337773383353987 -1.5872157721225117
Ni 8.36819472177865 3.606213043422137 6.8703526435164575 0.8967555312408813 1.189812697777725 0.9886333884888006
Ni 4.328409536799286 7.054738183458074 2.4705520751135044 0.15720187526670992 -0.6962146268669042 -0.7077732782387811
Ni 5.114167412911249 5.564571722100735 4.2079444782073505 0.3436220239685889 -0.681759884894155 -0.10678562759768707
Ni 4.905945890492378 1.9624321745940114 9.855114449147829 1.8455437627082862 0.13811426250763956 1.7854920488320283
Ni 1.107267124342423 2.0853886538084705 5.275001836718672 0.3595767475256324 -1.8359748880729283 -0.0572335277011724
Ni 5.7613707536952905 0.4385661176430499 5.638722338408831 -0.6340556368396564 -0.36195758905298314 0.19720052714683456
Ni 4.110936817506456 3.8304223413814595 2.881180877261958 -0.15213397382549929 -1.4214397820335456 0.26394996475824223
Ni 8.25543590090369 9.109840070369255 11.170604951715918 1.104351285579111 0.14171303560249143 -0.7952735752442949
Ni 1.0826220101024708 5.292751700811143 9.370483495234891 -0.6167102035826735 -1.7954525024788497 0.9716761918091719
Ni 6.229822783967872 9.234123451442267 9.906626078361558 -1.5001852156645648 0.5814292688931921 0.4244284538936948
Ni 7.219069875171007 3.1274148902664423 0.1535039869664723 -0.684757276959582 -1.0856465100807562 0.9321066570466657
Ni 8.692181472080671 8.151473604237868 9.009125435594994 -0.6517756798272388 -0.882366352398745 0.5324548958770184
Ni 4.270378458314097 6.325099904832266 8.430963675011926 -0.8567116279451181 -0.24689223794500703 -0.3985107055866685
Ni 7.2025346366259795 9.263649337553533 1.510035656809904 -0.6105768369914258 -0.27986972131229215 1.806116152840283
Ni 0.39605236767573504 6.443630284840228 7.466753273282526 -1.311887904544631 0.6769380380254792 -0.05658946635927028
Ni 7.714913613740404 5.769341443880577 5.541823242405454 3.117392391942844 -0.5947429552829628 -0.8952285530733937
Ni 5.149232882306121 6.7366900149006215 12.366652945236217 -1.2606352770172418 -0.15003595364588998 0.38070427353286695
Ni 5.790785291398848 6.0920755245958516 6.460646177345207 -2.671785504199321 0.731242822115631 0.8021988416092184
P 6.348473791417521 7.400985336268244 0.8193136466789593 -1.7757493676229676 -1.0491425016174512 -0.47440118626739586
P 7.536765440437377 7.210783697830542 7.47989980861956 -1.597745982229874 -1.081151707534196 0.8508253443676701
P 6.2707247657335765 3.985224465201158 6.034752436403024 1.1263367887112665 0.6814192137252845 0.730335222699697
P 0.5196286863597837 4.934580989341961 6.041977092256648 0.5348056554973821 -0.9168605295208726 -1.6157239068645333
P 8.3375460725563 3.9461782902306317 9.433511333516094 -0.09607826848251196 -0.09321585933305238 0.35063419362036385
P 1.6661897358798892 3.98167987422237 12.678794080764622 -0.04538819832681215 0.016423692773662037 -2.111355206155299
P 3.2120675172284465 8.287225871305074 13.287431900538087 -0.5534610658150404 -1.1197429375438328 0.9725899618726926
P 0.18928858149447492 8.545962454688665 1.3011553229787443 -0.4810248622315006 0.19719872737462169 0.1534506357543938
Ni 8.293043825607953 0.5286302772197903 13.351424758352781 4.673095695279371 2.784746921590417 0.17168695625676236
Ni 4.323203998738814 2.3378062150544854 13.094244268966944 0.6649065607822419 -0.3376526937590314 -1.47708591064294
Ni 4.824243996334706 9.12696916708874 1.2004657415962172 -1.3501605748725845 -0.7732114532379329 -0.5419396954390021
Ni 4.765656175810964 4.915113576060553 0.9773448743222661 1.5119932640430862 -0.19420313508140746 -0.887823261748258
Ni 6.96142821779657 5.3026524300634135 12.949867139819153 -1.2634267237194499 -0.15243119335094393 -0.45770444233800534
Ni 0.9991756575573321 7.3623288807247045 13.291179702360946 1.8684846877751757 0.49598919685081677 0.38739402684821667
Ni 2.031774395495804 0.7030445672509207 0.612538725656928 0.2835687674304342 0.1607163161778716 -1.0178709451976793
Ni 2.6216889805127277 5.277970199687558 5.581750925603688 0.2508419666213744 -0.9666890230072254 -0.1643163748243041
Ni 9.167165942272277 3.965719935783847 2.1587774614271473 -0.4342174149596586 -0.4210453963540749 -1.4678394523440075
Ni 2.1613468259350697 8.34429193025677 2.1763241146755465 0.5183012300844558 -1.5737658172651927 1.0737212193980799
Ni 2.4860109457173296 7.605328222485196 11.236770959287766 1.7984308683808834 0.16105853000863876 0.8370545158358229
Ni 3.6259495486888453 9.02302542849087 8.712751234598414 -0.6572714128344873 0.31816244624490364 0.8115558573440863
Ni 9.283673492873493 4.989438638207396 13.53077271074889 1.2300064963877912 -1.6300742620489348 -2.109156655842084
Ni 2.958332333157856 6.109065435805698 0.37181274722052926 -0.24393264109605084 2.0823107392938334 -0.64377620656153
Ni 0.9910750608963841 -0.231652939014778 7.401524448142243 -0.8273174910537171 0.6341158006536305 -0.9986982289239702
Ni 3.0256610036868814 4.575213282489889 11.03789342408261 0.2359773908047162 -0.16328690511852526 -0.17771567894934556
Ni 1.9014503633044912 7.371171800103724 8.974535052739688 0.9117594608488815 0.15083582383936603 -0.5239867105050072
Ni 6.551517612877849 3.0074926551620975 8.11295540630057 -1.1705289098474485 -1.1652501779470124 0.6916020677955572
Ni 8.517290239703179 8.076350545169099 3.216966847167714 0.9847757053056072 -1.6692275352096284 0.007843407303818752
Ni 8.223757278910016 8.414432148080488 5.910474622750399 -1.1618864036811023 0.4449890516538659 0.04265331589415235
Ni 1.16978925527194 0.22791441622589367 9.772434544809098 0.6858412540523802 0.4495414469112387 -1.0412857245771938
Ni 0.8066050817455864 1.0726006534085146 2.6246805410665535 -1.5046962161610407 0.40609108903708774 1.1829414245791885
Ni 1.1350021568963449 2.5918940024161596 10.092655863123703 -0.02109513010740238 1.2053187638331242 0.2155700307929578
Ni 8.246156866927803 5.623549262051462 10.877029307366465 1.960278984170353 -1.0360159915378222 -0.010922817560090866
P 0.38051462528311475 0.019765270272033814 4.7449834160160895 1.0963826655513376 1.3402191473891565 -1.124654001692205
P 0.407635385787833 7.486064798793139 11.02003499529262 -0.05095206556783483 -1.002820735732776 -1.036697848096195
P 4.569877837953755 7.501653575872626 10.197296457173163 0.6992701258637763 0.3952153226648484 0.3150236435056058
P 0.24169192587328855 1.6879954657232201 8.09350747899051 -0.043938610364479165 -0.1620070099648371 -0.379992592177823
P 2.9171612594068517 4.506372129422794 8.47143418169775 0.43920329821002424 0.23349421937154624 1.078902506488703
P 2.5728441456636664 7.7784935545431715 6.777907483821505 1.41386711189261 -1.5876420610266528 0.4506143682604433
P 3.0465573882005756 1.1919475884063544 10.844883022060408 -0.7351676110913339 0.5404307149936435 -0.9342658694815136
P 7.929565506704565 2.306610102827558 2.106083683284888 -0.8485481182977193 -1.062870649836821 0.5304489211905832
