# total energy = -340891.45505529444 ev
CRYSTAL
PRIMVEC
9.03671933571667 0.00000000000000 0.00000000000000

0.00000000000000 9.03671933571667 0.00000000000000

0.00000000000000 0.00000000000000 13.22615219340856

PRIMCOORD
 96 1
Ni 6.653835970853535 2.29489299014981 11.423004447891396 -0.7815762802628604 -0.652567836711231 0.1758526575986778
Ni 4.603268765791774 0.3941789935201836 5.920977900286769 0.32250555370494777 0.25267927694042935 -0.9479675353383221
Ni 2.687520378932056 1.5428481567432712 4.66830242133657 0.5325351142956506 -0.1656006408533664 -0.34409305006773644
Ni 3.4689978077460655 4.223139160076317 4.6452235434086795 -0.43921743927741125 1.062154340496087 0.04823363819540725
Ni 3.63133343682184 2.7259987305577877 2.5859115048879673 0.2489653184239519 -0.6688431768324868 -0.3059692466128215
Ni 5.2124611373618706 4.408437093398448 2.655215914067879 0.4506333944238368 0.8334534287481259 -0.5100302483249152
Ni 5.281989657185352 4.518070574357439 11.651605437379649 -0.5285915562668703 0.10742069007852467 -1.9778023377660972
Ni 5.989167178280533 8.338461219812896 12.18012249562454 -1.5010444783410666 -1.4371965306471701 -0.6528012928782758
Ni 2.018116345341703 6.670228580024291 0.115449513628394 1.60847519572192 0.2249638133030319 0.2225994268359134
Ni 3.054763622642277 1.616199208914729 0.2609958215474175 -0.967112226587573 0.2892177381860955 -0.5394133294727227
Ni 7.930977464174683 -0.1575118282073353 7.100512882629832 0.6156866474141655 0.11369675289522353 -1.660924928881204
Ni 8.671175158318343 2.571470827128944 1.2440634852678774 0.38209421190185805 0.825671727920178 1.1313414410147098
Ni 6.911002934349327 0.8468210438376131 4.7203213934592485 -0.37109194725408345 -0.469228898037837 -0.5608216199451697
Ni 1.1007899123027927 7.488259539210795 2.387809443708039 -1.9233142340205456 -0.44516311533788494 -0.3069794330448906
Ni 7.99410798659304 3.805561388757987 3.4333244538527494 -0.45286871151225877 -0.07561691530436654 0.33648746980633665
Ni 7.7913240010408025 4.2553731385284035 12.389149047006521 0.8444785762140359 -0.924761272425188 -0.11072378630982867
Ni 8.312769826277913 7.33402984752541 8.968508532642236 0.16178795197549556 -0.6942834712824624 0.8594243988905907
Ni 6.869424987935518 0.9243118172114541 13.519905624839163 1.284604900458962 0.508994093750917 0.28670345640467393
Ni 1.9076063025913328 6.684208385088876 9.238137132326823 0.5911693789990915 -0.4156869602556389 -1.0600239244166454
Ni 0.3272620856318451 5.225871629098034 1.0917893396820249 -0.7332917342248597 -1.2338017017641654 1.217510935023942
Ni 6.438563238954007 2.029547795507638 6.921681625781014 -0.3231071918446887 0.2536786647392212 -1.1235211736393425
Ni 3.6778002484844787 4.629014379643749 0.20819155850029686 -0.2128125226524787 -0.12431000963469559 0.6532134407150298
Ni 5.9514117642147015 5.580065849852043 4.873599518581414 -0.19230540383806236 1.1220029372226032 -1.307479233953974
Ni 5.505187592085294 2.8535520262828253 9.118400598968215 0.0009302251237532366 0.7645581484383089 0.7804146558545915
P 0.40062759655450075 5.7870790201297 12.282202182754515 -0.19612709157699773 -0.12765218663405112 -1.266256222748445
P 4.259105303681393 6.4802496260018 12.498330691990576 -0.25346809139031184 -0.1675971024581049 -1.4334943992052345
P 2.667350421010817 8.541001213938666 1.2521513492192702 0.3978422187647342 0.23124656098795013 -0.36650304233182046
P 6.410215049886388 7.882549684380814 5.476830366298177 -0.202344019020987 -0.18466305680145617 1.533504912862617
P 4.968234756188307 1.2173455203978352 12.28661933124551 -0.9760385825429255 0.08880796007334382 0.6887427439698912
P 4.208888253426768 6.045411720440833 7.940691033963904 0.6233889011544296 0.7971376250362271 2.570566057835502
P 4.817303467119971 1.150338245314509 3.6325895408321682 -0.20949502824347147 -0.808640483469504 0.03670352606862066
P 9.34523310245056 5.561929153818025 3.510882098950881 -0.47986555181607676 -0.3798072156398943 -1.7661581243901066
Ni 0.6346451957103119 9.083710440156365 4.586525531904466 0.23612111547143205 -0.9955460564482339 0.782745103759981
Ni 1.7953702464166987 6.480855086208217 4.5939853438506955 1.5059593991441806 0.21798326822014072 1.3345251823281725
Ni 6.2004185700031105 5.794959039532621 8.956261066705563 -0.30469809320988167 0.09405172497078641 1.081263550521712
Ni 8.447380799931484 2.4763683911239647 10.052708835289199 1.8060768149619153 0.525917608979133 -0.9189369524339271
Ni 2.6242271955627214 5.305647788833113 6.869531621225604 -1.5123323925500598 -1.2399538374084902 -0.30864499367277165
Ni 0.4002245588648559 9.36619829168769 8.977423256427766 0.3841264118405385 0.05737519548535926 0.5567711040248798
Ni 1.4438508946343247 1.1217279913814262 11.301231037957768 0.45842897920885567 1.5485443236942427 -1.3405595614477106
Ni 4.326600561617652 6.8082825438068895 1.508045942609636 0.6339340236601275 1.049646180726747 -0.5359557099414253
Ni 5.825186866255984 7.8167623664298205 7.720739992379866 -1.3100518797771568 1.2102156869141092 0.6423412738872164
Ni 5.3879542300278445 2.909182071517209 4.773807928828526 -0.022909557608321834 -0.15078748709993386 -0.036558772960640265
Ni 1.0792825198957372 7.141719419872239 6.987349659034623 -1.0642641877502381 1.5883866525021613 -0.6721172195980682
Ni 5.316446668634134 4.366109099266244 7.093026864197055 -0.12530091279305516 0.004587362260366293 -0.66646207819482
Ni 0.8719151102137276 7.58383188462971 11.122241638517723 -0.10172235414216674 -0.4282398572199851 -0.017925217019853
Ni 4.530487026948738 0.5645265781035617 10.276111903721766 0.8081280626094599 0.203249818664708 -1.4730281956337985
Ni 8.160772204308723 7.064193403292353 4.596061078319561 0.7861201908798009 0.5951049666080719 -0.23585757739740026
Ni 7.455320696637805 6.444400959750207 6.912807567233228 0.6433638016144597 -1.4802054301085281 -1.0589183500572925
Ni 2.505719656055946 5.4113412600906425 2.334826253614843 -0.2721407280991507 -0.6801699146992157 0.5591840843417466
Ni 2.5646481039073787 5.226142730682998 11.213462803497983 -0.5581844394326387 0.6927251256564069 0.5119354357674281
Ni 1.4337297687957105 3.356544870303461 3.362207278741386 -0.9261913200034951 0.0930335681189172 0.13199323721156622
Ni 1.4239068547005551 0.9374060237651614 2.394607767786958 0.4196063499147031 0.7080866957141417 -0.5533875322646276
Ni 1.0833400069506818 3.5145970943368225 8.083255224448335 -0.19350430924216996 -0.6404867371769808 -0.944300113789064
Ni 3.4300947303038916 2.841442822154483 6.880469666506906 0.9537154935656932 -0.4018634241089854 0.6204154203484025
Ni 4.316533656096031 6.897429781662185 6.041084939144825 -0.17318308118631467 0.4790312288402396 -2.009245900987359
Ni 1.0345326849378638 8.929580152385466 -0.15420348519883825 -0.36472255339262993 0.41942894379657447 2.3449990637308322
P 0.3017948027404318 5.481728268266505 8.120579586994076 0.020603792293280646 1.966867693131464 -1.2026795264380643
P 8.444678820801354 1.905166388326667 7.727247334090925 0.6639213140508372 -1.1405884135342743 1.7643586092875228
P 1.7245133288269 3.518166598538834 10.140226752618869 0.9490792803452621 -0.650744410349247 0.5671164518149459
P 4.169858661911611 6.201647563854943 3.632641953805261 -0.1477870097107132 -0.8239506314640132 0.6042997457334625
P 6.890851049867085 4.168186868804341 10.217666016691567 0.22996100940730718 -0.022411277815664626 0.47357946169704895
P 6.399226398975893 7.9396165680155 9.914852775663624 -0.011828874314128013 -0.13858708837900002 0.8365703771105528
P 2.603677695422535 8.271923854143504 5.835352272020142 -1.2980139747760162 1.3233460257829015 -1.2773497615584453
P 6.979076542333507 4.256484655026752 1.2373871569021913 0.3142057755900008 -1.4416784776779237 1.4105336766440029
Ni 5.322826592600261 2.9465308332055957 0.27917408649112874 -0.11122463720564717 0.2388305439827951 0.5202555255973492
Ni 1.5046680168609983 1.026752069449429 6.762743803236774 -0.5312611326792334 0.3188738704896315 0.19190713995837919
Ni 6.747456384860717 0.8669205153467613 8.99404810928964 0.5733138388749094 -0.9400634499998972 0.9160490893631708
Ni 2.3970169572053286 1.7127113731615156 9.066474705056374 1.4911117926083868 0.11511677317120174 -0.3222229894675225
Ni 6.401196403826623 2.1690114875320443 2.3413724532197464 0.4332254833600345 -0.042105670920798456 0.9543207312498595
Ni 4.133675637038565 7.012503367759431 10.237928149151692 0.8729291182452451 -0.1886948036686686 -0.5440320591916566
Ni 8.276758499075344 7.47091807449267 13.284083392799447 1.5208036632458648 0.14134433940916302 0.5941922249858154
Ni 7.661159093380624 4.059728161380189 7.821841002788125 0.37825581199237435 -0.3787116685828703 0.5831650206373763
Ni 3.3229734573655576 8.479813586212543 12.055889290643348 0.1649223838394192 -0.044981964027328986 1.3588509035577307
Ni -0.10843611562540419 5.018560247076917 10.191160414729746 0.7515144278804735 -0.43993400572846175 0.12662785913459482
Ni 8.501637263802055 2.3525653339909143 5.63180106898246 1.7346471982660192 0.8569587109589177 -0.7887581427232803
Ni 3.5696307160842875 2.7899244842920363 11.23883068247491 0.18541716135866132 -0.19706245890707352 0.29252263418961233
Ni 1.178849095333106 3.4052256782432964 12.29903849485266 -0.05861652409162809 0.6094067279427247 0.6097435424568531
Ni 3.363973053731444 8.56383700411204 7.862299299656035 -0.32274955139495387 -0.4033690621202343 1.4420217199499552
Ni 5.8730091858434355 8.03348097344915 3.3180050689851375 -1.1406843156821904 -0.0017524639147324659 0.30867893223450066
Ni 3.0890489364205833 8.12054976581973 3.429144971084572 1.5319244557493745 1.2683305887789704 0.890082747206396
Ni 3.8102152992998497 4.355626504647678 9.285076564419246 -1.128132961379741 0.8117106377543954 -0.4484947508142792
Ni 7.39991656939089 6.540108855961605 11.38279737182555 0.24047759266791485 -0.37980438742641687 -2.719789799992742
Ni 7.948888242221231 8.932200801040107 2.360312513617204 1.3972333599906712 -0.08641272036828988 0.4571161739347031
Ni 4.717700744804608 0.5251282884328556 1.4425767171849992 0.4451867694869687 -1.210935081578637 0.6341019166965596
Ni 6.268510251426289 5.836356251556454 -0.006385345997825793 -0.9455758951776941 1.91176149618594 2.255904168544689
Ni 8.134439203689327 9.138111491538917 11.29800402542476 -0.41282995042281806 0.3936477210674124 -0.6204082212595509
Ni 0.15168856616233256 4.970837331403951 5.731580007328049 -0.11919017190962698 -0.7843427872644041 0.20304181641896002
Ni 7.247223120020295 6.076723953504047 2.502560418919179 0.25427696044485243 -0.1298862181708924 -0.4329226074076351
P 8.694236866479187 1.5543880475431913 3.468333608862906 -0.6523235819109089 1.9734751711456529 -0.31640149768973896
P 2.1471697365035345 3.4383994755232545 1.1539086531884704 -1.151786853353255 0.09946672533877063 0.5532533206796084
P 4.669065120462267 1.3301780000593875 7.9493409818681195 -0.6177895526897813 -1.0258449645420913 0.17072022146811888
P 8.761524279866975 1.813452722133723 12.544701714426527 -1.1381692625698205 -1.2068429137871346 -1.3267090287178633
P 6.622840022972778 7.8354051187557685 1.1783050848192802 -2.8252708498463925 -0.13909256726050884 0.3291690817680525
P 1.7075333328887246 3.325783877129673 5.804931963171457 -0.11566081860012985 -0.4925722007494678 -1.0304171572938061
P 7.056701962827879 4.033142132614829 5.63427441910927 0.4418929292270455 -0.7311723738890118 0.750047870637276
P 2.5089096180390094 8.745222037891207 10.01765991871325 -0.8938087899077316 -0.957974525952363 -0.8626562755643272
