# total energy = -340894.61139092146 ev
CRYSTAL
PRIMVEC
9.04994172877613 0.00000000000000 0.00000000000000
0.00000000000000 9.04994172877613 0.00000000000000
0.00000000000000 0.00000000000000 13.24550450219900
PRIMCOORD
 96 1
Ni 6.441875073466582 2.017675412051886 11.38824640567792 -1.0322583242676027 -0.14585045480963268 0.1295406619060156
Ni 4.723273078842354 0.3388162356148919 6.088362637816566 -0.43727497083905986 -0.3764218441074292 -0.031213192378010762
Ni 2.709425792053635 1.452759962459814 4.804422094468289 0.3460738279431911 0.2890444458330248 0.6421520406945457
Ni 3.25853099380941 4.14505421521516 4.678960945181423 -0.12143011698373925 -0.6489983741924177 0.5256206465640044
Ni 4.708422124807228 4.648710610655031 2.4251589839476533 1.040526477813666 -0.2369217569958565 1.0427252852371975
Ni 7.237183934287307 5.992943674401119 2.5542229149538276 0.18750412579467707 -1.4185303216962344 0.40828758246777425
Ni 5.112321014866729 4.483703026911923 11.671037168321911 1.0778408979934082 0.07719814374855738 -1.5665060503789858
Ni 5.526663537440877 7.839330843294678 12.663271851634363 -0.23177183736380083 -0.0637337907135354 -0.6394654950013181
Ni 1.791372574390495 6.7220703128824955 0.16363742259690503 1.0941195805487738 -0.47703451012518494 1.5483815728641332
Ni 2.651533316147056 1.7910286766127161 0.12273168692428696 0.39678652380671015 -0.6977346630558564 1.1304685514914532
Ni 0.5665118592762863 9.006293652537394 4.830714889567771 -0.28096372570741934 0.057615079410307225 -0.3641065170751859
Ni 8.83763894236153 2.252964841643124 1.1883957857456953 -0.2777362199090571 0.7184472130128595 1.6525426183547798
Ni 6.8130493749879895 0.7552882094288105 4.798382163497514 0.7513005120974545 -0.43172884420985 -0.1582799388222371
Ni 0.6933422647152035 7.3779376747555 2.818828725106543 0.5697281784061801 0.4866373233222715 -1.0875856360849978
Ni 7.54484574621791 3.4966078053889587 3.879210373062441 1.0876967077415656 0.28755397733042737 -0.8717988612955437
Ni 7.465921206217709 3.8305325476120253 12.748850813634578 0.4442768560781896 0.6189640326138566 -0.14805183333632568
Ni 8.13113715768138 9.088132273707192 6.973347369163832 -0.6613540675442933 -0.81065571412732 -0.05581633563867161
Ni 6.804786778379781 0.704545187323419 0.4324143507964151 0.6396611559518919 -0.8256372751378167 -0.3352001184534808
Ni 1.9428233457359072 6.425277480718003 9.190379417999848 -0.1550642600984168 0.25354342471293756 -0.054590690761686635
Ni 9.148676382479275 4.9346525629364555 1.3083084158863494 -0.1897471561925829 -0.869395908281006 -0.06440793396242456
Ni 6.391448799314408 1.9878920545079508 6.97745332763168 0.18023047495139927 0.8732839304815024 0.5977370049142803
Ni 3.4329595666753474 4.321781473227302 0.47457621835207725 0.6239221479500804 0.10547590764732803 -1.3044890409773986
Ni 5.913557587383375 5.416371900130655 4.632112112912298 0.4879853527097338 -0.7866395537183807 0.5507925178439417
Ni 5.5528721680842175 3.1168179595400454 9.462230611333869 -0.9831343130474425 -0.4665693489278029 -1.373707766064905
P 0.24528147002401207 5.6743133333476825 12.427779703353064 -0.7684798520902185 -0.5355674733640712 -0.3749773983514187
P 4.01484365661834 6.094637867266873 12.563731544850484 -0.6273828528051711 0.9951215673163056 0.6700027443582267
P 2.493095989947825 8.491433429495157 1.346550753769487 -1.0323277440529577 0.6452347933849275 0.42224687286134377
P 6.497894211478419 7.875485359669038 5.899030621254684 -0.420567942497024 2.2111487187058693e-05 0.20061160971091258
P 4.7002409776727045 1.0371051983651958 12.46142376594964 -0.05554354159325918 -0.9312350530749897 0.243860907317851
P 4.035586122583304 6.27015243311527 8.23621331369334 0.10827275366617484 0.25653516035140983 -1.0628413392607825
P 4.742983851473982 0.939221030879568 3.8054071949686876 -0.7017892927412043 -0.5914033493867686 0.4759543896871286
P 0.12662044679564183 5.3822898203644876 3.5053962035995077 0.7544832807008103 0.0908959529506241 0.8838218538983488
Ni 1.6201114810567285 1.0930519368448692 2.528302072450838 -0.34841224626838063 -0.18145329161490686 -0.5997432367110317
Ni 1.8632743597707935 6.551144067384987 4.844119662947922 0.20172592582101384 -0.06408834583947672 0.22281488528082916
Ni 6.028084597325185 5.6482404518271485 9.168087602046576 -0.22131027571084466 0.2990437231375817 0.16937090652907605
Ni 8.643843494641741 2.5399294373163643 10.362951380996966 0.06900866595922954 0.03373698724112899 -0.6579136744041767
Ni 2.5661923676088283 5.208205145276328 6.819739091759935 -0.7244648799618492 -0.29040224541249987 0.780397686573727
Ni 0.45138845818827594 8.97339711511041 9.107145295847591 1.2071830707353726 2.068041630969329 0.7365809464990928
Ni 1.3100785844477574 1.1898410614065176 11.42657833798211 0.30943715055676385 0.11795527106126137 -0.7868948642622964
Ni 4.099306760829079 6.976391769491326 1.6611185760743759 -0.3466762374138804 -0.4015222387194827 -0.30686450473358123
Ni 5.811121299312941 7.9270700263358345 8.166820172102522 -0.8721241058454465 -0.38947687751917437 -1.3169493782279382
Ni 5.331954045627518 2.8139073669077006 4.831602688830931 -0.36788938115638575 0.34398249263180114 0.1084272769661681
Ni 1.024145682107853 7.564963766217961 7.250548887924767 -0.9531601352828553 -0.369441556134854 -0.678537007081483
Ni 5.016717432644264 4.602239160947311 6.922855935432711 0.5453034697049125 0.03294945834282712 0.18057191745121806
Ni 8.162033658032335 7.282478891597363 9.170630635613833 -1.3285584232217764 -1.7877124535221145 -0.1734471334809787
Ni 4.28816094047868 0.1320531266903924 10.25999381629495 2.0512019337041707 1.6338211306858765 0.5758582025633179
Ni 8.22997156902666 6.974174533818806 4.797998445977045 -0.251480885756954 0.3311706855791135 -0.28925861872635994
Ni 7.273980996509622 5.962490621184668 6.786797304625349 -0.23217370078790983 0.7621829633379131 0.9922645574834846
Ni 2.2323490748594463 5.410724736621869 2.4711743166027405 0.09113043755893337 -0.30378072360193487 0.6255121181450195
Ni 2.3886325149768 5.247328042469409 11.33428431937369 -0.23240330030021264 0.11994504779778052 0.9303745048469074
Ni 1.1411704759093184 3.1470447642184842 3.813036295670461 -0.33458691034951404 1.2028494763570252 -0.5126049510306268
Ni 3.6097954239857364 2.5962924731059807 2.7861656761707883 0.007480110427129054 -0.15951792499439624 -0.7330099413183828
Ni 1.3748671157929504 3.386940614043653 8.249061515669982 -0.9652993417485505 0.4536238445107285 -0.2353544125087366
Ni 3.85329315053606 2.5041007188367415 6.903357836426813 -1.7064427108073448 1.335349992222313 -0.9234785490580225
Ni 4.247825351121853 6.938083367035088 6.035724557956783 0.34126817902443163 0.32021727189140337 0.05872168221092468
Ni 0.7087986598380497 7.587480020720941 11.349675554917589 -1.3658031665058479 -0.7690812331196433 0.33982321904778895
P 0.23231652380175705 5.692775214049484 7.847776248721599 0.28614424146709433 -0.6336465743266958 0.9678365063481074
P 8.537542881542057 1.807590069595214 8.26422740767002 0.23109949388712456 -0.3050829873531262 -0.9007278856250681
P 1.9810231488938985 3.3690760294822035 10.39601172236547 -1.284825758220516 -1.0560358863031747 -0.13055547632377518
P 3.95492399381117 5.994473114518082 3.974962374325841 -0.9609354083529 1.5833321207973894 -0.8530557763600857
P 7.084683369725517 4.164384890302928 10.417827511394766 0.2562803640281263 0.6280138015209507 0.7227751509642519
P 6.183707391711543 7.779917977212656 10.307068897102088 0.47908650755820714 -0.20323362071479192 0.21784468575974741
P 2.4067504979008225 8.48448307440742 5.980239366494654 1.698726830220326 -0.17255830311812217 -1.4964743424718807
P 6.8558736982629505 3.784658394044658 1.721040953864001 0.005063016345204184 0.7902599240797875 -0.06427063705361188
Ni 5.440263745744751 2.702022939889874 0.3736956152290151 -1.2379350072062487 0.928952170578084 0.44458307446469886
Ni 1.4850411038634044 1.0536846912307347 7.012355332099604 -0.3145438756557099 0.8755220757834019 0.7308275889550833
Ni 6.773935527736428 0.8161083414172684 9.138523253087437 -0.21641746639491763 0.16899423991594767 0.6635022242355476
Ni 2.574083916614696 1.4659819270212509 9.222950157532095 -0.362479265884408 1.4290623315758098 0.6845839846065113
Ni 6.290876799197195 1.7983953290103958 2.622848621503709 1.1016660254374642 0.6302113233929018 -0.6780942631171095
Ni 4.063106994747117 6.890652623526197 10.485631483254584 0.5656560652193354 -0.8770243713605411 -0.1035331820986604
Ni 8.30412678984556 7.2296272331176965 0.5016283035451282 -0.8922789835267666 -0.188159757100805 -0.15896308093219075
Ni 7.864562080253805 3.996653274162153 8.158912333201918 -0.25038431025866553 -0.6782184473997998 -0.006149564541163602
Ni 3.0344272919374977 8.418708099436493 12.322742462089641 0.8845466478795153 0.5198359215614273 1.0026896094715505
Ni 0.17858883098290773 4.909158877673233 10.26035128898501 -0.021579268832672513 0.37529672936405045 -0.417896566312448
Ni 8.637517585518918 2.2043214059704868 5.893904734377477 0.00850315237500471 0.9333533849695732 -0.36922558346930606
Ni 3.7275080133427596 2.7289284160302927 11.406803310765685 -0.02290338696073475 -0.7348701344555731 -0.5476025501517343
Ni 0.8524176117916291 3.484489933693022 12.56546641863996 0.8856735623951069 0.24000605234813505 -0.5943801726269053
Ni 3.159099286323778 8.531732819085901 8.156740347237001 0.8279332702608451 -1.1999495291014108 -0.6658172455219694
Ni 5.624602004575627 7.584194891949003 3.7744654449101294 -0.6173601784618464 1.2149082072937722 0.051538791309240266
Ni 2.998888171586531 8.445713124933638 3.6807533004654482 1.0233455951590054 -1.0157860376441925 -0.4813480498988742
Ni 3.554554580944661 4.424045812408848 9.183492412502755 0.09008245591039325 -0.6025058870578333 0.0820942954985941
Ni 7.3354481993167955 6.184087489255404 11.469361936520231 -0.2510741372368386 -0.03500788353375261 0.041258235318838626
Ni 0.5540301799312256 9.185328645637263 0.15993418652672023 0.38752566733007454 -0.4832722635047806 0.74024245451108
Ni 4.655950563871422 0.377325546772884 1.5752744507876093 -1.0321863333790868 -0.5455053013030735 -0.2212727376046899
Ni 5.790243084225168 5.397765220364527 0.44379193727597605 0.9849649384982779 1.232317146798839 0.692329175769569
Ni 7.732007586803178 9.001804881543231 11.254863842578168 0.6956695529967115 -0.6822694775407218 0.4321661888575848
Ni 0.2452950449362928 4.792215533345451 5.765132211488263 -0.13316617447374485 -0.5826317738417256 -0.07716240541461548
Ni 7.69626031779724 8.590656988325817 2.632597218509581 0.5169835397142967 1.2219368320057793 0.42231269310227265
P 8.714985084934318 1.5344085348576812 3.545318210628848 -1.1372112695319254 -0.8539890868076324 -0.06745366276728382
P 1.8989130294784862 3.386985863751255 1.4846754862259766 -1.4446452736157314 -0.9360530432889235 0.7422062631056702
P 4.621117338959054 1.373473424798795 8.378059382103057 1.3977547797117797 -1.6356867231397056 0.7690359817040047
P 8.334244995225754 1.741190648659374 12.413288936990455 0.7103919468085508 -0.5868252430977828 0.21873171635039104
P 6.2217804956882485 7.52365078317692 1.5065301900038095 0.02553491104631086 0.8954265280168127 -0.9018956806809241
P 1.7059592263201036 3.0438482810603285 6.02639949821407 1.0392437544465007 0.6535427990299906 -0.07401383248330479
P 7.028492282824791 3.985467546442827 5.910673371020795 -0.6126105795920029 -0.7528863685273356 1.0375077455920003
P 2.2614627367308646 8.433242305518402 10.333546311008586 0.3041234516533343 0.6603181700806112 -1.9925429864103816
