# total energy = -381163.240363351 ev
CRYSTAL
PRIMVEC
9.28284748578259 0.00000000000000 0.00000000000000
0.00000000000000 9.28284748578259 0.00000000000000
0.00000000000000 0.00000000000000 13.58638562005388
PRIMCOORD
 96 1
Ni 7.755661049629438 0.5604816064321311 0.4449537878398279 1.3927814948669046 0.4132850356823656 -0.6284413759766725
Ni 4.476653075147905 2.8077549521633203 12.011166070437952 0.10528384624117998 -0.5746459274227717 0.5096970333552125
Ni 2.384104370424388 1.2078098183797703 8.104564288928337 -0.5674854051185905 1.7992767613209466 0.3902142699058312
Ni 5.47946977821717 0.780585340458501 12.925530235421466 3.124216613953529 0.46938393555846253 -0.10293077262797111
Ni 9.03608129901762 7.78611807138073 6.393046757755846 0.15352262664290978 -0.6939921652942886 0.5995673732547997
Ni 7.901086134285255 0.49064117703621035 6.949612859227691 0.46302354055807354 -0.4266411452742975 0.26330487497507554
Ni 6.966841823680723 6.659523883388661 6.736903841302229 -0.4500235287539798 -0.6208028855948082 0.2713197748597521
Ni 5.449495464521674 8.94582417543097 6.35238231719391 -0.22300103314970626 -0.8885557690389083 0.3168216159462931
Ni 7.939470707568275 3.184360064156582 9.677772037844395 -0.8065123813829078 2.804413546781409 0.356189062000322
Ni 8.493452464372167 6.134105447501785 11.139259792100603 0.11100275100282819 -0.8428873204675162 1.1091235101567738
Ni 0.8510300832088897 1.252191110971335 4.606831083233621 2.2304139946933845 1.5811477115515609 1.8390069900310326
Ni 2.61709455297107 7.617179534699306 0.5881454194528637 0.22305734030893845 1.704649366352348 -0.3129783309408029
Ni 3.1634550922017186 0.7040937510245431 6.126997571380185 0.9547940713418526 1.5147440873153462 -1.088711779269641
Ni 6.024075859321944 4.262404961152231 7.618565463790275 -1.5965738162986438 1.666409349034543 -1.2271178619860865
Ni 1.7991086210355944 6.09858927401186 7.00792584893731 -0.7675059182127233 -0.5410246398239005 0.7234544364194637
Ni 7.829905261749777 7.921461983948188 8.838527457474713 0.07499625100123213 -0.31454207588349703 -0.8838627344386133
Ni 6.8402237875065035 6.254717481520232 1.8080628554706129 -0.3619401055514863 -0.7769642354121458 -1.5517972834139018
Ni 3.7377384358907286 3.7008484010112306 8.65444581211213 -1.3726083623531393 0.9221526311577474 1.3046782741700693
Ni 5.465304153348998 0.08605199379288975 3.8243232651144394 -0.8266232932001698 1.8845859642124125 0.07619335663312685
Ni 0.11744843968353826 0.8948627595293478 11.243426333971966 -0.6095900475981243 0.629296010667484 0.5664104268868567
Ni 2.5009011542326016 5.374295119136971 1.2144433410080764 -0.8920578686548959 -1.1304605810716533 1.0794830615825215
Ni 7.412613430361236 8.735744059840151 2.820261732232054 1.22153034059598 0.7691984754237978 -0.9302302659595593
Ni 5.867102912715928 2.772452284159614 4.106009407643725 -1.680865376558873 2.246602945748421 -3.613584963053719
Ni 8.777414761041475 3.639265992508315 3.84149653248411 -0.14740442956031388 -0.1338853120279565 0.058111045210119276
P 0.7049533426777492 1.4693076247601051 13.440127656296005 0.12530965454380355 0.12778639821907023 0.27473240008572686
Ni 3.330602039368361 8.174261762476966 7.839928880185329 0.3957701667270539 -0.559042930778192 0.0688050345888557
P 4.093856304054334 8.97023806363758 1.9660318515840696 -1.1004059277781177 -0.9480703794647736 -0.15517893129941016
Ni 6.066906916426624 8.506290642086897 1.0909907557382124 -0.8598977389825836 0.7105387567990602 2.3353327442856617
P 6.717263193139662 8.851473316217277 11.211892501942359 -0.07024973745518225 1.6877559330311191 0.6303324223517983
P 3.8453359180971347 7.033539081005633 5.865269550388625 2.0419127950927605 1.2188319678282105 1.5799606332219953
P 8.925476174309717 0.9264337229478611 3.1086732975771922 -0.7641704260815871 0.19030868512300775 -1.8005826246165635
Ni 7.821504285009478 6.408255774652314 3.8869834121803923 1.3532993776118825 -1.252135981296979 0.3867934171497403
Ni 2.0123356218363146 8.1370375450973 5.85493031514736 -0.7415267205401423 0.17509623904862748 -1.091530993885991
Ni 1.547849795146474 5.746583707169748 10.987473172240227 0.9613452421968088 -0.7676236747375103 0.28799929239796207
Ni 2.867954216429436 5.9886153829153805 8.986388361242854 0.6064070218844524 -1.6180492125636006 -0.4613453815247022
Ni 8.760362170685754 4.559586032272573 1.5899465790355114 0.18254395357592432 0.4351725797840763 0.18601340018176352
Ni 2.250310693343814 9.106556675163858 9.894597998514966 0.12153167555861004 0.9942985571943779 -0.21220008587946035
Ni 4.630358459530069 6.39259561138062 1.4338527180618783 -1.353856792777249 0.37751199184781437 0.6517826218057743
Ni 7.48327446345201 5.553119888114989 8.936131954641416 -0.985839113573115 0.5145165662310429 2.116761207662219
Ni 0.8179450874076774 5.999337071462391 13.217745911560167 -1.2620398706742522 0.5381997687805956 0.6960454482788916
Ni 6.842024659868511 2.32597518108986 7.8494122369122765 0.9221909405948505 -1.9279604745433054 -1.6120680552795008
Ni 5.300264412502851 1.509678727349671 1.539106281343505 -0.29442267942580264 0.6664438233623747 0.40726222652705346
Ni 0.23684070757637865 3.6245619625009864 11.375078458197306 -1.9036208693566763 -0.43642059325856447 -1.3104056635721495
Ni 7.112341171114353 4.359401431825575 5.475897738604279 0.2773145589906063 0.23219401250288396 -0.4273595114975608
Ni 5.3390759967583055 7.532390008129268 13.03215580352322 -2.2712197158558367 -0.9681872048193069 -3.049438392500374
Ni 3.2735960745482813 6.010560033759652 12.682714159085164 -0.027498719640901028 0.35350714429278474 -1.0065786601133115
Ni 0.7137841152446507 2.517953744588323 6.461956117574912 -0.9774082091969425 0.044904830932490404 1.1475226787602624
Ni 0.43174522452074454 8.426838752672298 4.094392852624046 -0.8885043469756828 -2.196976026749913 -0.7540729326362691
Ni 2.395438726888371 7.481111560048155 2.963774550359139 0.10578032626162429 -1.3478676650733497 -0.14032206879223574
Ni 1.1981185258749398 3.734795773319817 8.410706092476758 2.5683356258430865 1.7639467185610846 0.5058861442495546
Ni 1.7261547246797886 3.6206167524295756 4.719652023574574 -1.479723348265787 -0.15289784857471733 -0.05752277680681706
Ni 0.2555939155440589 7.992596442247531 10.450185687889102 -1.8523427879079906 0.5331472939583528 -1.309622505549222
Ni 7.463641241567225 1.6109917219835006 4.86300239187519 1.970652356984877 -1.3907996885501854 0.6246474561518791
Ni 3.3354012713846415 0.7457560976633639 13.39602670569069 -1.271188884163372 -0.12951495087440276 1.4278024910267797
Ni 5.4308276587484805 8.572625868369961 9.280425332007463 0.93305873654729 0.3881728139957702 -1.6757277982219916
Ni 6.951979985270537 4.422264873245797 11.451434518061752 -0.703514502962427 -0.35492767878939524 -0.12283676752327878
P 4.600876136737598 1.8419489609875022 8.021170902581218 -0.08963251285716822 -0.7638279551405038 0.24748616277526408
Ni 4.5283770998959065 4.815987555525368 10.92853544691224 -0.7786832749857816 1.1434248545418049 -1.9737042564373233
P 3.4802693852068463 2.408750329811672 4.394543506572258 1.2411681694315657 -1.775612327824471 2.2040625012830493
Ni 7.437482178081964 0.8584879226709401 9.493772081537408 -0.26943901289727146 -1.1121810660361748 0.7430729819813395
P 4.038641928749037 3.166379189078176 0.5413440885892593 -0.4126833975426247 0.4238728385005409 0.10114668414435483
P 8.126909958772808 4.9598716875415265 13.16685084506952 0.07981552676674641 0.7079275444284582 -0.52930683716634
P 5.404278715679693 5.918789806075023 8.769970845850265 -1.710419436066906 1.4583361408392628 1.1441504198539196
Ni 0.40957128734997045 8.482786472908517 13.392385044723598 2.0281823328805455 0.8174992194117148 -0.922987725464533
Ni 2.611487713246053 5.7673215878745285 4.923733563287404 -1.2893853525667407 -0.8287259413654695 -2.7484719984187826
Ni 0.15213379834665933 1.970906274662888 8.953128847913776 1.4341942534857366 -3.979758904180894 -1.0063480321597444
Ni 7.1811456347597575 2.092028865278813 11.539460045175069 -0.5067394933887853 -1.3804224590809193 0.3431862219827509
Ni 7.656009684649216 7.558614051545116 13.186836815148926 -0.26614568685798035 -1.1805518413010894 -1.2744086766522502
Ni 5.375928900248897 5.2166909389195295 13.032264412835774 1.1152105968911181 -1.1573674327648262 1.3169666046191189
Ni 5.2344583085117184 2.0054570320412197 5.996989439398721 -0.4188537880193948 0.14388484644282962 1.203282707239702
Ni 1.7782036490807307 3.831699415520893 12.836199539988051 2.2771211689419366 0.43571148300668183 2.7704940112158285
Ni 7.216318342902288 8.219831259513567 4.878517742730145 -0.27805529381137273 1.297046468656424 2.952138592905935
Ni 2.989643060726199 0.317272865658134 3.801972953846355 0.5460115515155306 0.1828684267948786 0.6028442442338586
Ni 7.540920944730742 2.1705339042762746 2.146363226667005 -0.5602297519974416 0.33156355014215805 2.267717616239849
Ni 8.502791008682376 4.36678129537092 7.502293160850378 0.725074745631706 -0.9646460244352677 -1.9647750722684936
Ni 7.483478686091002 2.8920617706775626 0.10330602193343388 -0.25478269643667734 1.5584736669928128 -1.2606612451591708
Ni 6.313895632591395 6.831237991390913 10.86903982246592 -1.073357408300758 -1.0712169649189875 -0.696198428916988
Ni 4.391900679966773 -0.023529232865894027 11.211947270740998 -0.7638318117952458 1.8533115795791633 0.452885166572491
Ni 8.7888326631305 7.3127392770475685 1.7194933535098016 2.3377266984391354 -0.12473681275946905 -0.20035964160110656
Ni 2.219909368675884 1.885039937814535 11.693516321182408 -0.18196237004084143 -1.4288684703974488 -0.7431961378227653
Ni 0.42460764328802036 5.955429204079396 9.089604339558187 0.15199076337941567 0.6407551603470191 -1.6762021667552487
Ni 3.8109336862744323 7.375370647287118 10.375935906060427 -0.0954069534471002 -1.9928373777223485 0.9620163001219045
Ni 0.7659815652012223 2.5717571271151396 1.9535594180500753 -0.052774206378238146 0.02228503665044549 -0.536293038676186
Ni 5.654599973998902 3.048514877838875 9.689551970975266 0.10984138370487534 -0.8942764735727695 1.507417985967578
Ni 3.065836670764175 3.4600234954050886 6.546260151234987 -0.07128229248475466 -0.7231153079124901 -0.4497664184378512
Ni 0.2347316446864386 5.447369692506726 5.295361212597629 -0.387262643476675 0.18248558953416313 -0.03279879169757577
Ni 4.695078470395661 4.840420009426435 5.473098960165383 0.929030075003871 0.5800940950215364 -0.45992690391062085
Ni 5.594669912302365 3.9519030042613608 1.9281392692040722 0.014037451929672599 0.04232447179982388 -1.0872364802756953
P 0.8245581877720846 8.797326468343067 8.033018600496845 -0.16590994456366912 0.22350265537647315 0.3581582699115509
Ni 1.6398706597062276 0.3787132465984792 1.9324186617756494 -0.6698086260695496 -0.8290645556518109 -1.1261251869210929
P 6.068271494968971 5.2334743267056725 3.5606244956566186 -0.8302128103236412 -0.4959866257476554 1.4359220348101205
Ni 4.868092177009672 7.139883378836414 3.8907197581891992 -0.010545122505697967 -0.8308764120495692 0.1862759098145308
P 0.6738260993566794 5.844740533746449 2.953490083916513 0.6435437788357496 -0.031125774870527045 0.8974890669727962
P 2.4152576057176933 3.721623413104919 10.650490037065325 0.9368989362289863 0.6862703711699988 -0.8578801943319225
P 1.9170936092888446 7.816788598618239 11.51205708016141 2.1341647478506474 -0.46126259200290887 3.5910039924294086
Ni 2.990348557115439 3.674095235303452 2.9057066278163077 0.9229388745044685 0.9322190142548138 -3.0058769629696553
