# total energy = -381168.55863077287 ev
CRYSTAL
PRIMVEC
9.23617708776096 0.00000000000000 0.00000000000000

0.00000000000000 9.23617708776096 0.00000000000000

0.00000000000000 0.00000000000000 13.51807877502248

PRIMCOORD
 96 1
Ni 6.802998510596062 3.0009354961934904 4.7270827632804835 0.2584524319787807 -0.8227010753276283 -1.6581224264354024
Ni 6.158655096488979 8.899629155624746 2.652922813207308 0.5685035619704596 -1.3406531496027816 1.5776962626678506
Ni 0.5048762182101411 1.9364568639779114 3.8118007157842944 0.3215120794434269 0.04590653272412739 -0.12970007030201536
Ni 0.38858166671858957 5.809869345490229 1.684285218578487 -0.43384486211158835 0.23106889775950526 -1.4096188781392176
Ni 7.624815065222727 7.750196167619466 8.878552199774333 1.1449770295202732 0.5892845032715528 -1.3405721598532008
Ni 1.255999997909779 4.5256990078154375 9.752131061005937 1.3858369452282713 -2.6143917967712005 2.6764407435831457
Ni 8.795057159946229 7.784416203301227 4.498330368211606 1.1794966605636976 -2.1078027129173504 0.10404817406186598
Ni 1.8681183905610814 2.2702707721048294 6.102952636787728 -0.8216656920845784 -0.060766480555095356 -0.18186132568660293
Ni 7.099405901985832 5.492237219418492 9.816071266948635 -1.2501318063827567 1.071314152618484 -1.9604111388728431
Ni 0.10754512104584757 5.66627450210444 8.482959351116195 -1.8889491262771145 2.4305311812663817 -1.4744109349139383
Ni 0.8156966637649281 1.5533956602355672 10.387264159436405 -0.45489808323746167 0.3035984323877997 -0.08017265299584903
Ni -0.28106240696826396 3.8284784805428793 5.118863841702221 1.7608647372016513 0.031675990947042224 2.3999723346429183
Ni 2.2551142056935554 6.7049010749750115 9.70819733800258 -1.2905804013161064 0.008967236495616815 -2.4264500692184727
Ni 7.857843810229704 5.490177551953706 4.080391512987084 -1.7945346186502706 2.5536484561445567 0.36050285888432754
Ni 8.385626670948438 2.172367296200194 12.143249819849581 0.7311533477256181 -0.4546353164943783 -0.9782222204578055
Ni 1.9669731926938467 7.951046072055522 11.626047923470125 -0.8294653906346554 3.1850859386350763 -1.0149923380983035
Ni 7.930994331849016 7.420427705006343 2.435687007204986 -0.1210861033807592 -0.6423276470404615 -1.6314644575282418
Ni 4.93236787989856 8.003683044619722 6.505562209091597 -2.161887410576896 -0.2577255811150852 -0.33719966538201285
Ni 2.5959198997883797 8.170571526329237 7.484919310714279 -0.9736405146243942 -2.8082028386205122 -1.464412943160962
Ni 1.536197898713451 0.10015802670353367 0.055576847694430435 0.6533304259088685 0.09804696217310857 0.3983839502008171
Ni 0.3552566165854278 1.999660022998234 0.9499629684088606 1.2279958937156659 1.416280349319793 -1.2846439812270134
Ni 1.9835336580048857 5.923677518140882 12.272861091299557 -0.2803363765360655 -2.48516095279612 -0.9679012981477718
Ni 1.75781996515984 0.9743704896754257 8.271563579813353 -0.9934722046383406 -0.13726219891998942 -0.6508392840558984
Ni 3.8617379538195387 4.407485178749076 9.911225132968665 -0.3837268624092746 0.7871576310053798 0.13645332986544886
P 2.4724229774939577 0.48462774743412856 2.18859064105175 0.33168104955662875 0.8716183698536216 0.1232201190046265
Ni 3.0502105003398325 2.204897111496055 10.329015285743937 -0.14429802272084824 -0.06023863307608336 0.49798900088966497
P 5.4117439371063325 4.923408788235588 11.367866297714931 -0.3230449711481856 1.0027420599760408 0.13781935697504005
Ni 6.882235672840012 1.0766703858187976 10.190522506517556 -0.21094281643359156 0.5607678838890987 -1.1760135871111037
P 6.795424845478911 0.3780625847650245 12.141775726004827 0.06768866159622537 0.3901669616076635 2.0448934749876395
P 7.769296581597841 4.688791420789404 7.4251427733506175 -0.9739454474593229 -0.8723220807888654 -0.2722299453788473
P 0.6218182257074392 8.485137241646225 9.321418573028952 0.3680732150324177 -0.1913319841811995 -0.1905287715536138
Ni 3.7220130685850745 0.7104458090789589 6.727406867403014 0.3998523072162275 1.7028465088156544 -0.5354180922704005
Ni 8.460061021166876 0.8496885658754781 8.530691913708191 -0.3281748361755832 0.5154611895324993 -0.32708777375899156
Ni 5.4358595951805775 2.700334880458371 11.305128642014003 -0.5498784906701045 1.3923996860474535 -1.1261987204715056
Ni 3.770068897371095 8.374746454475263 13.004675719421249 0.9768960454472144 0.5803612326399941 0.7059526800902745
Ni 8.445200012418711 9.101070175387019 0.07258434397092059 -0.7498709787397796 -0.16161517384305715 1.340547991483485
Ni 8.670728981724315 1.6029200411601572 6.1161871547711 -0.16722403538940234 -0.137787218185524 0.07579020765743721
Ni 5.501879788177401 0.8182938767294926 4.661466191217342 -0.5969175943367785 -0.2360817775930644 0.7688629464612501
Ni 5.0670405763292665 1.557145548086254 2.421980520578337 -0.5458225754331761 1.1758559784873168 0.15688974334292982
Ni 5.197307616344264 6.1672170325421485 1.7859007140082237 0.7925199237585577 -0.16047026160533653 1.3434322550098152
Ni 4.516610609674856 3.691930840186829 3.454396688052845 2.2343328701318166 0.05967170482901982 -0.05602536632568416
Ni 2.454661809176541 3.7689143752495777 4.075457547248569 -2.8659264185842255 1.3227279325829284 2.4093141808691345
Ni 3.452612258661828 9.022156279337095 9.29536885949674 1.0565531922592255 0.5068040280781336 1.8098023434426187
Ni 3.8505991243911435 8.046760574017762 2.411516855686605 1.1174202029479272 0.2966831933252052 -2.821178939165206
Ni 3.201674566505881 1.5221773820697495 4.16748866183432 -0.27954730497586694 -0.4537788820313539 -0.33408400257116655
Ni 4.680580459461177 3.4929466434991436 0.9715608446405022 0.1513418169415071 2.4661576722207394 1.416140481307819
Ni 0.06433643793480366 8.475836411435285 7.038957894556297 0.9527621285134882 -0.15500718160823626 0.33676874849218136
Ni 4.789170192122572 0.5543987518993367 11.264560581899294 -0.7632885376972661 -1.429800752403731 -0.009433120388441818
Ni 1.6906267776875552 4.767640663600525 6.975152536797391 -1.28505330085029 -0.5791538425954542 0.5954363818055616
Ni 2.3060240131639658 6.9863550958468945 0.7181820309108196 -0.5098525850964704 1.305769964572351 0.12664045754008513
Ni 2.980689796270569 5.532691674556445 2.3031561802141174 -0.032698775784601744 -2.0953179501867782 -0.09204497895340276
Ni 8.64428580705309 3.888624464985425 2.8559506081733943 -0.10027019507667247 -1.9519018158502512 -2.7022281369598944
Ni 8.767588769631098 9.043214762833562 11.288501676228766 0.6098409872666658 -0.5556752998575397 -0.702578621411719
Ni 5.361933234695607 4.525348033090496 8.006947109561674 0.12165663117224855 1.1134565903144888 -0.3687051921894618
Ni 4.0625786220786235 6.825091445913411 10.787548062378692 1.8866991539006734 -0.14404785438325515 2.1390706697926967
Ni 6.475529856049 6.605159599852922 7.146278576501722 1.276163711670144 -1.0841619551154296 0.7322432383556874
P -0.019182615953428045 7.093079120759919 12.884215652115262 0.04544373415509593 0.0731766812939901 0.05106236589345399
Ni 6.602702776778334 3.01949097573051 13.177098518372466 0.001438532218739458 0.2889472581335282 1.6349110213159457
P 8.274146014894763 4.138389162665911 10.882471947592116 2.215403123106849 -1.8427528302267102 0.23289952321034083
Ni 7.021212427739734 8.731854000925907 6.1849809717126565 0.6586107004712012 0.4091283332015147 1.4678031997894334
P 2.3336217099567067 3.0191492371825412 8.219478007014391 1.2702694576728961 0.7666471697568539 0.4862408592148013
P 1.805497110690003 4.480109238280977 0.4241705038276217 1.3462432420960493 -0.5960321064080315 1.0113665684202582
P 0.8834615705917884 5.436192097551575 3.682621697416614 0.4265863807769621 -0.5691833616463037 1.7418817683412453
Ni 5.141068534760931 7.402740426104703 8.912414795407273 0.22534870744627641 0.4521169209478988 -0.8272010200805109
Ni 0.0585887650050438 6.753437184963584 10.617964464228706 -0.706715526398228 -0.578595656099139 0.6684641962265133
Ni 7.767135316186362 0.3561645327817887 4.276768336915535 0.1289102274108683 2.6927664773263627 -1.415564297089375
Ni 7.394871203324444 5.716103676869111 12.057909391862443 -0.08599748720774222 0.6767588321351377 0.8183106595694166
Ni 4.011881246678572 1.5717664162331444 0.2761607678491517 -1.4787609843525178 -1.0085103299183855 -0.3956814636679895
Ni 7.10995361608801 3.182648041943282 9.102830590717907 0.3362324163727371 -0.4060964883537264 -0.29503614464008543
Ni 4.613045533440922 6.28275237028659 13.118619663873393 -0.03138828450329433 -1.0269253420904636 -0.6437404682275881
Ni 5.726522084493679 2.2118334804021287 6.627414168267281 0.47979947446483173 -0.3959465444039181 0.19640888448347466
Ni 3.4769865296912936 8.313990882352556 4.488448582469118 0.47299942082386287 1.2265100531987585 3.2270100896726874
Ni 8.689986410711217 6.414229349484938 6.300249383942604 -0.5840088566949104 -1.5582214417726905 0.09109392789404312
Ni 7.126043036373471 5.053786662374252 0.8273416356913964 0.1503095190222508 0.10135340083852222 1.3242641667217967
Ni 3.7021829966258997 3.7639268396846246 6.318322735041678 1.4657123786986757 -0.9841046473805116 -0.5338497193420161
Ni 0.12877724466939247 3.05357246875769 8.030725647176437 -0.39918844837998346 0.09643616604256296 -0.5401116410913279
Ni 4.630215586432122 2.3976099440196608 8.720323557593892 0.3957092315821314 -1.213590002702981 -0.3870790667109592
Ni 5.819705873965553 0.199393359327551 0.5855394461785886 0.21705612842018104 0.8178195788656109 -1.6670225571385096
Ni 1.595346376043006 3.19094212886426 12.043824221979937 0.044201891328194846 -0.9319138243095693 -0.09787984046762499
Ni 2.3548094999307847 2.9054980795404153 2.0325380421659442 0.5744309831984881 -0.6394225575785245 -1.3303337699546445
Ni 6.564548129706442 7.389468039795744 -0.06754878028571236 0.6679857139281979 0.20020023320510683 0.5776122091399472
Ni 1.092039384300431 0.04503836976922393 5.101898831839803 1.7218055664166605 0.40953148217720436 0.07039089101873684
Ni 1.709108367808798 6.6877679666917 5.695829344797576 0.40345622251740193 0.9665021038074 -1.2106206356620117
Ni 6.603792645661045 7.930375507991883 10.820262601213996 -1.140283737809662 -1.5174712564385222 1.4557542390446994
Ni 1.9055618520061184 7.310609560807652 3.296788716964932 -2.4611836160449156 0.27766577168243795 -0.19629292773090065
Ni 3.6624212547608566 4.2014537790316515 12.577612444965952 -0.08341147164812086 -0.8215664475025528 -0.9145827892302894
Ni 0.3919048431931639 9.178247670166183 2.228509397925319 0.237226689830785 -0.6447308571653154 1.0887045801807895
Ni 4.09470204558771 5.787591686633439 4.528218636893436 -0.20842005001173783 1.1929720693423131 -0.0652103752590619
P 3.515048814993464 5.848578163180449 6.767596244261867 1.2711410616445722 1.4658044241918498 -0.1097889332003851
Ni 7.875032335574847 1.530610011645309 2.116174395501722 -2.6982043605124817 0.3039236769377024 0.6692882347897053
P 6.140108853128931 7.0134078581982795 3.685988283922957 -0.6311477191642421 -1.1056098405765604 0.4629371514918543
Ni 9.096775353094976 4.330621713986965 13.107994365884647 -1.1056658906254766 -0.011653525078528317 0.2892527051890889
P 6.476333403445577 3.401499255298031 2.2329704714028606 0.36711830731831613 -0.2672132088905463 0.2702949331396635
P 2.830167820155679 1.0121556896684318 12.121417344722847 -0.9640019630933655 0.21331414487924552 -1.1948029519034649
P 5.986418868312597 0.3466678956190391 8.23982345764861 -0.2651648110019498 -0.010424280657117532 -0.7055544162105913
Ni 5.9584979053258325 4.943155734602014 5.625061756837074 0.2494767108427316 -0.5173437512671928 -0.015159738459573892
