# total energy = -340864.31298929994 ev
CRYSTAL
PRIMVEC
9.35623645352884 0.00000000000000 0.00000000000000

0.00000000000000 9.35623645352884 0.00000000000000

0.00000000000000 0.00000000000000 13.69379779261400

PRIMCOORD
 96 1
Ni 2.8330589554310404 6.788987882091 4.619246774778507 0.17383022785201033 0.536182995460883 -0.3931473843922262
Ni 7.187600967792022 5.560326948510624 3.3243614659774847 0.724548697924907 -2.6806324130669896 -1.2555154392921732
Ni 2.6250791816528025 3.081148913661449 7.624089968748301 1.0375185442252777 -0.41913352404334264 3.017441270768487
Ni 3.6075775416533755 7.164940163793152 6.982110888458087 1.189754847956596 -0.7191712356630775 0.12112801236228816
Ni 2.18207075533467 1.8156711907600347 5.861342327872498 -1.0431127504836037 0.030643435917469805 -1.1034151469180866
Ni 4.479560040037657 0.4398469541169693 2.1528428091694876 0.25911551948407635 -0.8673217993607966 -1.9070478927603547
Ni 4.6227385221164 1.9966114420127827 12.263740823361958 -0.6534787785612746 1.2044031939973905 0.08755377595126856
Ni 5.693082583498227 6.266966041334196 5.186785768868963 -1.7098077706248358 -0.610357007671136 0.23095679766167318
Ni 4.249724098570996 2.43611127976792 5.231920252143344 2.561594450464511 1.2256448769849857 0.8588703261593338
Ni 7.208081768763751 1.0075637166946168 5.080412848627857 0.6482522400550126 0.5059668768888189 -0.13692769839870614
Ni 1.6399985004698645 0.6181328411688588 1.9999244852398679 -2.111503301697389 0.5607277746797826 1.2722520353205637
Ni 5.638451520513335 1.0115588295383484 6.933197421395455 -1.509103601200117 -2.8260828042247264 -1.0702761982722726
Ni 5.133691935486472 4.880933215408237 1.7422481274317372 2.081510611990041 0.31317450611200903 -1.5527457633701
Ni 5.677953549614588 7.715751143238859 1.4303168273326696 -0.42938322679580887 -0.7186089354017042 -0.1813486477162425
Ni 9.044692216067746 1.121082930120833 3.56196214783996 0.2193603510733254 1.5471865241147675 -0.9169898560098853
Ni 4.756186518580434 6.513811620154263 11.046854712998998 2.445724344067053 0.02262107983362556 0.7070266298807436
Ni 3.0637276019166526 1.3311023633836925 3.772969599642159 -0.9412515567707274 -0.5519767679600301 -1.1187967715804796
Ni 8.483299333516042 5.230491554880492 8.547955603554934 1.1021709900983403 -1.4940683041335494 -2.0152252584992456
Ni 2.7414801158187596 1.121868853958944 0.1482364633511578 1.5751182175280294 1.074738862029317 -2.001422548288198
Ni 7.169599569404811 2.765853111036372 2.50618387492446 -0.37626654947648747 1.3638689255976124 0.9531601352828553
Ni 7.2845222182562255 7.196498748387781 6.44613609270396 1.871280505352758 -0.2792143471164804 1.6625969172669885
Ni 8.237408090785111 7.315743978348807 9.092681286996982 -0.8411991341318158 1.291531452375466 0.4258772705250795
Ni 0.837027600060673 6.3401411644040415 0.9802266658589853 1.546836854084833 -1.115996326017207 -0.4663801157351323
Ni 7.099970459842633 7.659323682909716 3.6358399242460218 0.05586930036379411 2.2140005863323675 0.5989065997423492
P 5.055904187985808 6.307403694052247 3.1689777738175997 -0.42928141111062196 1.5250027889288769 0.6241651171988218
P 5.683286604230341 3.5414663768903627 10.371955715751712 1.3246961120528928 -1.1743781083902096 1.8314494893987492
P 9.047779774003184 6.692263112586326 2.672385247341774 -0.3201375676934035 0.03155154955403598 1.4366992792957771
P 2.083250188928365 2.430347838288438 11.590581150418304 0.8924450767909856 0.019563781064540497 0.26518152317249816
P 1.453201245375955 2.825480404134969 2.3327931706356626 -0.1848923992034429 -0.49988621791237786 1.0888809578576537
P 5.903289141484446 7.302916578562493 12.635965580574783 -0.5939050327626997 -0.8076729773499123 1.8448086843144746
P 7.04446926689412 4.8347789023915455 6.728994760158234 1.8102147483896889 1.9311779530393387 -1.1572707592859617
P 0.7257454627022232 3.9611309939693617 0.44340419510803886 -0.1367502922805774 0.8823429553599772 -0.5021945543305802
Ni 7.351007632465959 8.598904987607721 13.5542717398504 1.68426257516588 0.4491113013523556 -0.080896418535751
Ni 8.332317750473196 9.182659274600919 7.4858375450120045 -0.16403895279320135 0.8758534909808916 -0.450757578706527
Ni 5.249587632899358 2.7841913339256315 0.8897780595757977 -1.7133903457697717 -2.2396797362660266 -0.29308853399541135
Ni 0.49147840778640234 5.796890023782069 4.563718448745106 0.1025240241078557 1.4192461168163366 -0.48428810636380476
Ni 0.5108720141154108 7.307735040189008 12.544011555892165 -0.10525453566514131 1.6871267840875523 -0.35123223221567895
Ni 3.9752869792915297 9.031518635543218 5.466030122291542 2.0482819318438987 0.3703481271095235 -1.1452986745257503
Ni 2.9473360239868636 1.1925458619719365 9.861752672522313 -0.44107840374555 0.7558361951842789 0.4633665257197891
Ni 3.720750574341376 6.137260539337358 0.11953808015308375 0.46690693477287976 0.3880499152646607 -0.8883017440465734
Ni 1.1045411045758278 6.4671146454398265 10.264035274048421 -0.03319577002567831 -0.06076725188604373 -0.23909202517429795
Ni 7.9078346717676835 5.942145590290106 0.8449336196226241 -1.0640065632134772 -0.11002778868406857 -0.4906652135347421
Ni 6.9441984838817765 0.42718609533444596 2.599027677666653 -0.8749631179561383 0.029744835362600388 -0.5717724625297186
Ni 7.164229089844385 4.3868958770298905 11.969762269222029 1.6281227947495185 -0.41016114534140324 0.33016615557399914
Ni 4.380945310827048 9.166201655181426 11.5158266946833 0.8968164663858038 0.08049789754575169 2.1517711480785007
Ni 6.776721856474766 8.275656384239854 10.964842624868487 0.43658103009582877 -0.13211227928793376 -0.7066553625842539
Ni 6.896191636103823 2.7738246242514992 6.748495027579557 1.0291909981961889 0.10089548736549721 1.165376676222548
Ni 0.9416209641826272 1.3889613278465394 7.795030274784702 -0.6485651433097411 -1.1291441762530747 0.5043648225090217
Ni 3.065393011954555 5.752990563681863 2.2442214253277735 -1.2320942321547554 1.5258659082601205 1.0568452695783477
Ni 9.126680913607839 3.941660666503776 3.3102288712457364 0.19704651806747353 -0.4928496227805706 -0.25637215241098427
Ni 2.0545171876564696 8.928908793488878 6.327739473363371 -2.3341721483186575 -0.8182260702754102 1.7276913357734762
Ni 5.040241848640593 4.5683507212718775 12.546490022853067 -0.8998074306933277 -0.6525446967827794 0.43353195885685974
Ni 3.6629290348232018 3.6283016047654724 10.185281962975221 -1.8486907929777 -1.6956402208752022 1.0432711304383386
Ni 2.94851490974403 5.3211254146398055 11.551238177331907 -1.9299469088457146 -0.6678646149693014 0.5238535273612527
Ni 0.37809579540823884 7.213152848766802 6.7408949569403 0.43492883920438646 -0.4988040405917926 0.5498597216170272
Ni 0.5290268547757776 0.33569707558937784 13.445665486035994 -0.7645532633423027 -0.2689420186561949 1.5274576782272724
P 5.415286575434451 7.130771189307654 9.012381390085212 -0.2293912529467662 0.48746907519494753 -0.5002328026185192
P 8.755144775376976 9.27483691332795 11.710059350659913 -0.6738424298192911 0.27806609244465014 -1.1128917189499543
P 2.0203388569348038 7.105696476377443 8.339577254115941 -0.9646591370613903 1.589662176780475 0.1352089159353865
P 2.869894457224415 8.472249618601648 3.051813370780335 -0.1079030290315819 -0.16334732604281546 1.4720177520914133
P 8.442955243159671 5.809277680468488 10.905685014825522 -1.092720643318718 0.8660226209333988 -1.9791873910390816
P 3.477778477294858 0.9206377333286772 7.795399846113337 -1.5024493291083931 -0.5010781813379499 -2.408985336774806
P 6.0888513734041805 8.579378522725127 5.383880497489361 -0.5769534925100257 0.09779499406330255 0.26786961152762256
P 2.750387252650685 7.293083174349936 12.253169212115747 -1.0550231287679444 1.5870126549727699 0.6883298248021887
Ni 5.085582169110671 4.762754596370362 7.2600537894296995 -1.5659607193984773 -0.6230577430672559 -0.2194356843959511
Ni 6.3000590486603745 3.8496701525001034 4.713925335433242 0.1693621647783277 -0.24450805398354664 -0.2677428561417712
Ni 6.439092718116698 1.3762181341857376 10.899029924039231 0.4798287850408704 0.6277610620801962 -0.7533753923486123
Ni 4.834320446819314 2.4423893142366406 8.602990855942283 1.3160556627690754 0.5632741952507202 -0.066328290913589
Ni 8.147148480472518 3.2489810780428434 9.944340169177158 -1.1420498285711493 1.1519519181762097 -0.22191139962995332
Ni 8.942924435268525 4.033426630839416 5.766622599778623 -0.3196914812949204 -0.32841472010053113 1.0946641401983341
Ni 1.620818216325486 5.067159740095899 8.047789930486553 -0.5105370127580047 1.1285556507394565 -1.86995741566596
Ni 0.42732737450058256 5.089670844316082 12.232011955269074 0.9650337467919896 -2.295725157196369 1.6451743509151668
Ni 3.2109854029646385 7.846242569073809 10.193005535931896 -2.6952180241906487 -0.28132727969442517 -2.5365117964642705
Ni 8.948126502577928 2.227046182594195 1.1633534695041927 1.1308575593997556 -0.28642886258704864 0.06357129699374213
Ni 1.6747569178339452 9.377474824090795 11.399087064768063 0.1815767045666486 0.024000990900287695 1.2406112684868311
Ni 9.275089531704486 2.3861302661585198 12.006269367125908 0.3173322370341245 -0.11359725120288179 -0.031240960292152647
Ni 3.682146743912252 5.478852843959771 9.018351604384005 0.3636038664071544 1.6998236628289305 -0.22764393123835633
Ni 7.201981502782222 2.1092043880583677 13.293390871154733 -0.5699557210359539 -1.0276642771390172 -0.8193421861577244
Ni 1.1746286697102366 4.051399960518124 10.060627892885481 0.14669094843305705 -1.0149725406039618 1.7193815303562
Ni 6.502949029963226 5.353806747574593 9.681747109262746 -0.4807816358724429 0.6194060052472816 0.02026929177199735
Ni 2.048706964996148 3.8435698865185737 4.345288694790841 -0.511729747514525 0.2593379199075275 -0.24460909833778516
Ni 2.7773051441059913 3.764041879090664 13.408527777814392 0.33277788216523335 -0.6814390112196265 0.11848311854027337
Ni 4.765037517995352 9.246075843347553 9.152071867320528 2.2110451032484697 -0.30467186795763657 -0.21506172369797155
Ni 8.76257362689436 1.1413111127160263 9.714968297024427 -0.5303152238261963 -0.8334909668542806 0.6287529936798204
Ni 3.4626775121197233 3.5303324558504547 2.41974909395734 0.10926057150074087 -1.7135052740810814 -0.20696197740897262
Ni 0.7312553501815522 8.723792027978044 9.36851529233633 1.253261353150674 -0.694456763635533 -1.290873507076493
Ni 2.6154796833444456 8.189307680645479 0.9548001584488572 0.3423765815972619 -1.2320808624183168 -1.1740986294765778
Ni 0.450989295769428 8.42831273355677 4.4950848427112025 0.3038563140348767 -1.235853956307504 -0.39000652477039927
P 5.255921804785087 2.14097816608486 3.185067693155691 -0.739298602540572 0.6161502173141453 1.215847174168274
P 5.543410873518899 0.4781803893208389 0.02886866669633148 -1.1722726320114327 0.9283654448366786 0.2070401389450757
P 3.2056804170573887 4.233238410442999 6.051480694901997 0.8076752913427575 1.596736052908121 -0.6425693307376223
P 8.816334559915628 9.249023057740468 1.7008795292149719 0.5168994646409226 -0.23963889881670344 -0.3926928133533108
P 6.813922251478692 1.2876520026195493 8.68668800220665 0.9267423074109588 -0.3618089792902608 0.0590204443982661
P 6.957577901602002 3.956349957287519 0.6466076103225179 0.6871237203092295 1.1460106129911103 -0.5226893318498224
P 0.20377133874987602 0.9579663087681048 5.618044633807335 -0.5155342088622799 -0.7265515872875488 1.0918433829200873
P 0.3187688374906345 3.361845354937301 8.179620233717142 -0.7157452407006641 -0.38542353338540714 -0.3411205977029738
