# total energy = -340857.70941134525 ev
CRYSTAL
PRIMVEC
9.48060676722615 0.00000000000000 0.00000000000000
0.00000000000000 9.48060676722615 0.00000000000000
0.00000000000000 0.00000000000000 13.87582631824934
PRIMCOORD
 96 1
Ni 9.508669166008817 7.715402952580829 5.5112140682617765 -1.724486198572617 -1.622778756828786 0.4791289307603684
Ni 1.8514771377712247 6.995464650825648 3.83647155399696 1.5442161286325342 0.6973142876889861 -0.5928369965095016
Ni 6.0034329404953946 0.057448683574965125 12.017048052447569 0.5048983264149884 -0.23559841019874267 -1.4307106658125104
Ni 0.8024688780732206 9.478482914688152 4.179481795841133 0.42777474465810844 1.0850867809225444 -0.8614895089497357
Ni 4.974948297901339 3.4124684902204923 5.069630167660863 1.2796053903618414 -0.18435889529747604 -0.11237392031874197
Ni 8.834029202447768 4.266974521638202 2.2541279794294766 0.2532726875500541 -0.0958448123154672 -0.12577450999536402
Ni 4.016392609371732 8.237613723700413 6.785500501289427 0.784556703047423 -2.7585324679785783 0.8302452062234733
Ni 3.053001811491141 3.072702511944765 6.364341619484128 -0.1945386640439553 0.7362834698633319 1.9069296220149354
Ni 3.641908649834614 0.3034486186858838 12.211614748852543 -1.4604848117511493 2.461000810610149 -0.41474233695418244
Ni 5.912210544073466 8.355457663372473 9.697371159189242 -0.5960755580514573 0.5804982724384906 0.03082238469749531
Ni 8.64848425125534 5.970203414465581 9.431010673407387 -1.2442889744487347 -1.1334271198991448 1.9451254163583662
Ni 3.369047312127328 9.172562701869325 4.26225128344475 1.036149431791893 -2.045330305414742 1.1445671956763643
Ni 6.523112389660638 6.4448120599943834 8.21139510622953 -0.3012301892659393 -1.0393993061877584 0.6275072941981774
Ni 8.801975271632706 0.39687430807480983 6.196069385402602 1.0300224929585486 -0.17836771071104762 2.0652823230566364
Ni 5.261584956955648 6.134900511809349 6.052815524000127 1.0351330747122367 -1.0719453584445795 1.4513211429740103
Ni 1.2696523125359602 6.601934152688274 10.249601322953847 1.0477764745078602 0.06339260532403278 0.24610342349512454
Ni 6.702978457517301 4.148106676456521 6.977611720592626 -0.5508801924617416 0.22680575160777713 0.10258855879720397
Ni 6.195197169598111 1.6262748092941435 10.1860215311097 0.5667089319638821 -0.26189848154585216 -1.959860922796328
Ni 0.9324261887604854 3.6578739912994367 7.581445773981446 -0.47108394896870487 0.6314140854517513 -0.7603497667839163
Ni 5.212096190657325 6.7725661097452114 3.81836359544719 0.7585988455310807 0.20199640587358111 -2.0912342670357082
Ni 2.739098927939901 1.984215110365635 4.36006175337256 -0.8090251205024325 -1.3743657113638783 2.6666594958266656
Ni 2.3684261722441478 3.7405259193815787 9.842400738202382 -1.2561461308976367 1.4008051365023293 -1.0837264102399078
Ni 3.2798348042983587 7.986273362908298 10.580789248404532 0.8014709623042584 -0.15527149101321647 -0.02861946350890555
Ni 0.6030168251024374 9.190642218599383 10.151166081053036 1.8866176499304605 1.095987744105764 -2.889788569913804
P 8.809142610200048 0.7509834960311377 8.656073476815074 -0.6927528935705489 -0.19349659593268612 -0.4904428131112908
P 2.993909190736841 0.6537266935270485 10.102697428021704 -0.9104955065347933 0.9689094276973119 0.19450755369570372
P 0.40197866665239934 8.580802200948112 11.994069906302505 -0.59597708480038 0.7301755571933812 3.085804075613602
P 1.0590311569644002 6.142921104968043 8.143001062368853 0.273309037375639 -0.26236667943152236 0.025783793832323335
P 7.770456834936071 3.2592808492533845 11.065693832668961 -1.264412998892119 0.4421595526248708 -1.1717221588246014
P 3.49538587528661 1.9972509444001547 13.73598536230171 0.8072083790086678 0.2645783423708605 -0.45129108261249373
P 3.16490141084346 8.043612071447043 2.2031479137176047 0.10589602590388215 -0.4528975078676652 -0.15323903396421995
P 4.918908432462759 1.3473743252014108 4.247445420163507 0.8497729918437559 -0.42445982135226257 -0.512257337883221
Ni 5.6428759920104286 2.3680943510141783 12.227336438728504 0.7148962624368075 1.1945754092736909 1.8147707431914877
Ni 2.9773465710580727 3.9380922797054776 0.6937168401023275 0.8008654675097755 0.7880330916317977 -0.9460446072839965
Ni 5.520206423593953 1.7399757238948692 0.9917084216461968 0.893249832080468 0.9464099610432152 -0.05213477302202635
Ni 0.13607704222856118 5.6652217816972374 4.283661337263045 -0.13292526210753236 -0.9134211648220204 -0.6869985075852748
Ni 6.462597677920754 1.798366779762948 7.211808300523197 1.4610327138348194 -0.7753048454318519 -0.16126627514407066
Ni 4.980304840613704 4.788313076953294 2.5732584694437235 -0.08032486230299715 -1.2800149670954344 -0.029911957068083972
Ni 0.908682009604518 8.318066151058185 1.1003997837350386 2.514661276248082 0.7791584148499872 -0.4725379078064121
Ni 3.463758571767222 2.7726981976259655 2.631980398481115 2.5833380127891896 1.378238564055723 -2.8064981972245793
Ni 1.2592615677346264 1.710310905935587 8.836500796580713 0.5517641377285917 -0.11898808320114992 0.29181738059247164
Ni 6.338515499125265 8.466864271183123 4.7833992785677735 -0.7613797507103274 0.7234338675941735 1.1302888313804793
Ni 7.6306273686268815 6.096949643707398 3.14098752882988 -1.264619201365654 1.7973816011807626 -0.46752811329664645
Ni 1.63958558091921 5.619089150124894 6.062515132582467 0.7801048379236565 0.5295459497603396 0.7496892017462766
Ni 2.5103698138185715 0.658612050092858 2.4397174894727875 -1.5943099599651318 -0.04144104075360605 -1.5089341655017885
Ni 2.921505798357474 4.341567934135369 4.4086413295007665 -1.1566336399225952 2.003017146468828 -1.736081102499068
Ni 3.600070733038733 2.7435453324214936 11.271347150397547 0.08222542175981967 -1.1446687542512353 1.0207765488802483
Ni 1.86849482656538 8.820708950216131 6.264435935504224 -0.5717642349996024 1.2316548306244919 -0.9045935392280614
Ni 3.946785995930681 0.04053812563505733 0.7353329107044574 -0.49548860306531445 -0.9567080005351136 -1.4248228395731657
Ni 4.058059875249343 6.35687943405244 0.5598449869620784 -1.0971701944496393 0.7176997933238737 -0.7681715768211803
Ni 0.13479526422022148 6.577341459244241 12.549477021328903 -1.9592770252684 -1.4807813572166562 -0.38273878746439244
Ni 1.0451515489451004 1.7354345133475708 11.737297157945457 1.7573024737716898 -1.100012548994441 -1.1406907434400935
Ni 5.307708107921423 9.118371554712002 2.588146814002131 0.4621992448845653 0.1810570846177527 0.5210736506232703
Ni 8.585703674545092 5.605797339712969 7.1662539859516565 0.8021443342221991 0.006971032001194447 -1.6116975593139597
Ni 6.187868660719068 8.584509118117202 0.12010696046045294 0.34358962806875665 -0.9699615231109101 2.053662222319205
Ni 0.025307531179452752 3.617932195817668 12.36334711671107 -0.010987609359755271 1.329273189900614 -2.302964869477918
P 5.136962383585637 0.34731822946983587 8.277734702646367 0.6660558438953368 0.051796415846001115 1.218694928029714
P 6.618572617219606 6.503752991043555 10.547181446172553 0.3037187600157479 -0.7806969629817007 -0.4782856089234666
P 4.442109766816157 4.473348365466152 7.266423230794222 0.4423145901454963 0.9605044914630684 0.29894859232061416
P 9.466869171639216 7.646412578566864 2.852897492788303 -1.1013886034063614 -0.9912919091575703 0.6356726036177891
P 1.6735261524418146 4.863807147074664 2.304316414492707 0.28100152092389025 -0.3869973056304303 0.9743786783419993
P 8.427472350882447 4.6853252477773015 0.02835270200991661 0.52468785033709 3.4734634403080635 0.9681481240512553
P 0.6423054067914948 1.6768728065612222 2.1750492919637794 0.1247920914774367 0.3434199352601118 0.43396518973953646
P 8.495874927289037 2.7900666688632314 6.28498609830657 0.017785091897562916 1.2617369947218529 0.9092390084198729
Ni 5.583698045796994 4.458027705248127 0.15265388281718528 0.3137679167216338 -0.9824928228087014 1.3314419154171586
Ni 3.8301176514733704 5.7127385818288845 9.101473321560638 0.11923670887684626 -0.2878185438457237 -0.3132315846021896
Ni 7.9137751644632255 2.696805942028633 0.17740679851226027 -1.8499053821110916 -1.3801416946157068 0.5599631285996163
Ni 2.13956432963083 7.66649250328331 12.74774873878165 1.7008312781578385 0.294915302791505 0.10771970937618222
Ni 8.06893477159701 8.369176101080074 10.842723238978591 -1.2943090151206031 -0.8847381950650312 0.30083192538625614
Ni 0.44971636491713984 2.725845039954258 4.2120903421405735 -0.24947953905620904 0.12666385457885282 0.2350098846851243
Ni 8.410530506940855 7.375077618517438 0.7873340377439788 -1.7058657552579524 -1.0768823907348808 0.21315730758640708
Ni 2.2792136644151784 8.850885720930226 8.423444989211273 0.451127560451436 -0.44789774066022864 0.9624045366992585
Ni 7.978167444290468 1.894130386732174 2.79850440871103 0.8368102610355007 -1.2647099613072477 -2.258439533372033
Ni 8.354632850600835 3.240120543374283 8.880625435681415 -0.3767324333693125 -0.5295006983447009 0.000321902115792994
Ni 8.729372786515357 7.907698095651496 8.250246631955685 0.6999177867501042 1.561279254762408 -0.5279307827544198
Ni 8.14951992744677 1.3837324513995082 11.926605909946398 -0.07577066727341145 -0.9911705530883574 0.45462503208173316
Ni 7.501321375611015 1.56475515325778 4.87538201963666 -2.8231350344503117 0.31920065770143086 0.26585258109759374
Ni 6.643980642828707 8.497154809176063 7.096111718239368 -0.13118025439196762 0.719821981873199 0.4630212265652283
Ni 5.912229505286607 4.29876299546929 10.054312204328195 0.41940400409590994 0.03836008783543716 0.18139544179377792
Ni 4.6302144817826365 2.7065994086160217 8.39407027781305 -0.5150079040451646 -0.367120107090529 1.2252784947845026
Ni 7.046622003880389 5.083633971626237 12.317043834220456 0.35424916466513184 0.010163313686247013 -1.5067011624062117
Ni 7.934471328606758 4.199216626478411 4.590636741593177 -1.4611347866303224 -0.9496487796954872 0.8392785200703353
Ni 0.4455107678424394 1.0391313637727948 0.06719095488687253 -0.5145129666866172 -1.1373632217287575 -0.3496733723689914
Ni 4.442593277751255 5.242462573502828 12.106991515043129 0.21192806316499632 0.5438510535291021 -0.9845378782631883
Ni 4.361344479441557 0.7953062798091626 6.406496188539465 -0.49411820508034904 3.1090766729882975 -1.8679211019622217
Ni 8.04286310352797 9.05617877560913 3.5646578233157205 0.0747388835747874 0.040005593858660135 -0.901231564734364
Ni 0.7029215610216841 3.334272447226514 0.5623279578229081 1.6575670681525647 0.06879577861747507 1.5863799064847777
Ni 1.5572844352801787 5.920743089986971 0.34219016937582 -0.20255510659052858 -0.7840183140454497 0.8831029734544533
P 7.382519894675328 6.659045326669326 5.587517782184272 0.5425781003539494 -0.254446139032865 -0.40090311707824505
P 6.763749145634591 3.506667797105576 2.3696302092786086 -1.429021193925229 1.32901376559164 -0.4582641714962173
P 2.3742757064981834 4.860593221447244 12.282506932544562 -1.0546297499842676 -0.46137340654916026 -0.07694463297685458
P 4.433444492410665 7.971663748183064 12.731042961943668 0.26057487763842224 -1.7793144592664067 0.04733349497864106
P 1.506714879832812 1.6552380623672043 6.045683263677095 -1.4211363918605138 -1.594792556028505 1.1446538418528995
P 7.840859819329049 0.49289673560341224 0.7704414929565551 -0.556323732074816 -0.6199770472594033 0.16221706909311417
P 5.8452679810787425 6.600568945342113 1.6074169347646428 1.9745889730351223 0.689472165936748 0.5085855454585886
P 3.609750432347275 6.9427335170801925 5.059334228925236 -2.265073750859099 0.08963585529127788 1.3620634969577574
