# total energy = -340893.49144015874 ev
CRYSTAL
PRIMVEC
9.07620519102977 0.00000000000000 0.00000000000000

0.00000000000000 9.07620519102977 0.00000000000000

0.00000000000000 0.00000000000000 13.28394373395697

PRIMCOORD
 96 1
Ni 6.495113904051739 1.9077275530206463 11.14030025211362 0.3040676587147344 -0.1575587443854964 1.9066840816630324
Ni 4.713600059353587 0.3276419284290038 5.8643829972695265 -0.6150685542141924 0.2723824117963115 0.2839647173172723
Ni 2.5302281570050136 1.5118144097202342 4.927519860559208 0.29371228362233937 0.9026047909328069 0.027208184983675724
Ni 3.575543776249225 4.388109191536724 5.008843566005805 -0.4845539584306816 0.7408263520390079 -0.9835541741936801
Ni 4.972208371681563 4.61307201150518 2.817657051053631 0.2052125988180337 -0.6796891184080552 -1.1204024255047027
Ni 7.237157205599429 6.3424884388459954 2.6278427430116595 -0.46396302165320735 -1.5593365292137402 -1.1221340634838288
Ni 5.062226174007358 4.843589469003721 11.376077370476025 -0.35964513886972255 -1.8728524778255682 0.8575768041588907
Ni 5.7322770165866865 8.018917980728252 12.540401098802315 -0.4469505462556109 -0.1309444842320777 -0.0728987450422551
Ni 1.920760983565095 6.542872895364336 0.37943620053551513 0.2356320916501555 -0.07907016396028964 -0.9054574298902536
Ni 2.7233970304573107 1.6506621955621386 0.38139575321973973 0.2583693853466712 -0.43672963985855107 0.8052898218297163
Ni 0.449544439322102 -0.12192701664690736 4.835143152524149 0.7091025385731659 0.8254639827847461 -0.09478217537890773
Ni 8.357342440833303 2.580828000518454 1.4617918128520768 1.6992765320762089 0.19683980137330614 -0.7344836976504319
Ni 7.0725693020527505 0.704786387173103 4.8215669649138535 -0.8625202642070953 0.03604403810775083 0.18916582976781615
Ni 0.6584387457558143 7.1900517010550775 2.1802542258917366 0.1665097829311971 0.678641136759515 1.5154585968838674
Ni 7.6883716666626025 3.844408200356607 3.743215774293817 0.4933651289644084 0.5856908723830236 -0.319214798768818
Ni 7.3030232261154895 3.869249773755044 12.691626105558887 1.0166190750684494 -0.5414079913052483 0.5261081277233842
Ni 7.924843114716267 8.66626923431617 7.056523479030792 0.4526918196147623 -0.2993990495944715 -0.2977216618920485
Ni 6.859968273450269 0.978560130626928 0.4044592980362427 0.26492492707700177 -0.8604623532368021 -0.18551974837479662
Ni 1.8808075286509844 6.486110308578136 9.19778905061209 1.013569489608848 0.7115450865763875 1.2422529178553123
Ni 0.03618229168902805 4.95322095058199 1.4296847372594677 0.17913261390153018 -0.8827278495032217 0.004392986861373079
Ni 6.521126307909949 1.9183376367995184 6.976541236700121 -0.39355181891949637 -0.47724945434946836 0.04970636608619181
Ni 3.498087441801924 4.231762482234028 0.44763662100703017 -1.1616907427305283 1.2104383444478766 -0.3458784241029334
Ni 6.028134074704647 5.614386188354206 4.680677032921182 0.0036414534073292127 0.5785342067335844 1.149351247328569
Ni 5.6449729995901325 2.774868189661745 9.226230246958949 -0.9319135671992531 1.1307935389310395 -0.702722346078435
P 0.3024881335746272 5.316886337110518 12.485325778546905 -0.23124321855384047 1.8738027575539795 0.4661026937040295
P 3.8536931581887592 6.240844017768503 12.736831052752258 0.5638118129217452 0.19565066616121143 -0.09592425940315093
P 2.5157969908729285 8.776009630355814 1.57580800912117 0.28743210704058236 -1.6697546113576918 -1.3207623242161253
P 6.343904326843861 7.873017983512367 5.813691484084429 -0.1341380514687109 -1.0316101491606426 1.0690194430470363
P 4.921481461296519 1.0149194083156892 12.579337111123087 -0.6313991730534158 0.40856397605761247 0.4983962636304126
P 4.070451088733691 6.328102653739484 8.210128209116837 -0.22353042329061504 -1.0340326425592061 0.49597119912868776
P 4.708798746848006 1.1814223911415314 3.87338580042573 0.5093054543437487 0.6282940517655309 -0.2424285457466986
P 0.1886579995103818 5.530122700071016 3.655010490129392 0.15718773419932283 0.42407029922332773 -0.3991393403096029
Ni 1.192041551125518 1.0019404350019279 2.4544345833346917 -0.2653082785583495 1.358239752336293 0.5859040168350942
Ni 1.8392838902520623 6.624776570317751 4.640294273505154 0.34274759178343556 0.05393788766903614 -0.1298975310248021
Ni 5.945921808777338 5.45331985239196 9.264089821353139 0.24605097299063428 0.6797477395601326 -0.8609467490723883
Ni 8.733269780471545 2.229115976125747 10.291416402060374 0.4650148599564895 0.5392760325639099 -1.1136962171291207
Ni 2.4495225411267145 5.390340065102317 7.091700127193132 -0.3992103027568544 -1.2072296077025917 -0.0858229093030909
Ni 0.6204666264182032 -0.15984286351280846 9.14363042707325 -0.4803702593666373 -0.2208546762306648 0.17416652814550648
Ni 1.3879695909326293 1.0654920232137863 11.727517108715295 0.3814990015200204 -0.47458604858469233 -1.9412548776593663
Ni 4.087632345015474 7.080656200809786 1.6874861749527632 0.38276629826821823 0.5237149449008593 -0.4667110167119897
Ni 5.340411860767349 8.151121984426329 7.913484244015447 3.067403204508911 -1.345459055631857 0.002970395482233594
Ni 5.51759753701298 3.050176719400435 4.941959195275896 -0.43915007637458564 -0.8280757093759804 -0.8773493588001278
Ni 0.9403674595050342 7.335506964220351 6.9647448929127815 -0.9505337534036016 0.19254117399795226 0.4834105888548578
Ni 5.14125269193947 4.76802098522024 7.01490544809868 -0.04623769081130101 -0.4841150711210502 0.002930286272917534
Ni 8.070162234804823 6.956021752177218 9.226070505748933 0.7909932027013861 0.4355721292153402 -0.17600820933993558
Ni 4.716368301913515 0.2701414461669947 10.59684068798955 -0.2435235785830903 -0.5186334166128939 -1.3908120298453597
Ni 8.060287323640226 7.23609528960103 4.5896690166173935 0.44540557036599415 -0.5868046742724926 1.2165339158226531
Ni 7.19019692033691 6.069530646231966 6.99990792676745 0.41430576363739613 0.6075365075032053 -0.14655699395835406
Ni 2.476642242008896 5.281525441984354 2.404646152558489 -0.9106302323404446 -0.5307011464107053 1.2523267571515464
Ni 2.3902004644982218 5.167392162669284 11.479625071766032 0.2409085095577464 -0.05640203293881254 -0.2387284711872921
Ni 1.1270196176851075 3.3610730493931524 3.9678609270832648 0.12817463479642444 0.5723111086420078 -0.4894313411276409
Ni 3.4984867948269627 2.707804110070568 2.770273814632776 -0.044496025529845946 -0.1605949601086589 0.058962594577137165
Ni 1.0240319182506659 3.3174709600230052 8.200031838547446 0.4403212138645513 0.3435019534509568 0.5006997149526087
Ni 3.8861587438833918 2.729369173422664 6.795202288994087 0.24150423416021632 -0.9549686492465037 1.386873871133218
Ni 3.981903631636448 6.867964410156159 5.925169973403503 0.6299701539163731 1.1718684545944786 -0.022224101505523015
Ni 0.7636446697202443 7.376458801697059 11.47981113397088 0.2707446190825724 -1.1103190731267716 -0.20854654828727306
P 0.31949058861565477 5.4280970783787135 8.246127161462551 -0.9653394509578666 0.4932975089512666 -1.7661714941265452
P 8.629828270781378 1.5073670692141203 7.96571689682899 -0.8415989406733957 0.46934074102535295 0.7181484508255179
P 2.031200247398556 3.058590361541594 10.419301039744452 -0.8694501585577091 0.5777834446104889 0.10028870701943374
P 4.0110110214387085 6.2969077367608834 3.7470686233649304 -0.6764019630163512 0.2588260132681155 0.6182482374937546
P 7.0595812525338735 4.04698909851266 10.546162789112124 -0.16181237745552776 -0.3190502481664957 -1.0014837620889077
P 6.301926878189213 7.669974198895473 10.195147817272211 -0.30571445028953803 0.6210934202520336 0.27935755756256403
P 2.2891641491634016 8.648443567471256 5.977096758104686 1.1826629741068213 -0.6191218983479596 -1.2815671420739025
P 6.674977060806152 4.146128486978546 1.5546595435838302 0.7542382545695397 -0.5525712070109193 0.5317668686710584
Ni 5.103577364509103 2.7488285571881916 0.5340194031844602 1.3151380360508125 -0.06198775455670615 0.6922720972793884
Ni 1.5320543471256107 1.1592673744569917 7.207974483294717 0.2375938433622166 0.26579138884235515 -0.4746523830462535
Ni 6.948679102239572 0.47432247928473753 9.07305294848224 -0.03774765106241886 0.5026015599610119 0.8732988428798378
Ni 2.7199662249240224 1.3199071287788549 9.345851907506768 0.10697640345225447 0.8751340963163637 0.16396259102931116
Ni 6.487235758012337 2.0093084406623376 2.6961892903855182 -1.3058599531829962 -0.2647722035492214 0.38118841225813704
Ni 4.234285667255864 6.795490912316729 10.536000162245397 -0.8747941964784417 1.40622039398063 -0.6652595732462865
Ni 8.024309246566276 6.889293492175278 0.34038673565081073 0.49616557452768095 0.8028220770155141 -0.21495553713741045
Ni 7.610797341548812 3.773114609182064 8.036706435132198 0.7211923798581644 0.45696319329660656 0.8212877399198695
Ni 3.0812536457125463 8.573900694865715 12.423994230106057 0.8741413933857913 -0.7923258054698807 0.8731044674808447
Ni 9.300296618795977 4.835103217221645 10.320415785021773 -0.6337712728300181 -0.8859268160564936 0.2841647491432203
Ni 8.705905022051272 2.2739161245710102 5.762866550684148 0.6086670215632227 0.9304678358916622 0.6329279509931165
Ni 3.8311206360689516 2.74376403473429 11.684065684350049 -0.16679183294799016 -0.10073016543222651 -0.8259051840872228
Ni 1.1352698881342047 3.290106201602732 12.437198293306658 -0.8500858950984844 0.3234933715395138 0.976051438058732
Ni 3.167976785581771 8.39019830334786 8.063486685943095 -2.224998480104768 -0.12370708594337405 0.009437234153499875
Ni 5.6994846875079315 7.9717580189532145 3.7679375417847423 -1.037173502181033 0.2433317742872583 -0.9446713810855537
Ni 3.1721336875242203 8.650621856698741 3.7441987273077193 0.12879761309240398 -1.243580121307168 -0.35199893517837444
Ni 3.454167685252769 4.260171004242471 9.256743540933446 0.42921610509032526 0.12098274503367551 -0.2277766001614787
Ni 7.08170904060307 6.1623983769637185 11.555702730656437 1.3747909718267548 -0.4664701043457773 -1.0126703748333465
Ni 0.6250319575908061 -0.33494464306414545 0.21779987889207786 -0.26498714777350496 0.5629322385302692 0.6782498148583673
Ni 4.728938845997123 0.4996850268567481 1.682530566960236 -0.5353497009263103 -0.31971616388526874 0.03222415014102837
Ni 5.835173953969982 5.727702609208969 0.2949076870629813 -0.5300318882578227 0.10747442613459555 1.1237512873722775
Ni 8.016639853244508 8.805997412054182 11.288376723315967 -0.370686998506181 0.2086445073177181 0.2278606752348527
Ni 0.23027421520147212 5.214434133777833 5.925808030623053 -0.4254445538630351 -1.40512124737918 -0.22204278300149505
Ni 7.994185321791189 8.776399907175739 2.6669911385321123 -0.19814283645544584 0.6341739075850755 -0.6747538858899669
P 8.59719023718957 1.6893812865806743 3.6136574843866227 -0.5468224774526002 0.004864270070836784 0.0350734466643654
P 1.7282274444708137 3.219366258940175 1.5835654416325489 -0.38328180445205606 0.3469081509190284 -0.16718624017293143
P 4.669771064855578 1.0875381254369518 8.352904176532304 0.43214999090766865 0.42394380094779244 -1.2711181788264365
P 8.500002232823306 1.6214640437087324 12.412729751938429 -0.10544968239508291 -0.14569850261280068 0.8083427497234272
P 6.324853372308485 8.005140301364413 1.4140092234061827 0.3465749359493257 -0.4836247617481929 0.15785622102125718
P 1.971034083694413 3.4142596113642307 6.116725097586439 -1.0248229510354803 -0.7348922459427601 -0.35116795463664685
P 7.136601929135678 4.023136831471705 5.900435499225417 0.013095913952009704 0.504815279782879 0.7926806177061381
P 2.4151781809733763 8.446289250955585 10.35167242019515 -0.2665858597191925 -0.30947494577323476 -0.018579819884716388
