# total energy = -381165.55136958306 ev
CRYSTAL
PRIMVEC
9.32370812591975 0.00000000000000 0.00000000000000

0.00000000000000 9.32370812591975 0.00000000000000

0.00000000000000 0.00000000000000 13.64618929715334

PRIMCOORD
 96 1
Ni 2.6106662598918917 6.925212217488677 11.1153668548506 1.184943285500566 0.10788297442692389 -0.826015741523158
Ni 0.46549638667438764 6.92175312175606 11.827274863006021 -0.9368999646702508 0.7874841611068631 0.6965480989469229
Ni 8.49320819226323 3.5696842352705844 2.044171736791634 -0.09041541376977977 1.2521791758300886 -0.488943345747629
Ni 0.4081695669655085 9.297033045082877 13.056646810086193 -1.0876738249234301 0.25090932952420014 0.6539662597206544
Ni 0.47357724454894007 7.039129283960675 0.4111447622438859 -3.099320622042798 -0.08051203861313876 0.9734749355808072
Ni 0.4188265654085838 5.019399648147627 10.708874622985627 -2.2038406150802303 -0.4699063837208359 -0.8238773550239166
Ni 2.4070737682007333 5.971406194979345 2.598698348079528 0.7791926105220323 2.314133227389911 -0.7186706418775751
Ni 1.2569757175006173 1.5109255570404632 6.901737917418572 0.9588584712192132 0.7581067363860106 0.46338375211096966
Ni 4.288178510880235 7.773259418178409 0.9988833544189881 0.9045323469728227 1.2476221525870257 0.26976245767496126
Ni 3.96273447706086 9.383379906483857 9.932733724476725 -0.514176923503437 -0.4679160927636845 -0.011393329438606185
Ni 2.2596939130916414 1.4063415224508076 3.6318239531389698 0.5300691692536613 0.5364642741467277 -0.7391296810628755
Ni 3.1011585758104094 1.1056519338338515 8.18246018726798 1.1967816728963907 1.2992401338736335 -0.4015255811535924
Ni 7.3983251413705435 4.60465313743606 11.368476628283954 1.577221637024277 0.5761893606504916 1.4942523951198976
Ni 5.990407912238301 0.013804682322674882 10.78271372987096 2.599942711225406 -0.37207436577201086 0.7810240073038163
Ni 2.699922118243213 3.642232008573795 2.642243794736168 1.710897661254905 -1.9098653076044916 2.448340441533661
Ni 3.9341946063397284 3.496530420936053 8.423041694027702 -0.43989286807788114 -0.02997752019869676 -0.29245527128678667
Ni 2.450857901786632 6.13894390716099 13.456179826169967 1.705199068208231 -1.0585869348598025 -2.0359306093673966
Ni 8.901055158925912 3.018130954519433 6.3225929870676 -0.6997655774429561 1.638129528253243 1.1718365729152784
Ni 8.445470806411484 2.2384358584545354 0.09198117825063117 0.7037590148730654 -0.7622513546820033 1.1292943286776937
Ni 6.732519140653123 3.0745114178486337 7.997826523778177 -1.5229230235817128 0.15463745697364337 -0.723353134954909
Ni 1.6623425777889707 9.270553713868237 11.165953565920375 0.9987673915990087 0.5296359383709845 -0.5938726368628675
Ni 2.6295001504037137 5.151852246469875 6.465087219093428 0.0178910213478079 0.6961848020702331 -0.4279673202848887
Ni 2.5404400899240493 0.20387313530720058 5.5302819814722355 0.9603044596371202 -0.11248190665151594 -0.6826278893214051
Ni 1.2860843344203736 7.82599431161151 6.166985891865622 -0.7108472891784146 -0.8845042246773541 0.36740189999700595
P 1.0523389704939523 4.242529635659503 7.401638787255643 0.009380412773635457 -3.1893051189227464 1.4382198297053617
Ni 8.105174105470656 9.047213608264189 1.4552564926449514 1.3125245096873652 -0.88507963756485 -1.5979753246318609
P 5.114249731403451 2.957153903060366 1.722886076817938 -0.6318917964191182 1.5409264021376687 0.16402198351233685
Ni 3.3225686738224045 2.1949034649893395 11.254448609684683 -0.19766589681902733 -0.6278667344201252 -1.2906210247460548
P 5.494349342539805 6.754551063068685 13.157478052135744 -0.7374998587689363 -0.5941659997335702 -1.0210724828541127
P 8.17741419640412 -0.14864321756669205 5.794321937998167 -0.32700087047214005 -0.2764121017809949 1.3359729705182926
P 2.7679199219574286 6.868589337746948 4.760363725798772 0.9294087984995284 1.5238702179863304 -0.24555295030829324
Ni 1.162060368287575 8.742691975587649 3.3079043456060715 -0.44628874430189597 -1.687919455192177 -0.20177503389139442
Ni 5.767869645537231 2.23636599523987 12.057663691989742 -0.6997905171436205 -0.5394022737291291 0.8466922960359031
Ni 1.6299240444673844 4.470578213891507 1.1160823661682946 -2.6248147918767373 0.22656535346219692 -2.4714371754521243
Ni 5.228082884501881 6.863358737461239 10.221692223468938 0.6572513582298293 0.7397845410380549 2.034507246657309
Ni 4.2565991112943244 5.281013575806639 4.096585631609233 -0.8858388843283777 0.08963071308495531 -0.12731228679612913
Ni 6.3746845446366835 4.392119209605873 2.948845546706364 -0.2130287524283428 -0.7212566574371966 0.0780779752503494
Ni 1.2271771461759728 5.596415975922435 4.377110836557913 -1.981707586357774 -1.4402546007472035 1.2694896420840782
Ni 6.314210973419023 7.936741317304291 5.908144835017607 0.5560362827413843 -0.6315287566527447 0.8594603943348489
Ni -0.0016148662557661012 5.836193779037543 6.823967935167009 -1.0615419037230684 0.4756486855212518 1.1758837464014587
Ni 3.6446841438236013 8.544460616096638 3.327773167725226 -0.8145411652246553 -1.0535115772194241 0.19332150380740254
Ni 1.1609694944311975 2.5536144895741506 9.637621578089554 0.801764068064645 -0.5955155717829292 -0.5710515252032939
Ni 4.186093230081257 8.674293252421943 12.074694377340677 -0.7765703424078367 -0.8077225996409251 1.3577227034905586
Ni 0.14969586421955577 1.3732330347243327 4.926956946342375 -0.6444675762015998 -1.6529802201128307 -0.6914238903464802
Ni 7.65603243530458 6.975895895123461 10.419697949222135 0.6564602297871017 0.21898394157051318 -0.4389531298724311
Ni 4.746839687092139 2.9215280141268662 3.9551020895494853 -0.6010809816858487 -0.8714044540706024 0.9283844710000722
Ni 1.8541871971806754 0.9955669114214362 1.267456497859201 -2.2967237736642123 -1.9279301355260023 0.29172404954771697
Ni 1.5063569400351204 2.5680102949950676 13.35158180601805 -0.8790131196557958 0.8056405203009158 -1.6472811128455243
Ni 4.8940144206214 4.73561394245044 6.364842438288031 1.6332063799200132 -1.002254578816661 0.30932942133430597
Ni 6.708790303349862 1.8270272352693206 6.015608963062264 -0.14331560420292094 -1.0561778111976778 -0.09156315422097779
Ni 3.8585047433818227 1.2605000791904533 1.9189133116965753 2.155612633311778 -0.2183609632745336 0.08629444962287074
Ni 0.8220592288958698 7.561228970589628 9.690937338541907 -2.902093355423086 0.5367591796793272 -0.2365538321334765
Ni 8.218718223615689 8.010846149872588 7.914094030149234 1.2966127235531155 2.0166321661491007 -0.9710259598196825
Ni 4.611757803064776 0.5051109579647977 6.495845199989195 1.392736757671898 -1.2509723000061812 0.22339235505085397
Ni 3.975181627473376 7.0944095497253254 6.5285555653766325 -0.07138565083183836 1.8772881449994185 -1.7343846886332515
Ni 8.95011651133839 2.71056046926994 11.44091065234744 1.8493844766106151 1.29838961294788 0.24497110966289426
P 1.2279416902462545 0.25161611538385126 8.628335762460647 -2.0863406863888323 0.22336895801208628 1.6249179146589758
Ni 7.0737388887031925 2.311580349080893 10.271677555361476 0.86517312844891 -0.5688771432597944 -1.9206006917441247
P 3.7043185813055874 5.223458325247494 10.303214065889787 -0.0193146411682119 -1.1728673281726383 0.8666139746604946
Ni 4.189207348611429 5.984897600707368 8.430534225916464 0.24538788548533869 -1.087308214053895 -0.8666422567952687
P 5.020425256046786 2.0091099322026706 9.593898980977606 -0.08019116493861028 -0.24024130828739274 0.30590214082031186
P 0.6154570442060898 3.229546037368719 3.601243122698512 1.6007094357335723 -0.1286394902479849 -1.0541155293520104
P 4.024532014839253 2.4629507512885294 6.178776653222677 -0.1499595918819998 1.4137041039521845 0.04968245482679186
Ni 6.295712736401471 1.1796542056122323 1.4464008346211255 0.9374969748243016 3.454497183618205 0.6523798890701409
Ni 6.6147607064133656 5.5817404592562925 0.9691603051305543 1.8699985533165406 1.9364170899510906 0.34087248624790967
Ni 7.128608911308178 6.2607954492892075 8.220655690174281 -1.9038921207401918 -2.865439451645478 -0.49224849886146194
Ni 7.835830823735257 8.777124429874856 3.691785652777869 0.3487413474730252 -0.0015925412981004832 0.35539921910917505
Ni 1.7415381550203637 5.6619896155113665 8.92161952967486 0.897978347904389 -1.017162606276745 -0.6654485493286411
Ni 8.889680234953426 6.145992630540662 2.526769668999082 -0.5022809433967995 -0.04508326549188365 0.11822909354793831
Ni 2.192003791747173 4.383252363132239 11.683266460772707 1.5791175684954095 -0.642196520779236 0.8122287150413947
Ni 2.5872544286665526 7.973355519304254 8.504782643590643 2.2362583692893034 -0.5016587364317683 -1.5884933532833547
Ni 4.304038138484497 5.444094555481033 1.2722339659276451 0.07840450535183272 -1.9093767980038472 0.10636653778239745
Ni 5.04820990640581 4.676175302840111 12.088108396290854 -0.567978285594609 1.3290127371503757 0.6988543784825965
Ni 8.48410825308524 9.406316228592315 9.902453117439473 0.3655712745461704 0.23826310151509933 1.33612389427386
Ni 3.835186149238226 3.0229233405209555 13.324371496082556 0.5364395915563793 0.24865730026522978 2.2968345882104635
Ni 8.541085433737589 1.2134899425762922 7.802986196950112 0.019631915298314578 -0.008657675674997992 0.09247975249797623
Ni 5.269265703507187 8.082517494607426 8.17281201404935 0.1898399730167053 -0.3685486120069395 0.5176949639590246
Ni 6.12328940113656 8.980288030990002 13.51657787535142 0.6079046894759015 -0.6550106418247686 -1.788490726449036
Ni 8.617558488182123 3.841069409096127 8.819382272432643 0.8847011711795086 0.9693997370701691 0.4266110633673105
Ni 7.099220583143197 2.2148375530657134 3.730063204316103 0.5965265295459469 -0.3078250688746376 -0.5180153234129207
Ni 8.453507842857618 4.354796405784674 4.510611419678937 -1.774174824046996 1.3725790517771008 -0.23756607544807473
Ni 6.155045951177781 6.531416079044467 3.7058681816041346 0.8980832489133695 1.5953147470805622 -0.129479469650777
Ni 8.518111816796436 6.888514102115147 5.079111472407458 -0.8063516874353275 0.94905485486523 -1.406426596454165
Ni 5.565675710072199 0.055348328834320476 4.302875472075178 0.009264198910745336 1.1765807724684834 -0.9100154815745811
Ni 6.501468328389036 0.6109639492369577 8.46265719768893 -1.4094211603061146 0.6902679223651661 -0.17160750916907866
Ni -0.03157287299018908 1.395451431303378 2.6568307361746553 -0.7340005873664263 -0.25113687215397396 -1.3228418324529734
Ni 6.535052325232393 3.5466173812476898 0.22737447413101142 -0.2482976029329659 -0.665408440119325 -0.5916812856385036
Ni 5.879343900467599 4.344764095789268 9.935244599088026 -1.9365327895933486 0.16083201582012946 -2.3925019944078025
P 6.935934481888972 5.447479061548257 5.7334465149581995 -0.3936631476863801 0.6606801814057202 0.12404878555350894
Ni 2.0230115810903566 3.056516661072487 5.242552347217375 0.7470661623011328 0.9335467319273019 0.9996505655349106
P 6.080875852652265 8.619544438023222 2.166236791837039 -0.8181502227321522 -1.8720114699815116 1.5535883138760533
Ni 7.5693778915338505 7.0646762443579 12.780202592205347 0.5745248284638751 -0.05705612158304368 0.4228865633278717
P 2.226147211080981 7.643053833526136 1.1584921851693206 -0.21496093645404915 2.424341250405586 2.8449436456849715
P 2.8810537969427976 0.830237985706251 13.066676322969146 0.09386917664633512 0.35853416519373094 -1.2085349567775767
P 7.860109759820794 1.056450725798761 12.114172822491746 -1.3259268991362003 -2.1308068871220076 -0.751497458599609
Ni 9.09241494549256 4.693657255666679 13.158857028574703 -0.047974985217381895 0.04103172113032933 0.28689217537671236
