# total energy = -340860.30446401594 ev
CRYSTAL
PRIMVEC
9.33359691754117 0.00000000000000 0.00000000000000
0.00000000000000 9.33359691754117 0.00000000000000
0.00000000000000 0.00000000000000 13.66066254325273
PRIMCOORD
 96 1
Ni -0.10711982500132834 9.046122123874897 5.944478268596299 -0.20191181657957485 0.9754032629517717 1.937325203587657
Ni 8.151132849900238 1.7115389995289265 3.736696188785794 1.771824835757581 -1.1528667166809952 -1.3713955729919607
Ni 6.258242062436015 4.29625465705697 2.892071937089964 0.3967065624983942 -0.0726920283480877 -0.21520262015121003
Ni 5.614597219614707 6.194036249301331 7.641678996554139 0.05380650429749443 0.14800761036195156 -0.8521561473639518
Ni 6.207392626477626 1.353371551755943 6.575232480727055 -1.2473640138296325 1.595788601393187 1.6690573281803514
Ni 2.199088767649778 2.2355924651595536 11.887931708252028 1.3013173281176362 -3.804320708411816 -1.9591829228926967
Ni 5.934300914527094 6.061844516283956 13.50079218782382 -3.263850398429488 -1.8497572865690015 -1.0797489136493985
Ni 2.655361652529704 1.2491712758676443 5.59577602144839 1.376051069486101 1.7571453793685352 -0.548691669450855
Ni 6.179933184372343 7.4043517612382175 9.765665910038063 -1.6452301438537666 -0.37937064232310796 -4.5426847149532605
Ni 2.83727345627952 3.6214542677545483 5.2683711757266645 1.184851497117708 -2.9895689698382513 -1.1062896402524045
Ni 1.5052665078475034 7.938588181096195 11.69231165072246 -1.6688009891951712 -1.1735936648157013 -2.0129220642873658
Ni 8.353410562104754 6.674287144639609 2.7269279401865583 2.2376958730667784 1.1864746345434278 0.8007752217888146
Ni 5.718116142928673 6.4007194192467365 4.2791209732117395 -0.35481300758840184 -0.7355015973919848 3.0474853825390613
Ni 0.5662758579663401 3.6577432925354247 11.042336762477696 -0.4701357261228225 -0.45400719599207623 0.835555048472161
Ni 8.0948419269441 6.248311115325199 7.3339587067127825 -0.07533280840504446 -0.7440906246125766 1.863708349432455
Ni 0.29215651699616435 3.048716760648342 4.918139152045425 0.8585435389475343 -0.1564919936838789 1.9391470872877443
Ni 3.9991195994697253 9.007966379712288 9.013113858407415 2.5821686750714368 -0.2297005566570689 0.8481033174508169
Ni 2.6073496300315484 8.853038004625414 13.19260708485641 1.42746310540949 1.8841367924901358 2.74721498608323
Ni 4.089291479204306 2.00916873775233 10.482796028040646 1.9085964681943968 -0.46691233408951843 -0.051956338462633096
Ni 5.675088261179742 4.527438518887611 9.767277822224187 -1.3894899685998265 0.08095015459182188 0.35138212752998194
Ni 7.862146022414255 0.7763620573446423 8.170442195184878 -0.13436122322311053 0.4229392709426781 -0.020205014192965203
Ni 7.742741317161746 2.3203415250902015 10.609362402201171 0.3324415818717371 -2.2111199223504627 1.7456931716675355
Ni 7.925278471904443 3.007406260730605 7.113612084252789 0.7205940841525331 1.2077273732746168 0.6692226716590927
Ni 0.8423375204532083 2.413490822238645 1.5177539271516018 -0.6306296418772429 0.8528981677362989 1.451626590029571
P 0.0854425461809616 8.712091357707713 8.254783376930618 1.7079864011453814 -1.0997739506210737 -0.4463797613538054
P 5.295388205338477 3.694144320479205 12.111748562042662 0.4501176311296829 -0.01172577307736045 -0.7562439721456587
P 3.7550833746958574 3.5716501946499295 8.43119675874154 2.724035462642973 -1.141089521540409 2.2633171731793085
P 4.304738896646944 4.672753289158565 1.321285445663037 0.4190587049413492 0.8134265920042378 -0.34008675712182074
P 6.970778184040156 5.1947440298723775 5.7223013277825165 -1.2435315274574197 -0.37929453766953386 0.5155614625557895
P 7.255798232839958 0.48799964749184893 5.220641027855151 1.8552319365303276 -1.775448291442781 -2.1338191915857703
P 5.9657831369000105 8.726166421845976 7.757930812770903 -0.08041690779617118 -0.18461137762791432 0.23690761592846943
P 4.594668417420701 2.5019079857543973 4.825355731895802 0.29409229266957737 -1.0209027900454677 -0.3210616221695697
Ni -0.143708458242973 5.82888727104067 11.94596241367194 1.8715173039539124 1.1887199789341785 0.20392576168581006
Ni 2.833885360601676 4.047150289161699 10.448535193868022 1.1798198482310713 0.9710676116908953 -0.6470381651422534
Ni 1.6099241299843268 5.407970051250754 5.057177078395304 -0.7289627678322027 1.4562489192929307 -0.7239141496647016
Ni 5.041421033453792 3.882738979615623 6.514100221054394 0.000668229711618204 0.019365806121121487 0.7530522046812386
Ni 7.467073532464424 7.398378259216673 0.3322275152444307 1.8913266253703556 0.9624148211119037 1.1149789404962862
Ni 4.77517084803731 8.709029937921672 5.417791795277738 0.09845371069322398 0.121903457075732 0.7160761416775216
Ni 3.926074870062539 6.072690155891821 9.268608940106047 -1.2097965970988196 -0.29639497266082504 -1.239599796503181
Ni 3.1912221182497884 2.4434516683154492 2.973939715654908 -1.0653350522169138 1.3402523146199368 -1.0041862486217352
Ni 2.043787048686556 7.560064158465421 2.742050233897972 -0.5757497020099116 1.7486910779535951 0.09978374235855718
Ni 9.062838595938311 9.428052909377334 2.0020789375405106 -0.1084445033573487 -0.2625934507303478 0.33260330426058204
Ni 7.123746503776213 7.468212231287281 11.564625244932895 1.5189961777234808 -0.4882632889614688 4.068402570762232
Ni 6.814272431075717 3.0704547078486146 4.958233484285963 0.12073129114450175 1.7136088895384811 0.8884842923710246
Ni 1.0754077022190898 6.765327048886696 7.076373832666301 0.5266470309459897 1.7350305497473668 0.5770167416477934
Ni 5.851530577141083 3.1818138525658575 0.7165906361012637 -0.19620730999562985 0.4242554186509403 -0.7319269926668491
Ni 2.564676424965147 6.308428813013889 13.341521823455034 -0.9445970762041925 1.2927079891820705 -3.7232959918283166
Ni 6.175845068926351 6.566213426034216 2.3055916418954436 -0.8845034533464058 1.3756692606666503 -3.741075170188609
Ni 3.2222936623587226 4.1068946429740425 12.89018734469948 2.677566629657472 0.8905630292769242 0.7287812479490159
Ni 3.863157093301251 0.4716126513993115 3.473155546551895 0.5888101347382956 -2.6848888743504986 -0.5071611543072363
Ni 1.041750751766456 5.329045155791111 9.253008766232911 -0.7187858272992007 0.6831783625082364 0.23359423528452028
Ni 7.737943848350694 5.300549684428966 0.996578009447915 0.5618235788471228 -3.312906532526191 -0.4096870339184622
Ni 9.270492459962215 8.78834684445148 13.444045785338536 2.1719728198373565 -0.6775517603500782 -1.3934471534753614
Ni 4.307426972556638 1.4524010149568436 7.596475453365801 -1.8924193442139023 1.2570776415729705 0.5768287940067034
Ni 4.15802408683969 7.410913279865007 11.119178399107327 -0.451669548997835 0.6104338836556583 0.2527934339207904
Ni 5.031910098203866 8.36620692346653 12.927153055256236 1.646518523647887 1.8520034022907008 0.1992710365226181
P 1.664684343047445 3.9223974328805267 3.4704637372034375 -0.7572510732539345 0.17697520123889518 -1.5798297640710857
P 1.9917242451300414 0.6589482083127509 1.6588965796043837 1.011428274896129 -1.171253703828615 -0.34846161144907734
P 3.18228053241129 7.18339752161947 7.31976510589378 0.6125730414858482 1.1217882501086358 1.1992239637892959
P 9.27667130111575 2.772143617050879 9.049013672197201 -0.3706885411680777 -0.7036404870173301 -0.7471144990405649
P 1.4448968030422797 3.2823833592566865 13.306742041294289 -3.503189763727902 1.1991465735841411 3.03922571363343
P 0.3482299671443311 8.038439000825058 4.2357617487725525 0.18370069288818683 -1.125871419039074 -2.737844086391291
P 6.02143937526636 -0.016640869928452904 10.828042044253278 -0.5074573453914164 0.6913809529236867 0.7926312525254414
P 8.690428079282709 1.1578420301163896 12.00774989184759 0.7994552174258103 -1.939198766461286 1.4153233847231625
Ni 8.539139806990212 2.922246522535976 13.405904974930984 -0.22392817294966597 0.30774793577979903 -1.2063428342222644
Ni 2.2964101826163934 0.04176971288564274 7.442479504610101 -1.2134794452670454 -0.8397459466250571 0.5503006658091877
Ni 8.720846271608039 4.070745622146795 3.10784136362595 -0.15234763249820216 0.8501159770054715 -0.9917084278696984
Ni 2.4356114469121732 8.359766741599552 5.281253406179999 -0.8586682374508566 -2.2634611549563406 -0.010492672001207735
Ni 7.912603447302481 4.300744117170036 9.843600510865695 0.6390443483034994 -0.21962980268462817 -2.90483260873112
Ni 8.872657225327421 6.313366285778572 5.098719051516376 -1.876317296445717 -0.2380216749282546 -0.06427295104645704
Ni 6.537643285896802 8.743872255181707 3.5207083560821446 -0.32226746955221275 -0.4429087720860695 -1.052427600126626
Ni 6.160967315453943 2.304418408764025 9.170921648140613 -1.555734927905411 -0.5897300754494038 -1.8577187075079231
Ni 2.0290212983770535 2.0435350415700224 9.336830999990529 -0.12005611945434809 -0.03362385870203242 -0.8596511701894162
Ni 1.2285626938933192 0.5922689919972719 3.8567598459800543 0.018602702702851834 1.20663799686518 -0.7293926562807695
Ni 4.1304806423622304 7.196212550175062 0.988613651205754 -0.46370205468233694 -0.5563203896407064 1.8576816836224004
Ni 5.9504947051636226 1.8555844006203022 3.1861857093578743 -1.5901324315486745 -0.509070198404491 -1.6154107464994887
Ni 3.9807977487380226 4.6728839595152865 3.4762291000139176 -0.5579278433371424 1.1651447627173996 -0.20878951753601463
Ni 2.1065928222849406 5.640180608741348 1.6223536809875914 -0.6043817639243075 -2.5245484534548073 2.05627986244771
Ni 7.212369006423955 0.18474081697283146 -0.03455857591401073 -1.1124731433552968 2.0605396661653286 0.658806104311459
Ni 3.8165171095486685 1.706778865105509 0.35512096174199603 -0.46302636877155096 -0.4185128597402083 0.5670781423778427
Ni 3.789104335427929 5.890451676250202 5.742614968094528 0.5471559495326189 0.5842597963634518 0.5705589018375916
Ni 2.0335200920870284 7.979469335556132 9.338019166877 -1.8513295161521277 -1.35115970556106 -0.12630467146722119
Ni 0.9646552413009104 2.056480740482336 7.133051166534457 -0.5986662015967689 0.26255848372735424 0.01410455772218216
Ni 2.3130706530983542 4.280975558917491 7.19802140125596 1.7802395421838373 0.9614223752916473 1.5446943538205333
Ni 7.214039720270606 4.906102545472015 11.89798585884204 -1.8890146894077275 -1.0891779202727825 0.7385123591938507
Ni 6.780176801568377 7.700142780870614 5.939751735121752 1.3131212627310997 0.4067456919019511 0.2041013680317259
Ni 8.480104806542927 8.880226772420345 10.242969255472584 0.11392146731151993 0.16825401931581346 0.3015268945707517
Ni 5.7446235581492715 1.551869157212451 12.517442685274549 -0.5378454707649706 0.3550518630720853 -1.43812032801302
P 7.736273134504044 2.5718912953755426 1.6663410564987324 0.02764090164572014 0.13906119980194115 1.5460632091436017
P 0.25042320513846544 6.242412282078925 0.48890967319044343 0.31240111828109424 1.2658780134734198 0.04095510225612301
P 8.285415308625154 6.229886595027501 9.840171347361455 -0.27685793106916184 3.5812438277188514 0.4365530050713708
P 9.762942366460114 4.723574724326228 7.077985744852426 -4.371864220461851 -0.6476377463994653 -1.0800731297580366
P 5.370150316576857 8.904391454816869 1.5018121436316076 0.8222089661825581 0.4875382378699861 0.33876006789059726
P 2.4753165681616203 0.3991652721942796 10.705464849411516 0.23073722545169936 -1.1398708186419595 0.06290743815749811
P 3.6995951410738637 7.140630980583982 3.950718365980479 0.8523245546210161 0.06259659178529865 -0.3042314379861083
P 2.4844168251475653 6.069946078400675 11.035738842822964 -0.7610429361961989 -0.063355067217878 0.1394139551556696
