# total energy = -381165.04207628855 ev
CRYSTAL
PRIMVEC
9.27634411180224 0.00000000000000 0.00000000000000

0.00000000000000 9.27634411180224 0.00000000000000

0.00000000000000 0.00000000000000 13.57686727485097

PRIMCOORD
 96 1
Ni 7.526436051570076 5.934671050383034 5.055075109478592 -1.4572303093695935 0.2170165334314972 0.5758173220230535
Ni 0.03669072408822631 5.843419652801086 3.4715233834180177 0.1510790501984237 0.2768800425563489 -0.7995696315164875
Ni 8.48155627615381 6.814625058172368 9.385742877813563 -1.823227615709589 -0.5742173245257852 -0.7751096987019102
Ni 8.642037030262555 0.33965334171628103 6.064270854756055 0.8102530793722627 0.6888113924242976 -0.5041881877218414
Ni 6.473932765909255 8.664559993902788 1.5149475951307116 -0.5783940816112942 0.6179332773564971 0.09687119669745253
Ni 0.4823559822267934 4.1372866043651015 2.0438884501354644 0.8355833306069352 -0.3575728297217261 -0.48425262514017886
Ni 1.3581681023450534 4.12839059030786 13.187916910932685 1.9768425449559888 0.28545595715081806 -0.376109712183649
Ni 5.076386582570466 5.695063080520095 3.4320831509183556 -1.4789815850037562 -1.2058478968637167 -0.0669695240420137
Ni 3.2176762252569895 4.61257865050786 6.668183123327679 -1.6982159520221787 0.23611803014763855 0.34949288092706904
Ni 0.6590907465869443 7.191801212048756 5.3146244363997726 1.0329936597717306 1.7380981329290968 -0.7989654222735854
Ni 4.6245265817964185 2.215589870149985 6.097126738165175 0.7031239523922278 0.6689910152642606 0.42454595330816564
Ni 0.9608808343121467 1.5749469892102117 8.210922645586125 -0.07300596004408072 0.02500063580939565 0.749949911606831
Ni 5.607930379748798 0.6190447688131034 12.397308939633168 0.5331889458295656 0.2508442806142196 1.4279001929469086
Ni 8.69508844256012 7.945040358501358 1.4943383412923648 -0.05249189925112895 -0.4282789379880366 -0.7759800171220056
Ni 3.288445454915695 1.9708613583062347 -0.05429351478168022 0.7779728791823182 -0.7371838701904142 1.0421727551678373
Ni 5.290493882315201 4.585250540588532 0.8789391757373387 1.4496501830294906 -3.3405101531760732 -0.5237995341948657
Ni 4.121869320357661 9.147913183127656 10.766102778312048 -0.25826988365432935 0.2830830860432673 -0.08816081340764817
Ni 3.3072114991678334 0.3409909905453261 2.2734603432428986 1.413524640951527 -0.3352132310796033 2.2260210078320117
Ni 5.793114038377286 6.159102921186905 10.264260907525669 3.6266240556258635 1.1875082180142646 0.1614105140314188
Ni 7.919558241071489 3.870981315986268 4.191599599469535 -0.9186243062895147 -0.45255323715436896 -0.1707461896100479
Ni 4.980979382801192 6.551241818206496 5.605155825208109 0.3891264361582911 3.8022206313496776 0.626800755049456
Ni 5.6326889423335516 8.273775443131743 8.83991165534747 0.47603229411291564 -0.99601451144422 0.09555324921697737
Ni 8.84375113419866 0.9685152655625222 10.765138966152978 -1.3803432691035518 -0.30905945550237096 -0.293795587364765
Ni 0.38972611990145956 8.473114802960806 7.99883851650446 -0.23548605299059444 -0.4996309073684621 -0.10422789417283984
P 9.272995407890795 2.629129293165465 5.849132025539823 -1.68914921383422 -1.7469031328152365 3.2231531778204423
Ni 7.398589476244832 3.8564452846747996 1.9221586961546897 0.005537641988777559 1.7257743212564216 -0.21756186441200598
P 7.723289351162078 9.200398738430966 8.861322385321943 0.7142889678701119 -0.003959755978696406 0.7758283220354897
Ni 3.6905471455718644 5.824987556939001 12.902585840665006 0.38624268685259283 -0.4985826686096058 0.3185565963595288
P 1.6349649359780485 6.147748675925107 6.850249002681258 1.206562149321922 -0.5818265043316109 -0.31303540943098346
P 0.8538049212137756 5.174354053330145 11.178418651531752 -0.5592105667043079 -0.614146042399923 -0.5155771462850733
P 6.376549704832168 6.063890524645162 7.473400409057595 -0.08465485713691873 -0.42722632835380614 -0.05742738887953335
Ni 2.939877546453836 7.937331716497638 9.249593974457838 -0.8551064882415274 1.8184435640573846 -1.5349347033306082
Ni 4.947324806159197 3.969523920084371 10.374505619791874 0.6982064604859523 -1.3462375856690945 1.228437866349091
Ni 3.168214758152491 4.8400067804780385 1.5473693456327617 -0.3892027979221813 -0.7355573903305849 1.346388509424662
Ni 4.382998408690675 5.291310200601998 8.728921125010146 0.37192472756802397 2.992162698707357 -2.6198664467325266
Ni 6.771879664245599 2.425263077382352 11.476702281161398 1.541896479360422 0.3326123031216465 -1.0426011009545075
Ni 1.7093704925506632 6.982332084388089 12.119390595990245 1.234310523079784 -0.7787619507425169 0.055711177519375016
Ni 1.749351535915327 0.20122895113611275 6.326820151381211 0.35178656205725223 -0.15596260354297012 -0.42572531832824745
Ni 7.005522944808427 7.968305429675041 6.392776813685488 -0.42705072200789035 -0.9632769120018829 -0.15204475654580266
Ni 3.143409813846897 8.106717761007792 4.491431450940843 -0.10554455610173435 0.7846379499073196 -0.06786632482467021
Ni 1.3288455784295772 0.4117982532151212 1.5107658191797162 -1.4260536266564732 0.08443451359599652 -1.7593485576674408
Ni 3.078549615423294 3.7318268771200676 4.242512814436346 -0.4411740487831499 -2.511786525803448 -0.3487734862625413
Ni 2.270895434080409 2.450559667928857 6.4299907235847975 -0.8341589394555827 0.7178054656638024 0.05546075207146577
Ni 1.8176254289928044 5.924031083622183 8.91448975192161 -0.4496028962767934 -0.3817805373161812 1.3594569125728457
Ni 3.2564884492564685 7.837184304858447 6.961050295597552 -0.22150130867572818 -1.5794662100840797 -0.7215726460157186
Ni 7.017721337389526 6.291698984726233 2.6131127573247626 2.1078178824260023 -0.02175821761269801 -1.25246996759763
Ni 0.7972823009284923 7.921960814211037 10.329239843154625 0.6667644399265872 1.1869664865781817 -0.6697289218715499
Ni 8.100419123317627 6.189343803175026 11.759440613234084 2.1778125664475847 1.0824555139472842 0.7855213809535375
Ni 3.138753089074493 3.227648295237735 11.61111372525443 -0.5031700308699721 0.10162413800140563 -0.7711468573994203
Ni 7.624171613725552 2.352109827272435 9.173386951847773 1.6236740149495454 0.43098142452086424 -1.049768051016592
Ni 1.5304019845148251 6.117990163833728 0.7041209040823244 -0.05255334861668368 1.7477184296276804 0.3643093771146113
Ni 3.715417024286636 6.496798954283709 10.642621650552329 -1.8728033697551874 -0.7739838126275831 0.9027762835136645
Ni 7.949678530585426 4.569258123242667 10.266826744322573 0.24876040150199738 -1.5669989308550045 -1.0476995985233375
Ni 5.416540846871826 1.2721392865297652 3.7340049627307454 0.9187353779460822 -1.6449347241005348 0.1755127577607558
Ni 1.4125367555144956 7.571231517558002 2.5167844165795934 1.3121948942620885 -0.20640559068487033 1.5279914392435556
Ni 6.286161007257856 1.9527539344900342 1.5424408239762315 -0.849679146578369 -0.5744772630553913 -0.6846539186124984
P 1.9882916089981613 2.5275347718360455 2.063195305252605 -0.25893297115962505 -0.01681501467480975 -0.2111348778397396
Ni 5.232720810836053 4.528785433637092 5.926763894614116 2.594956570864724 -1.769128776982656 1.4290903566002677
P 8.227263853472712 7.726090807100856 4.056088908592578 -0.5530800283265378 0.8016648234826194 -0.4619804440055399
Ni 0.7093073081067289 2.9587734595243282 10.645784883913663 0.18581619656929288 1.7061920282491199 -0.4348298517326769
P 7.7675653418765895 0.6668355663329206 0.4742438192517589 0.5218701783826367 -1.0380620754335734 -1.534176742118661
P 2.1709706547012533 -0.2213307889484624 12.88615743514324 -0.14970762377219377 0.9153911440641975 0.1596585643373186
P 3.4083514796330143 1.7627465768941148 9.413276922573424 0.14936566705174276 -1.2775297387797353 1.2189924046654748
Ni 9.129007993712996 8.237523490122669 12.392815478518122 -0.9178905134472837 2.0604671610561804 1.9847278612413368
Ni 6.919521958025643 1.9415481107349264 5.5298578843265185 1.2157720979559643 2.1401649312981403 -2.447303515628714
Ni 3.2157189166375133 1.2348576593180283 4.6202214304679865 -1.313463219451551 -0.11607733731225815 -1.1223574923485444
Ni 4.093233245910627 2.5770518970055525 2.3640039557648187 -0.3424722266348618 0.8189778608397702 -0.5161355898917046
Ni 7.864994784674517 0.4809580371606553 3.382662499728197 -0.4571776233002578 -0.1266664256820141 0.37213735779946233
Ni 7.646611090268271 4.050933116503928 6.93415446331646 -0.4246315710434364 -0.48208055718952464 -0.29481322999600196
Ni 0.755860641314517 4.396922201287046 5.242435926083342 1.36340021349131 2.348173604804072 0.615879737261578
Ni 8.596601496527027 3.450085752045456 12.73901142577619 -1.8220924736638815 0.48559859764511204 0.05516224699444048
Ni 2.912781345138712 5.789895146950943 4.687997183863635 -1.2798010513124152 2.1261112814185514 -0.3594487065882003
Ni 5.648152608061833 1.4382043998277267 9.637702299936375 -1.28046619570024 -0.7559896900430076 0.15549903364299025
Ni 5.555398442724647 7.912573153912883 3.4094228973844345 -1.0950847726755204 1.5438752003533474 1.7754997135060069
Ni 7.190261338916845 8.643780982966163 11.049397691034821 -0.8441834135711205 -0.6726658930126868 -1.2117382942062227
Ni 1.7816053845879343 0.8776525468012183 10.692461592498889 2.084781826542145 -0.6307214302601009 0.3727582792129129
Ni 0.9724298828014755 0.18417160947974523 3.9571956586849195 0.17414698776148071 -0.982013826289754 0.3018721937253124
Ni 0.9651665053178253 1.8211226107441914 12.984413400206547 -0.4401268384655581 -1.4997108471313074 -0.512289476672737
Ni 4.199530873733291 0.5450789109540582 7.746607297497522 -0.77806441045486 0.45536293868902217 0.16036227527256253
Ni 6.5701470076211566 0.7951505970386549 7.255641012613865 -0.9833456577273 -0.15254020812498245 2.087309992280637
Ni 8.836608349189197 1.9184221847237646 1.7170253317582085 0.0925561142618664 0.9072422897048182 -0.5370700260515266
Ni 5.063167792130874 6.669876983772781 1.1994702615854254 -0.31599166384583 1.549352421417835 0.04766131063170502
Ni 0.38511577684989623 2.3940481792565755 3.8658496423924555 1.4348028336040128 -0.2681809721204543 -1.5566484408586159
Ni 5.560212865347909 3.389325697744169 8.169201360055519 0.2645732001645379 -0.8884400693966505 -0.8208439675142316
Ni 6.644942170648832 7.447086203555845 13.04288961857364 1.1494893155683301 -0.3978288490282955 1.3851789999292983
Ni 2.9561111487480733 3.61275572337788 8.694897349870258 -1.428620616052701 -0.7594102856887825 0.7413038058960588
Ni 4.248380102122693 8.71086750399012 0.554512952973052 -0.3196351741356882 -0.011046744732464846 -2.1263552791085574
Ni 6.432448954789352 4.7935322961956786 12.10338333649371 -1.2938924964084748 -0.8388069797505554 1.252761787806436
P 3.4524976015291715 6.9525179142317 2.6183668786615946 -0.16760070200253072 -0.10545585304267 -0.1501943336006252
Ni 0.6044215398664546 4.029254300182996 7.931877226126773 -0.19426329889538155 -0.375869828258701 -0.16080836167104565
P 8.818018555476252 5.559350165340272 0.5887556498353074 -1.7843193686801657 -0.2796421786825184 -0.0023386754355056495
Ni 5.4235352103746015 3.6011881222002153 4.008407571933945 1.5413359788712615 -1.6071402789605804 -1.2536976693571442
P 5.314213494353124 2.9391354389203856 12.821056979405682 -1.8354565536756131 0.3140893046167946 1.1362692173336302
P 4.841611588019125 9.183320988817428 5.492426907973676 0.4373978695701693 -0.18389892494192198 0.42994706971907887
P 4.923874208102151 7.595850934980234 12.04807127912237 -1.0492013798798447 -0.07594010297174017 -0.19612940556984287
Ni 8.796376844531993 6.124279525179724 7.036754540353706 -0.9083879732734872 0.20553604359572344 1.3462596971562815
