# total energy = -340857.3247359845 ev
CRYSTAL
PRIMVEC
9.42982260677448 0.00000000000000 0.00000000000000

0.00000000000000 9.42982260677448 0.00000000000000

0.00000000000000 0.00000000000000 13.80149856608634

PRIMCOORD
 96 1
Ni 8.236544464594592 1.3570929039690913 3.142449683262991 1.260891873112738 -0.5171244361675352 -1.799743930765352
Ni 7.046736611637637 2.1271982174419315 6.377175837505936 -0.3370513127296066 0.39722489689570945 0.3931689816587809
Ni 7.250090733682548 7.549242422426012 6.752590272673049 -1.3227996663611283 0.08332431125095327 -0.17174352052631067
Ni 4.920603964137327 2.1597216752176283 4.549636633257549 -0.17152523386791751 -1.0985084536450889 -0.3971727035015354
Ni 0.10475024017267313 7.792597851482957 2.2895854186516047 0.2777146226425023 -0.5721229038906018 0.3589727953930463
Ni 4.775969346751523 7.930980496556414 1.1901775019986498 -0.5957436286333352 0.1752168237868918 0.6037266468388118
Ni 6.160069262338358 0.1245415516193627 2.851679220750621 0.21259397888376932 -0.6190015707200113 -0.33821705090293364
Ni 2.842638849927322 4.988791010578632 6.722778831846117 -0.4032842157159119 2.316384485317933 -0.8061994781281794
Ni 7.611894163064379 0.7191144913283627 8.297764758178639 0.4881043947861013 1.3367676985054462 -0.40034595902319436
Ni 5.02884889652562 1.9091147126641586 7.837166964510226 -1.0520817867514332 -0.803615519451087 -0.6694306739048407
Ni 6.648279462228514 7.683551384182825 11.201517344695844 1.0326151933863892 -0.3277434050651194 0.7983658410163734
Ni 4.639104903099317 9.222111792192365 12.136734135096363 1.1472452567291596 0.22619434327602334 -1.0354048403163845
Ni 7.132019926257354 7.533258873301684 1.920836925004248 0.18673793705261388 1.152318557487009 -0.23196338454931664
Ni 4.447811524021965 6.909164931298513 11.240106064298544 0.04947702368420511 1.0331515255058337 0.21623800339425986
Ni 6.118766639822396 5.533334970037362 1.1511653833660505 -1.7859533047391627 0.46446772920376783 -2.423951471166335
Ni 7.038249771394631 2.5444584329005586 11.571659566107552 0.3478023805985236 0.8987748756637554 -2.4128669312174
Ni 3.534561505117094 6.198043157514563 13.642519309069664 1.8581388257644775 -0.7793309358721094 -0.1822955850105441
Ni 1.5734884705207552 9.388463290777771 11.168682702777904 -0.05510696827647284 -0.974076573720548 -0.8525747229586091
Ni 8.516836508353597 7.196171008671985 9.060808077587048 -1.7935280317626272 0.9867184308542748 -1.6950020730705713
Ni 6.308174054401301 8.215223635939662 9.122638480686343 -0.3545962635919054 1.7464804434555214 -1.3334404339044261
Ni 0.19150837903017393 4.967969962515792 12.492109254485241 -0.5691807905431423 0.2747437129396365 -0.459589318065544
Ni 1.2185122326232987 5.299418793295137 4.855422202124295 0.6544218592008342 1.322574951944832 0.21046973345191497
Ni 3.3997433329457003 3.46989178246539 1.6500520282819076 -0.12725083743057441 -0.13422881141030432 -1.0595019904749043
Ni 5.238445561060387 3.808035787214218 13.544569856878388 -1.3177960424989497 -0.7875669506286566 0.1294866687396286
P 0.10576394609058772 1.2875856823788736 11.973200267471636 -1.2269453409639643 0.011756112094663625 0.9371236506452828
P 0.7930876768508999 5.471201869636068 10.319849687281947 0.1957429687647016 -0.09792072100788943 1.007840814655187
P 0.02177817504580215 9.129888128218369 8.96546691429712 1.7569723441257807 0.02720175722577251 -0.5983119035811438
P 8.115880455984033 7.305934142481528 4.308096445030357 -0.7862176356896137 0.652052073417077 0.11871734603826652
P 2.484022700547865 7.752634263760892 5.650568409225248 -1.6841841565194606 -0.5743103984602238 0.18672225332333003
P 2.755064088441994 2.9304210675074787 7.066035686350232 0.9463102022405574 -0.3674723482236252 0.8309216634652077
P 8.398850569330833 5.796907938517647 7.372926430413067 0.2298350253524042 -0.607883863540295 -1.06494347320545
P 6.228888106886643 6.155599526477042 9.539637490061935 -1.8690423600508583 -0.3778665469737557 0.17442440979258347
Ni 5.667898537001466 2.1140813343552414 1.9335756722089998 -0.626820809654114 1.0923455193674865 -0.3480013839832071
Ni 7.993179605715153 0.2536216768042351 10.490491755101317 0.2438781337090316 0.3360807212862212 1.489854266052202
Ni 9.322360235107249 3.2505541112961507 10.749945777116995 -1.219388354552313 0.6786159399485345 -1.1976064827905308
Ni 8.348589615447253 4.517535631529505 5.571472001142683 -0.008015671215624905 0.6518895796972838 1.2032174012194052
Ni 3.2069789015595616 7.688832084778473 3.4636379241885433 -0.5798040745849434 -1.0740752603033887 -0.8052651392393679
Ni 7.358137639798505 0.08629324860863394 4.88018208704214 0.5970178673600686 -0.7333855794902466 1.8414860476991446
Ni 4.348685229983658 5.915355938842532 4.852372597530309 -1.6920550746271052 -0.5416450470167189 0.8505348097104448
Ni 0.24077354365857348 1.178737241351078 0.6965875883766776 0.0031729984113429226 0.3053372694557773 -2.0776346739744027
Ni 2.4122994706719734 1.6326323171920136 5.614284338239651 -0.48833605118093315 -0.9699707790822909 -1.8447204954760423
Ni -0.036146395577211 8.346420756274041 13.706392211720775 1.0702456021446534 -0.24611216524587287 -0.9128100136005827
Ni 6.974023250400061 2.0172276275375607 13.622327230167055 -0.18260026073515648 -0.3726628912856292 2.738071371910749
Ni 3.6463614805849573 5.756331412333586 2.04767275243597 0.2894295970865854 -0.24231207477349234 1.3170985022112929
Ni 2.0551355139563197 4.123774533721511 8.663173208699249 -2.4044553101149364 -0.8501188052189488 1.6254694162870715
Ni 4.789501142027872 3.837890605224614 6.353105272612273 0.34113988097668346 -0.4520436445078021 -2.0220731346590144
Ni 3.001672806258759 9.403032366528265 13.679617173736341 -1.1189764916914535 0.9830533232978618 -0.427929782178734
Ni 0.8321299709154744 1.795607939325202 8.134907008826604 0.2781923336098693 0.8363397491569854 3.054842851345397
Ni 7.709558834616391 3.472230378443462 1.8190372762893934 -1.1187517772751572 -0.08594992179925842 -0.27992422869931144
Ni 8.930211636945426 3.493966119288049 7.770864939585118 -1.0823503558279877 1.894474169860402 -0.14943637238867813
Ni 1.8220114423034421 2.2183751711192903 11.033691021872656 0.2923408571961094 1.069364485091281 0.5759507622771242
Ni 2.1624091746279133 7.516049447253366 12.45706709112187 -0.4861493279422595 0.5384375958230146 -1.1164935773685998
Ni 0.3555175097085106 3.5837851785265276 0.8240401261993913 0.7826342892137295 -0.1765270579578831 0.877525993587308
Ni 9.292561996031806 7.446617664243086 11.073052986919716 1.2000953106506558 0.3063970781788594 2.1580083872374645
Ni 5.4110396021356495 4.62875095800285 11.05753998593775 0.23832352243938953 -0.9480595808314963 0.3460200918871202
Ni 9.440006700520293 3.7546629919082037 3.715970544258091 0.5092074953133037 -1.733483516975221 -1.626706374017966
P 2.0292223617476752 4.19451706205821 13.495630021125969 2.1344917921727626 0.31518022368812815 -0.4496530327884385
P 3.7235540075063414 3.5097705017850247 9.815307977817499 1.6576642558520611 -2.438147817271375 2.3494735545624184
P 4.402567235704252 9.264083932105274 3.9228551918440933 0.8131121460876125 1.9479032362138193 0.2348885286159116
P 0.711385808813732 5.575024215275506 2.687758730403712 1.079590276584347 0.3459018211417011 0.06369728104864514
P 2.1957813164279107 8.513224886339072 1.4914999358798235 -1.2614022370902533 -1.4229186805719172 1.7964858288393708
P 7.546922686092922 2.8984539692588234 9.304031489129104 -0.5899239366277647 -0.716840787757688 0.49034151164673623
P 4.997268420999147 5.981939915460159 7.088214628851954 0.008297464122101838 -0.7215186528493316 -0.4798994903778057
P 0.8799938639215286 1.8249346872760333 2.5336518563244645 1.823581399504582 1.2199095171631056 1.1831239729036398
Ni 2.5063525202094628 7.3213141829663515 9.66917779058443 -0.2802466450357367 0.9854917575360255 0.739750602476326
Ni 2.068092090060642 9.19814118341712 7.61013267222283 0.09868690974995262 -1.1298008360004672 0.5182210116658237
Ni 0.07734246109901045 7.965776541552737 6.489850900501078 1.1920909522889402 -1.4165659988810122 -0.29845236941048603
Ni 4.475327746054289 8.041281130248011 7.731557667508512 -0.5658041607614256 -1.7547912773140617 1.1251088298414365
Ni 2.8962568206181345 5.336317688707229 11.551040316246047 -2.007748490506226 -2.133887840040176 -0.06879834972063636
Ni 3.6804785783618406 2.6557397681313493 12.165220685863137 0.9473437857113942 0.13763937975375004 0.4269532771980776
Ni 3.1588207980917495 3.833647185103111 4.026352208607549 -0.707153385266595 -0.1428008693500315 0.3771957461589762
Ni 7.824659247956535 6.686272217049703 13.014344139891858 -0.7317498436590365 -0.7838571058772371 0.09878126923597182
Ni 1.3095665986082587 9.003735962917332 3.9333722728696756 -0.21964188686948624 1.2988765798866275 0.9214216665289937
Ni 0.25601685171726113 0.801296337330385 6.453483847077549 -0.6815197438588908 -2.490889370639465 -1.961013291233216
Ni 7.16454338403305 3.0653335379037947 4.183371954854645 -1.9121052526786038 1.106046671003663 -0.568982301379091
Ni 5.6925198035286755 4.015397583818327 8.390068575643818 1.561691659709478 1.2313082459183504 2.1426218774790646
Ni 0.8872708579387815 6.12576356811163 8.301076511837909 1.5548604957202576 -0.24736429248541916 -1.6202451917736547
Ni 3.903984231072645 5.459358012585828 9.375785837419219 1.0051907786268495 2.2685372839276674 -2.1470739997131476
Ni 5.745109923567835 7.607198111463249 4.81066449264718 0.9701137324180584 1.4520971019080864 -0.7070464273750855
Ni 7.906698703638924 5.443365033639009 10.469002132623777 0.8694411596966446 -1.826642554928409 1.4708209035698347
Ni 5.292949935065469 1.366022945869232 10.179874345189551 -0.32405207225646127 -0.18449362110312742 0.11579554440578121
Ni 8.557252727555289 5.634403807509069 1.2991994517603025 -0.533451969682965 0.09399181826712845 -0.43402123978845253
Ni 6.842599814325871 5.658053802319579 3.1291856949454226 1.2703671595930253 -0.6805272980386344 3.89206937398271
Ni 3.3778944342312065 1.1285234365799603 2.2631696569041244 -0.49458126075969666 -0.9199052298844672 0.22838852271386476
Ni 2.808493462682962 1.6141592949297374 9.171854610237784 1.3022352119462155 1.4058717523919593 -1.0472319148582996
Ni 1.2342223168953517 6.297065723505456 0.40299289402788513 0.4607928514553419 -0.11479847059983454 1.6394521037194085
Ni 3.9529532992747884 -0.13285299716401305 6.0411365691373735 0.681877898529258 1.86331882730352 -1.5947568176945632
Ni 7.330451680961321 9.295730416389194 12.784037699199658 0.16554716190761165 -0.21249036342636954 0.565201237070104
P 8.959283779688967 2.104462915413168 5.202599033838429 -1.4207170449349082 2.3077031554938516 -1.4321255438821658
P 8.047014462323286 9.410736531504416 1.2429779070793858 -1.7282914312513205 -0.17768405438046173 0.36177246962537046
P 7.209749953060795 4.37188259331454 13.403379953648994 1.8991448358631937 0.1344069888593814 -0.38132853738042716
P 6.029447361176007 0.1652604681230554 7.006744734448095 0.08072672572710614 -1.0100938723554216 -1.344053176423266
P 3.7342002771000673 9.275229982291089 9.424767164390602 0.7322861757784808 -2.214555430394573 0.7733238104460811
P 4.750904878567179 1.1921464489350273 13.85449606080147 0.6302619741251791 1.8232888079648275 0.34385496591500136
P 5.595543509018595 7.423674906119494 13.105489032172741 0.39318055162300675 -0.40600238597802335 0.04003027644900847
P 5.1804238632657045 4.421907801635814 3.6403386529591706 0.09552033909651292 -1.5234647550177958 -0.6670524034806512
