# total energy = -340860.06581936305 ev
CRYSTAL
PRIMVEC
9.36602874321731 0.00000000000000 0.00000000000000
0.00000000000000 9.36602874321731 0.00000000000000
0.00000000000000 0.00000000000000 13.70812979839141
PRIMCOORD
 96 1
Ni 2.7172628491491873 5.892140489286143 13.530910440211459 -0.4407549589678603 -0.5868576389976151 0.26351004900734615
Ni 7.569362059439737 5.207446335079757 13.483714085532354 -1.1960980165658048 -0.8639505688957185 0.9046902127069258
Ni 1.8244836377092275 8.576481747933641 12.675140154150837 0.827377140647059 -2.746940906486237 2.3491069152516184
Ni 6.582753973562816 8.99282045091545 10.943789494954167 -1.4273456059950191 0.90829747044221 -0.24047862110917936
Ni 7.888546947834344 1.3634596123138882 8.943951323529772 0.09905252061948747 -0.5509480695851995 -1.336851002247872
Ni 4.0216696511890655 3.538129693058005 1.400313061618595 -0.6035039893050446 0.12546803449853874 1.7879934750976432
Ni 3.67057470338073 4.892560453808983 11.210864610070184 -0.6861009354716701 0.5205023515008327 0.24909258803043552
Ni 3.84890388777679 7.300173031670453 11.352483645399 -2.6536245170195785 0.5754077452894606 -0.04315750922408051
Ni 5.62044136585414 2.256070235239188 0.04524915733478177 -0.09261782073773726 -0.47787474663829316 -2.770126857684397
Ni 8.34212498049886 9.261691033712598 6.789554011673538 -0.7953764193707463 0.8271889358956528 1.5158059529209573
Ni 1.8348143672464572 4.344038989305031 5.568474892813011 -1.799275732879682 -0.5180695736896238 -0.8273894819422332
Ni 5.504021630452722 8.360566690796961 1.3357951736610185 -2.6294553759725425 -0.3720931348250882 0.2814833456563152
Ni 9.156210819706903 0.5902574245137886 13.118912891482147 0.23085112532174434 -0.8337668462234866 0.8668731418591523
Ni 6.30784230232368 3.7472731115225018 9.838078306484153 1.5420818558983507 0.6292715851874517 -0.04256075618034606
Ni 8.341272671896968 2.7400035665711218 13.511267068444974 -0.24040560177939888 0.20001279978464906 -0.5390191793580975
Ni 4.078071875371474 6.816342726653033 5.5469264708308685 0.21137964686069402 -0.581566822912321 -0.7183405122316661
Ni 1.237439697605433 1.575038198212365 9.369726300318254 -0.01116064460250981 0.49400250543809116 -0.18912006413154528
Ni 3.3809864653375694 4.769303517535236 3.768254888774815 1.4101133012771327 0.5318545432888582 -0.38275035742861824
Ni 5.13059807048051 6.644663422557457 13.196075854642094 1.2373012302769917 -2.513810498212013 0.7927400101891638
Ni 1.4477257715581817 2.5661138797277787 11.75590003873211 -1.2042095899293455 0.047488275388950466 -0.5610972422040594
Ni 6.15769549796164 0.5496116702320879 4.725027490571187 -0.9290706984338194 0.5443269647242561 -0.803211599144449
Ni 3.9971306562774225 4.604583172683686 8.791571657951344 -0.02097171715566066 -0.14442143567259 -1.3004986888710828
Ni 2.0453252258854198 1.3207505219333193 13.799699538559855 -0.5444776313695074 -0.7876849642637596 0.27006841895115424
Ni 1.8597561013875659 6.368122062343272 4.358308133865293 1.2307503165323512 2.1401471906863274 -0.6797780785774358
P 7.3931964276484825 8.005847089923433 8.328017868233244 0.724786782077642 0.6861194474144312 2.019759398924173
P 2.737203124022045 6.216139516377156 9.531235033965526 -0.35407998607711927 0.7210543116184034 -0.8558194551481519
P 9.475330145901367 5.967621313710923 6.511046722057844 -0.2854230470303536 -2.647126053779428 0.45308108463338104
P 7.2501584389879445 7.160310126702682 12.274054028731475 -0.9185955099341082 1.3056496369444028 -0.9953732783157955
P 5.470547444264092 4.473411942249505 0.06453193700046499 -0.046732113949216295 0.385187249004885 0.8654207256833417
P 1.9572939231470494 4.839914007092058 2.1257194689096854 0.40490452492815426 0.3725451347608422 -0.11456758553595107
P 6.984022736539728 0.7813693647325242 12.885216429063119 -0.4939598251256138 0.6932244338903287 -0.9988895189991701
P 1.3383211915723427 4.604498878426356 12.446447024205778 -0.4591031224577448 0.4639830762578655 -0.9112033312350952
Ni 4.6699393202002675 7.683693170465088 7.892291486065518 -1.311470357391238 0.15408724089712816 -0.006747346026162574
Ni 0.21506368513764543 8.147676860895572 0.9758034352929237 -0.3912218852347391 -1.8956319376139288 -1.6787935816315087
Ni 2.0818433713665248 0.5816369317975001 3.2143095571131024 -0.44883413643156894 -0.05351262720615945 -1.2380165111764614
Ni 8.733222236424611 4.0677224137770605 11.389974921250836 0.7372108667736078 0.09600987713842174 -0.2717419499988352
Ni 5.55924373503251 1.6633879459228709 9.467643446235723 0.20367096536252663 -2.2132765636821494 -0.03251262791572465
Ni 4.919525250126014 4.508431523155853 6.327727317627844 -0.7211581841861193 0.5378814662092285 1.6116623352006503
Ni 0.6423353532951653 7.213190724134413 8.153774145509114 -1.6148229923168187 -0.13518577600693493 0.01621723318981078
Ni 9.003141814424088 3.336394803209962 2.06443098761071 0.11592898465985195 -0.2817903353737728 2.461755686498302
Ni 1.2660435489261035 3.3546585589648106 0.6532430301936765 1.4231534222905426 1.300390702538309 -1.3023568251257442
Ni 1.493815998260546 8.593846364943635 9.553099091111228 2.1803186206988903 0.49942984710124966 0.038715671402643
Ni 5.173250964689525 6.483839345600275 9.804986254262086 1.0010639009426696 -0.6437538379640267 -1.0069378432249434
Ni 1.9759042219598106 7.401260578266393 1.8196170492527046 2.7331590222107964 -1.0456373166776702 1.90339152695469
Ni 8.688649306354188 1.4732575655006008 11.110575985713163 -2.604452940390934 1.7245530472548107 -0.8407139669652812
Ni 7.672922237584024 1.6438410442508868 3.5136262890550123 0.5857302102613913 2.103714916001222 -0.8662465640187469
Ni 5.255981095244693 5.924771732901471 2.232492194861108 0.13409228583244 -0.8709889637997388 -0.11366127167159781
Ni 0.40770978083978826 7.75035119595599 5.601868531155748 0.502458092404612 1.4737943843758619 0.4681978856701614
Ni 2.1622319947736353 2.9023917703032063 3.5817969281635587 -0.46067638048213566 -0.6736377700076527 -0.7743183131488665
Ni 0.6406475949428454 3.4379131871211435 7.784325528071445 1.308195029074076 -0.226043676630772 -2.540866988109172
Ni 5.266564707553914 8.007251994212268 3.574038110077755 -1.0966487747285305 0.6330655050122452 0.7160781985600506
Ni 2.307733248953929 5.992918956938538 7.127967356767993 1.0958699875809772 0.0942234746619603 1.0098866414406222
Ni 2.0052105254248986 1.6666379578443746 5.755742078294636 0.6894685663923222 0.5082613293499505 -0.2034061417369142
Ni 0.14417689773735237 8.285404311344315 3.3961481924226713 0.5115646826915706 -0.42056408584228216 -0.5496627751148726
Ni 8.064056957624143 5.747678864279586 8.484783645001412 0.5375122557952678 -0.1214925947905585 0.9575916886916477
Ni 9.134331776915454 5.579006055362115 4.376745161149098 -1.0410031603397685 -0.65971190395518 -0.020562911753016198
P 3.44999536400512 7.859989926656635 0.340118898901101 1.2055483633454271 1.0205441211544681 0.18699556158937475
P 7.321106105574087 6.539567215724044 1.8995495470673738 0.02504305901155687 0.40290986309562865 0.2453817148377516
P 8.55577345871622 3.4101616444023657 9.202267328706336 -0.8068659080675846 0.06694304167945246 2.167490101475654
P 2.9725058603446404 3.598746630106918 7.108802589062572 0.4138553063635388 -0.8253421124949012 1.627431682219765
P 9.444796892690697 3.2724154618964385 4.541009380408206 -0.23746400265257167 0.04923431154577972 -1.5241196149929752
P 9.225472601146445 0.6037220272179785 1.5094703784495993 -0.18645871524929825 3.8197614684469183 2.9474666413515624
P 7.783235322343311 8.619958852658772 4.8889358007437895 0.3174523075517565 -1.4043442600038394 -1.9763242105586736
P 0.8041887567946335 0.9161942829205348 7.242827648408806 -0.35305360169513395 -0.18679167310868475 1.4662055162850103
Ni 9.175111465406024 6.694799773611664 12.90010373151047 2.0830054513680127 -0.06381683734564493 -0.189765411025028
Ni 3.031905213676563 0.8179465161937601 11.448275639428891 0.7453288678950518 -0.4896503991169825 -0.9513549637533163
Ni 8.306665196248678 2.795235037179502 6.2642041019067625 -0.49309362047057664 -2.3722913237878824 0.0850538923475503
Ni 6.849217487011761 3.1680966354361804 1.578175817790762 -0.8774522029265791 1.0959430069107579 0.7326546148614931
Ni 7.022236133196026 5.705634761929065 10.97782657946119 0.3038313743342122 -0.9835996827196352 -0.9968336649114057
Ni 6.748982249017716 6.466549656819018 4.5255882143310995 1.6144684371908773 1.0503619758468492 -1.4537485214685801
Ni 6.540157275525354 7.361885794064658 6.590224317967979 -0.25940733969288227 0.0372758536323229 -0.8462436385342588
Ni 1.2985343021125495 6.690744283231228 11.031357179277222 -0.005503960537364714 -0.8351174467141101 0.17888218845362094
Ni 3.721347944379209 0.9385228950844113 8.038941015351218 -0.006349339256795517 -0.10445517969229752 0.5370679691689976
Ni 4.072780069216864 0.9238369622517946 0.960373839790084 -0.3261115258886513 -0.9621736516353753 0.4715950842771685
Ni 0.07521295600704413 0.9840886241856104 4.802944419032808 -0.3289209703129884 -0.3545502408453184 -0.015318889745257488
Ni 3.5985780415922575 2.6092631734521827 9.962848792978404 -3.025647460728363 -0.11995430376916115 -0.8313656929811617
Ni 7.394058102278967 9.007075546432825 2.525558039320564 -0.018759282885374148 -0.8472551105179086 0.6585065707931691
Ni 3.3463415255749105 3.197028297757579 12.900967279346673 0.8306527260745373 -0.2640504948918485 -0.14791376509656462
Ni 4.875523647799716 8.801584879119298 12.619320496946864 0.5284894834713671 3.113754795190257 0.6919010870932149
Ni 7.390058808070084 8.270399933539563 0.27272564016570966 0.6782994371493802 0.22187566129601144 -0.22654349908532598
Ni 2.27699394311423 8.636508625181243 6.968225992716073 -0.1864592294699305 -0.17164813259902698 -0.10287060881399702
Ni 7.4365611400305065 4.80548448598702 6.364163978660197 -0.5351344995917106 1.514923550316004 -0.6856224531733547
Ni 7.231707362661251 4.261945748694134 3.582990160206209 0.6344698415589395 -0.4897745833996726 0.3772672228268599
Ni 1.524677062471944 4.3468487978827 9.637198535046581 0.24200585638698324 0.16126704647501905 1.7280137521099013
Ni 0.06607545851246449 5.918899232974144 1.7823992614357602 -0.5549587334064894 -0.734543861464406 0.3843704095305445
Ni 8.409569752391509 7.983509111730965 10.24085031705012 1.7382732250543809 -0.9342833529830105 -0.2916050074713494
Ni 4.364007362263665 9.097588846748135 5.969657488326875 0.18510400099361668 0.8284076387941024 -0.16161414540179264
Ni 4.17944040282518 2.3074335360389773 5.814618807231113 1.2957058954681298 -0.5086338821980207 -0.45877119303962277
P 0.825438402464685 0.1538716739331697 11.267328650041303 0.14097795720867978 0.41927827715132304 -2.200522863560907
P 6.110359589456509 1.4865011299300142 6.595173327476113 -0.3192052856871212 0.7516285848608346 1.4260988780721118
P 3.0613894716849037 8.487532574393231 4.2737563107489365 0.65088633524375 -1.7386234093049475 0.8645702047575884
P 4.275554588238645 8.78201924539013 9.75618549888513 0.5720429425822857 1.6380385112013338 0.3445944151841872
P 6.058518621198517 5.066262820080482 8.177049663163666 -0.2795215939442541 0.4830043545553746 -0.8642958680502792
P 4.937330070479843 3.1405886094608007 11.356733012571295 1.236302356698832 -0.646503375684706 1.3191684973664441
P 4.220744588916914 1.7211295121939691 2.9073435896199182 -0.5018112028492325 0.3931227018018778 0.8319938134834638
P 5.397642277702173 4.944101709152025 4.4060533378199045 -0.29492867252794364 -0.4616770538325081 -1.394219512865012
