# total energy = -340890.6569399634 ev
CRYSTAL
PRIMVEC
9.08090096774850 0.00000000000000 0.00000000000000
0.00000000000000 9.08090096774850 0.00000000000000
0.00000000000000 0.00000000000000 13.29081647783566
PRIMCOORD
 96 1
Ni 6.485888268450465 2.10133866085341 11.380926176161912 0.0940715224651283 0.29977288799412244 0.2745650212699271
Ni 4.850072918156122 0.21448543386038596 5.917602757530919 -0.5624470713637345 0.19519918044608964 -0.5955927048777678
Ni 3.1057498814176796 1.8756328656765684 4.872785159729922 0.32583101853375496 -1.6237128386072808 -1.6655945664427316
Ni 3.5704649917848035 4.370029246845183 4.889053593930658 -1.1977350379485951 1.7097368081775846 -0.28892488953602496
Ni 3.9281798452793177 2.8216538925982273 2.360528462409474 -0.9209472979957365 -0.7193812947913546 0.4805348099689596
Ni 5.191260531770456 4.785289770186234 2.422477461166943 -0.3537984502809584 0.40728073846981466 0.302999108240904
Ni 5.3157415231317175 5.03080101051619 11.438727927417583 0.1729768787127795 -1.1521015563801966 -1.0715956884146447
Ni 5.743479204492199 8.077298012693118 12.184236302898432 0.1467302863114247 -0.2739654400127153 -0.26667302011636007
Ni 1.843531880524682 6.7199666543797925 0.46005660813716154 0.010891707211839305 -0.626826723191385 -1.2330856495337472
Ni 2.586013591691212 1.4221962343925116 0.3378603714758197 1.9269050366955973 0.6185493136739413 -0.45300395153854245
Ni 7.938260336975853 9.09007274310884 6.900897250832898 0.7942975844842707 0.25318089916719627 0.4346365047749482
Ni 8.915020213894438 2.085374436837281 1.1244589160411882 -0.09064861282650839 0.8825244752431639 1.5726936672469365
Ni 7.188105264436382 0.5836967080627607 4.622625406161138 0.055875985232013446 1.4816856141984807 0.32219702132559347
Ni 0.8749239284634794 7.680453556647125 2.5342796985058382 -0.09280679682009178 0.08916765740560773 -0.09501074644994605
Ni 7.772188818883151 3.771143823714517 3.631409642888016 0.4974932922001691 0.6680831587380107 -0.24721876804649037
Ni 7.52695908648522 4.206109902297318 12.352285641236135 0.5268056680110411 -0.9979474668008748 -0.16390936919387256
Ni 8.574813337591674 7.549025675995569 8.99818855409587 -1.5901877102666422 -1.598229349624196 0.18192997414100925
Ni 6.867086332016486 0.6706200008413665 0.2781007779574226 -0.37035943996343307 1.0786106862798972 -0.7957299460554231
Ni 1.7950398690081124 6.602832111954282 9.052535022508458 0.9364304812330001 0.225853672107153 0.7758843720844057
Ni 8.929104691396724 4.902061076570421 1.239219710936656 0.9833909091429387 -0.5518212162187723 -0.5993087202767743
Ni 6.397603748607002 2.0553438971209337 6.520036088695204 1.1571350050390459 0.07956304443630813 2.21367765577531
Ni 3.456236337689874 4.611217978283402 0.3659212637580952 0.07793270792173676 -0.2526723349618939 -0.1134553263083788
Ni 6.316829133917886 5.805610729360433 4.400815317527481 -0.8553425155117333 -0.11801774886808063 1.2834443044919572
Ni 5.323324075494328 3.0249661858275294 8.893416750336774 0.5010406432317951 -0.6638536940376955 0.23219015584814207
P 0.20658686614182561 5.556848526460638 12.243155004981167 0.4855296920803896 0.8858481402997582 0.6744435537383998
P 4.259932402720297 6.367555047088589 12.764168069392884 -1.8234309899696468 0.9169690300742789 -1.185941644858093
P 2.5401550414742315 8.538798484094537 1.367571890408313 -0.549125414554164 0.8355604477887998 -0.3876169414923002
P 6.606237449841681 7.736364664307708 5.608923861524856 -1.776372603029263 1.2230262084152161 0.04790710809392395
P 4.773557246051512 1.37648297859206 12.580262569761345 -0.7412367001035493 -1.6408960352547868 -0.43381272332207227
P 4.046086264292639 6.347676954727209 8.367566289944744 0.44164713176482645 -1.8168880466448063 -0.68777652340188
P 4.944977414852689 1.0684769773525464 3.6861947188205 0.8633569011757777 1.9475270838213234 0.2791852936507579
P 0.24767975949665336 5.6693972138644515 3.3026483342473276 0.44929616366965197 -0.29060047746623496 -0.13270851811103598
Ni 0.9906082509940102 0.22873790803178218 4.681556821505319 -1.420233163319954 -0.2531235635666995 -0.09648013190662094
Ni 1.7284587026336768 6.715562417378756 4.6536203375671965 1.7024783268429582 -0.6174380828876335 -0.5442624300349078
Ni 6.433328013271082 5.8654992716735 9.097816027419736 -0.5615178746812458 -0.00924671540924859 0.1828280604752464
Ni 8.762624532757533 2.44268973068634 10.187025609920873 0.125772453112835 -0.33743929219664465 0.16668538927711293
Ni 2.34902023653027 5.372288293864616 6.945886758821014 0.24493202889484267 0.19088692622398093 -0.4876675643589989
Ni 0.9212392480024232 0.024699142719834703 8.558222531404263 0.4186054194540145 1.6139858411275045 1.5520073425421788
Ni 1.588921577359593 1.2372364421510347 11.551433714409265 0.27423077785896 0.06650415436982095 -2.2591252465851483
Ni 4.096675963947847 7.116901919436117 1.7239118954864208 0.32286602236816003 -1.4271419746246452 -0.39483351384539744
Ni 5.787948376851121 7.9895674278126725 7.787408409014569 0.24556143494872548 -0.023361557544075894 0.7430686111059654
Ni 5.313153466337294 3.0747386043897613 4.834999530531336 1.4955914256462952 -0.4654923138135402 -1.7962896536681643
Ni 0.9011813538005883 7.560040808948677 6.750033517700273 -0.32640206054587656 -0.17506795691385332 -0.06634114642939543
Ni 5.516438516863498 4.818625757878616 7.099063397446763 -0.8378317603214797 -0.5668765678899979 -0.46131375695581844
Ni 0.7045952839664776 7.534777742274689 11.327590412034306 1.2315735837645951 -0.6239954243901769 -0.31490742964271573
Ni 4.64877658495616 0.5928357268624379 10.427031099954483 -0.6669030223869805 -0.40636979661977113 0.19544883456305048
Ni 8.362801541172695 7.37247479811071 4.472638888068306 1.008463021620218 0.1871058619149939 -0.0733160350853318
Ni 7.627956867774973 6.273413346078799 6.667258380513571 -0.2801725972646917 -0.7936437529503557 0.7957674841615779
Ni 2.2680730847215247 5.107661756860057 2.3488195486174392 -0.1734643598721593 0.7110205815314852 1.2763010085789568
Ni 2.2472778213558047 5.292830409825293 11.48642899245417 0.09788446845331529 -0.1270196952563748 -0.5058424354958128
Ni 1.3986131344096404 3.1985930135797407 3.7803999861375206 -0.7350339137269469 0.3384463933049204 -0.6887913378196395
Ni 1.7555379495142778 1.1192392141273821 2.5265573002673194 -0.3671316770547548 0.6780073598302582 0.13876886537250294
Ni 1.2446555382950488 3.4757965985150965 7.967405488841476 -0.8637070854263448 -0.04323669920144812 0.9683291297138098
Ni 3.8329756788486598 2.7864563201940657 6.849275960820335 0.7396459585776616 0.3791150746688761 1.6251948224694464
Ni 4.379228199591679 6.808632572066643 6.099979941518592 -0.45550537780415745 -0.21290302548375595 -1.1466826993574701
Ni 0.6543134268562909 0.042867301416688736 -0.05812049088192877 -0.1498912005379096 -1.7415084441622266 1.8589476948190178
P 0.22482494777663425 5.65325137182766 7.7793273151852445 1.6852017991506978 0.4400499624810357 0.5235136275233306
P 8.709092621167613 1.9681854090055713 7.966954168060132 -0.6408299794490124 -2.3651721962445973 -0.5743592494202883
P 1.8119303449296142 3.0839375571362564 10.471555665809706 0.15057614242007616 2.203667065616844 -0.36830615697883023
P 4.028042513939939 6.237344007175464 3.795763962595364 -0.03848787166255307 -0.31543064913603736 0.09499737671350736
P 7.015994947156694 3.839550251196599 10.095678102158958 -0.7972399549420462 1.035059541161824 0.5012013371793756
P 6.647537387740063 7.9468871929572655 9.915374087877133 -0.942260457651216 -0.7998951331767064 0.6730402456329698
P 2.626232902366659 8.514979280684805 5.651866534420118 1.218904730047675 -0.12191785525343518 1.6577539873523903
P 6.920309492971282 4.122828958923075 1.3056483181737364 1.108666110904381 -0.9941136948770813 1.5244127207533615
Ni 5.357486425180719 3.102916640295363 0.2996842635328126 -0.055723775924865326 0.299152223690988 -0.058288708438564124
Ni 1.8559545531379156 1.2020388697468727 6.870515280246571 -0.2610698149969697 0.6520477025417029 -0.9815332871089095
Ni 6.854472960481559 0.868429268044631 9.349119066428583 0.030146441676393243 0.7215916721791121 -2.0691865432070493
Ni 2.78721003497981 1.831327149536242 9.019294384276922 0.5952854580499941 -1.4965663879650548 0.48616938254691755
Ni 6.633380263029514 2.1075863207641587 2.4352760830829454 -0.6120313100497653 -0.30379023668363164 -0.1914818794955025
Ni 4.059199085384386 6.927310867667775 10.508982599417486 -0.28129976889059943 0.2522133930476043 -0.6288656079982847
Ni 8.226914938113904 7.292072500363949 13.397940498112382 0.05576542779607815 0.04330277655269317 0.3155170382022566
Ni 7.786100759265809 3.99827532035355 7.995927690896232 -0.22417577018409782 -0.47083043819700204 -0.5693800510381419
Ni 3.299926788207718 8.462582481724018 12.249401756801813 -0.5208052274532321 0.13357755097955057 1.016768970382752
Ni 0.10837964573953278 4.918815338976427 9.865201201579344 -0.1847255346082754 -0.012309927715604607 1.0650393753533656
Ni 8.82061516675469 2.2134423841066027 5.581172627967807 -0.021647145956130463 0.798532962721857 0.649256770060127
Ni 3.6718169282148474 3.1628959916187607 11.586641275804563 0.3342711788813082 -0.7253236284177186 0.008979834901107115
Ni 0.9248806893166824 3.4237721164966644 12.68556651432098 0.03344439570137466 0.13739589628437626 -1.5668410651209015
Ni 3.2434889882872167 8.326895658487954 7.884497770499692 -0.31788785242727835 0.3805466649090801 0.16371782200835677
Ni 6.006071619665352 8.184225622357463 3.4130285024844444 -1.607511803367386 -1.2382972756416737 -0.3099284883708856
Ni 3.3560739992951616 8.694926415556031 3.604416664567229 0.03365574038123236 -1.2496618087248736 0.015689385710798785
Ni 3.3006350984882973 4.264899655585385 9.128000034363541 0.040819862229839375 1.3239751747264683 0.3909326361290945
Ni 7.479556783092618 6.400836549374774 11.249121438117484 0.035395348780158396 0.14028041692102292 -0.11426239559070644
Ni 8.002698410706484 -0.07922813724318609 2.1913894159478033 0.5381501464895828 -0.42622899743754333 0.29655103862271515
Ni 4.758546516643855 0.42157719809965005 1.5506791788390444 -0.9863744172512947 0.7639536820850907 -0.5297680930734747
Ni 6.1860641590417424 5.825007533967061 0.23867150567185244 -0.1897957500423312 1.3142057540445302 0.559144746463379
Ni 8.022667312078196 -0.026603407666468525 11.29651647678926 -0.08771986921548763 -0.9934084412799408 -0.3753088135489085
Ni 0.2110900849641228 4.837178038689169 5.321031147983478 -0.10013932592576302 0.11215717632224555 1.0869482596113151
Ni 7.474362507701704 6.419742985325616 2.373832890513018 -0.4556794414881765 -0.1820652141672929 -0.49722769724360816
P 8.825082970062958 1.5385044148240137 3.414504148902318 -0.6742669189512195 0.9067249837487674 -0.26109218359447295
P 1.8623384265641605 3.2395115536347334 1.2858891856158892 0.5782668120048106 0.07532560931619285 1.7861667063015494
P 4.699920219574385 0.8765621230098446 8.22446400292508 1.2193834694563064 1.8155693278333829 -1.0729128645641717
P 8.529790230269736 1.620268847725735 12.397926249828322 -0.2137661448149996 1.8328615392549275 -0.4554634688226285
P 6.170880892514457 7.908865460331819 1.1988333116822008 1.6189143887773734 -0.956043113257605 -0.12660574764740778
P 1.8504606080129111 3.328922105206296 5.935279639481885 0.40173666872313396 0.26475600559930534 -0.6377775657759338
P 7.1761275559737685 4.123746129927415 5.781890507771963 -0.8736683104041147 -0.4582939962928881 -0.5985944678185691
P 2.4082912775730883 8.668510074450843 10.188101696693291 -0.18448873600712098 -0.35003075570841 -0.15543989827028068
