# total energy = -381167.7201390544 ev
CRYSTAL
PRIMVEC
9.25252603396249 0.00000000000000 0.00000000000000
0.00000000000000 9.25252603396249 0.00000000000000
0.00000000000000 0.00000000000000 13.54200711036553
PRIMCOORD
 96 1
Ni 0.8608429816372442 8.113910064488916 10.544483851259717 1.0544528580867711 -1.772029238458903 3.5322563420765554
Ni 6.3493330921431745 5.863510714607516 12.757911032889364 -1.0184946948246072 0.4780580662936928 -1.219708456895893
Ni 9.067854737509728 0.4673950469492592 9.624398796777227 -1.3336990868824514 2.217029088746046 0.13862411226452254
Ni 1.6993374122108276 3.510713660568822 5.60785324615711 -0.6177072773886201 -0.8835948254892073 -1.2400178578772063
Ni 7.62497883825019 4.026292161405271 11.768613383649646 1.36376813835369 0.9275316360814735 -0.3187854245408832
Ni 6.2686048036483335 2.0833912573505247 11.82752144030983 -0.6811065675808721 1.4242728806069664 -0.32384072757660354
Ni 4.732722514022017 8.092962345846816 9.423977057456506 0.7264037488557747 0.8905355184730985 0.4491367552736523
Ni 8.369566607686732 6.829381893515992 6.936080171712531 0.9908219114996871 -1.0814481557286921 -1.050709588994255
Ni 3.6869927840534875 1.859683686092271 13.04112900024402 -0.030723654336101924 1.4858253473984668 -1.4703663325309193
Ni 6.417848046447391 5.471194363837345 6.596122014516525 -1.5822147193634943 -0.3655303940059059 0.33062664015018545
Ni 2.5575924623532855 9.15272815760866 0.07273410611552371 0.298422287503499 -1.125658017476687 0.4303718159613234
Ni 3.4808187493795 1.8620708377749837 7.530222795235345 -0.8907802874940529 1.7899577979128658 -0.6197214796051713
Ni 7.927268111994024 1.3879621580312425 8.00667051352711 -1.42998278650755 0.9992494734417501 -2.6680638323733596
Ni 2.935807963648829 4.331394203023309 2.8107249164850403 0.8594930473449972 0.7557238379761307 0.28141546853285726
Ni 1.818972572123526 5.678469449093668 10.417906521162758 -1.5259780083579526 0.3497433063749783 1.8502298553300458
Ni 7.580788774542297 7.995348197580847 12.721537503063471 0.08941242642656215 -0.6995035820308211 0.16516381042626394
Ni 7.862852026664386 8.828639932839744 3.9726691475403024 -0.4993120905764627 0.13213644765764987 -0.3484991495552321
Ni 5.113473207414703 3.202132669211637 1.0369666626867566 -1.4450016285138858 0.17229605059567102 0.5225309518950872
Ni 4.822703328418845 3.958498904121409 12.384219091507301 0.2030852680623857 0.8949148784877169 -0.3510286008453051
Ni 2.5163632069340296 6.986628571220269 1.2016653247524947 -0.19782530521502706 -0.6166628952845058 1.448701703073292
Ni 1.0061381716339244 2.929469983405967 8.272216156408971 -0.8463441686678649 -0.396290300896582 -0.33470749508777836
Ni 4.130466350535748 5.917397425460692 10.603919301896314 1.3206584516484094 -0.6072274609032187 -0.2196547423852927
Ni 6.452961382245434 6.120268308387669 9.19974856898997 0.5994442174133741 1.0868824393703862 -0.39786433025192125
Ni 2.732900070618243 3.8986998292168638 9.487191239671475 1.5125655916067886 -0.7139025310649705 -0.626539016747637
P 3.0705802559371786 1.2332506724241092 5.431117047892886 2.3411521791809164 -0.15177401938291923 -0.38544513065196195
Ni 1.0297598702616986 2.5468225222033722 10.868773781093298 -1.1871482635716846 0.15119295006846864 -3.47183387512444
P 2.8178105008207823 0.788102398753589 11.405850525863013 -0.31656193452700315 -0.38988285470834144 -0.6031435206418323
Ni 7.28900111769722 8.28054805598371 8.164502876120983 -1.4718262049058974 1.0999852953009315 1.4536173952073548
P 8.914059251966892 7.085454800379397 4.766840278033006 0.038007846702340996 -0.5684493116937565 0.26052114158235135
P 4.723608776008558 5.027905847873124 8.45451867425583 -0.2395414540068907 -0.6224928717027214 0.4892685902975316
P 8.2697966208856 1.231400167243712 11.58632474459164 2.3268110799678956 1.6631281071801098 1.6608318549467656
Ni 3.3076022119683923 8.925976505328652 7.228127824535454 -0.5488837308570031 -0.7302400918827294 -0.09322305842190397
Ni 3.5059393572033963 8.170378230068746 4.869800535765142 0.416282941968425 0.7428590661983207 -0.1824249114995568
Ni 5.095449286957632 7.35436096066886 3.251327424179914 -0.19587306658466266 -0.07927893753698605 0.3003696410378569
Ni 0.5191064889628771 3.4213435128815246 12.991916665476529 -1.96862324236999 1.8285677969755798 -0.24063005908537907
Ni 7.186455373125493 3.387146177147779 0.32556585315546344 0.652476048328373 0.014704910310342418 -0.013498805817383202
Ni 1.2040959633069468 8.35121884882309 4.025537155291668 0.019196884643425005 0.41719619781131373 -0.15155547561420996
Ni 2.727478090439678 6.15546491691883 12.725329188178105 1.1222986140861508 -3.930926456059224 0.233995584487997
Ni 0.7530399518480074 5.187428646949289 7.190656945137586 -0.4987803864427087 -0.7475873249119254 1.0179287950188083
Ni 2.549320704196909 3.776492467103413 11.864978440918847 1.1745714553479383 0.8593104990205458 0.4118331337271875
Ni 4.137470512643553 1.9879884627751314 10.140728602716917 0.9981351573316487 0.01777043660954359 0.1300047460266277
Ni 5.629412556761331 5.204564324919771 4.295497178281368 0.33295271718020075 0.06708779478743286 -0.19793174888590429
Ni 7.684398559592753 2.7354075051376814 9.803478659852424 1.0780062199266789 -0.6957047771100212 0.8585227130119278
Ni 6.5346426809081795 3.1561106053751513 6.092752221607749 1.24590311301339 -1.3180642085586718 -2.294341389474965
Ni 1.96382086511914 7.011036734549712 6.339934376331935 -0.09149193466341018 0.00041266205738638606 -0.10825475594404584
Ni 7.590698229783326 4.161536332514622 7.887907866806969 1.7340198490946652 0.3926840716025624 2.2973104994056177
Ni 2.202249205087456 0.7671676336477521 9.175521755168205 0.14809657053133204 0.09260136567750504 0.8176408871959014
Ni 0.09603381684190862 1.3229169009402701 3.616691166997596 -0.4444043827949895 0.37082712362847103 0.8985874422432976
Ni 2.916331396625145 4.524207590294826 7.148229487614022 1.7107282255565763 1.5624123399255867 1.6650528350066487
Ni 1.1308714733186178 5.123410420233438 1.0178268876059051 0.2931289003150436 -0.12923855728456454 0.7703953239453765
Ni 1.2131449336390907 5.921079930769682 3.2316371238078943 -0.48745339146566374 1.548066869837192 1.0041975614756449
Ni 6.568275612561904 7.324743625256598 5.4814655928411415 -0.26750374354777157 1.016920665469268 -1.4702753154790098
Ni 7.453492523182754 6.5318391655598775 3.0085466960273033 1.2342179633659776 -0.5734084554712447 1.4491907268945687
Ni 7.466492322075046 3.526082106092023 3.834974907572105 -0.7502543302211273 -0.8489605232447895 0.20139990994016282
Ni 9.152811430341776 9.4280463183482 0.5780543314844394 -0.9934238678989085 0.5319324477146451 -0.25160327026743123
Ni 6.857370784369503 1.6701641980418611 2.0553921887185203 0.29532050864972365 1.7399387856822617 2.9270160868066943
P 5.503226608510025 7.6161426760137925 11.49335814008624 0.6299716965782699 -2.6304995009663408 -0.45797903615563057
Ni 5.035594696897674 0.12152082469152338 12.348347048585296 -1.2330005460191087 0.05911171856049174 0.17891432724313702
P 0.9312759845609435 8.362608708208437 8.49557768319849 -0.5311891417907174 0.0533295646610759 -3.311405779610949
Ni 4.258632339330079 3.5842712414896223 5.588271200338143 -0.29715216254182375 -0.5351023608021946 -0.30859331449922983
P 1.3492588421832288 1.0073502525270848 1.9250231735069263 1.51609134537186 -1.4149176646443116 -0.5470237948301289
P 3.8202661671457157 6.032341554741082 5.058670496497233 -0.2862108330389716 -0.07188110241101814 0.4925961120088677
P 9.20509745421391 4.418543744494129 9.882496156307988 -0.07614527700401079 -0.7117055234136518 0.12402924516948317
Ni 4.828800742988254 0.8440431703570054 1.1156584702305699 -0.5913413858005816 -0.504061175225674 0.9186973256192953
Ni 2.421904170000639 3.2813713010362577 0.7065339809068477 0.6442120085473679 -0.5710049882360746 1.3428033631765648
Ni 1.0660020142197835 1.3086587585253076 12.647597792822918 -0.27769585358942495 -0.9127830170173893 0.08391515075741676
Ni 4.734721059616846 0.6353163637866597 3.443556051814426 1.3118169420973795 0.25617160636440395 1.6341713149364436
Ni 2.5651425234893077 1.9978979180161602 3.3968095151998146 0.37956681749431403 0.26679643306810186 0.4862295463608916
Ni 0.7752904261371069 7.192793353368354 12.890081514894074 0.37651029005617737 1.8662264878686181 1.00784724241309
Ni 5.929786557643452 4.109731439989394 10.240654957205793 -1.9034367783703285 -0.4739959804091771 -0.45911880618702866
Ni 4.554102501484148 6.919159152342975 7.329719633686687 0.1277740569238961 -0.6746574695214187 -1.205308736530795
Ni 8.756849584366224 6.122091055990361 11.476444522737408 -0.8340972329797118 -0.6713785416598308 -1.2730863582964012
Ni 2.572396503796466 7.2080600211066335 8.905521946317128 0.9168970391857627 -0.7097399150468486 -0.577007742786729
Ni 9.206957211920209 6.473261424074395 9.123954652558659 -1.0746915537311492 -0.28325972083044765 -0.709588734180965
Ni 3.051029668706279 8.793683889982034 2.3022227474584307 -0.1633936058997186 0.8855537489877909 1.376890791778577
Ni 5.448766241050926 2.835103471731597 7.974237634482872 0.15362649921062577 0.6758270643494878 1.7784829645040465
Ni 4.950036589881997 3.1106159355150784 3.3928142745153362 0.6256856676084064 -0.9908800184311322 -0.037997048069063594
Ni 3.0534723355444036 7.841099338268814 11.53716699972697 0.6515594500513746 2.404068616199479 -1.7019137125887398
Ni 8.433594086928485 5.791988689385153 0.26164662846676323 -1.8119445865966022 -0.33388988428248945 0.6566047257847659
Ni 8.342123615861437 -0.1732146869059275 6.20192740098825 0.17817539219458348 0.1294768985476157 0.06326507860723299
Ni 5.561841360099116 0.08596429290277563 6.197377934002243 0.1277689147175735 0.9672317828845728 0.2800021331250984
Ni 6.80768472027583 8.636724040580718 2.0192083356736177 0.05849645357399603 -0.6424644297286418 -1.0450909572558968
Ni 6.012226563430161 5.6190219701733986 1.5572093618303977 -1.0008903514792828 -1.0464382153124108 -0.280433307125246
Ni 6.896758787134265 9.304710148074706 10.776579762500711 -1.8887984596318634 -2.082787936040568 -2.4918918437620503
Ni 6.878429533322427 0.793479041555234 13.63896800786468 1.1818775020910484 -0.12277428971645951 -1.3725245443900815
Ni -0.04782260537701257 7.642836213241026 1.741624231340681 0.4555951093044863 -1.523063148704003 1.1529754743447176
Ni 1.0941574505395315 1.1330643219573888 5.85063489956231 -1.351773170775343 0.09668710571110446 0.9107140503035025
Ni 5.016830574368445 7.736416260213727 0.9205967191648695 -0.9133373468589625 -0.5839813458910845 -1.3143206823558398
P 6.709210087100978 1.5269628546568006 4.435697927516414 -0.585039869062586 -0.5559668629560296 -0.10088057496716175
Ni 0.6444069704853624 3.70450781558595 3.346663600568813 0.5317144181665682 0.1884343509184303 0.25700155846486705
P 7.995931106712672 4.379498085187741 2.038058506693737 0.5869622828962795 1.6036731463475864 -0.8626102528177403
Ni 8.874393673425072 4.823341752706082 5.131906089516643 -0.454106954794734 1.584515599582529 -0.006452697603879209
P 3.8609772811144607 5.142146785184964 0.8641516848997949 0.22700732609562196 -0.18888377975102308 0.08676367594980541
P 8.865427975826046 3.172857677257748 6.4844949157719975 0.521814642554353 -1.407062430265951 0.3061389394214663
P 5.563627097598199 0.6700087096561618 8.509390779117567 0.27112848478455237 0.12532662382466805 -0.4596163146487375
Ni 9.194808645410898 2.538967127712585 1.5816526847582684 -0.8189004706346156 -0.1931523252193899 -1.9582722381529694
