# total energy = -340856.5075822088 ev
CRYSTAL
PRIMVEC
9.36316608121515 0.00000000000000 0.00000000000000

0.00000000000000 9.36316608121515 0.00000000000000

0.00000000000000 0.00000000000000 13.70394000318960

PRIMCOORD
 96 1
Ni 7.765032963785084 1.0047145568931524 0.8982797006047482 0.356622807103631 0.9479657355661094 -2.3107594258216717
Ni 5.40637647435924 4.138575671535481 11.066301873483704 -0.3193896337837855 0.7063049212233707 0.5879135910659552
Ni 5.142531811960543 0.9459419621993516 11.06738425550483 2.3322016548558477 -2.383028764810044 -1.0379196363184382
Ni 2.0645594368000215 3.638713676900582 7.3970305671355066 -1.3494252393684567 -1.1164377844299997 0.15362007145272252
Ni 6.2896694910278885 1.2933809730808035 9.143803204323122 -0.6222154496716188 -0.22612055261529446 -1.205829899141588
Ni 8.044495387526663 2.4538798904193055 2.8254234365532227 -0.8445467104478099 -0.7351717248563919 -2.833308118328572
Ni 1.9935117311226977 3.5942292739389363 13.246146231333098 -0.9568090448893524 -0.05930172308411078 -1.3862015276565418
Ni 8.155308460364186 1.1351153735731854 12.034293155938661 -0.36442122010212724 1.698314682383572 0.28513096971123153
Ni 9.578238201994205 8.370062041995064 7.6366985979014395 -2.4444783874750935 -0.735109761270205 -0.7164862326317466
Ni 7.041250847738325 8.512316627176347 8.204700098769358 -0.35797854980057703 0.6523564920313732 0.19308753341972554
Ni 2.7494750496487623 4.940821120947551 11.242438948456046 -1.2858338877700566 -1.916801115492376 0.18262237222234354
Ni 8.72715447730368 1.078196685801381 9.194603999252337 -0.48290459575271677 -1.0350921941719722 -0.42488662447703596
Ni 6.376316231715548 7.06234606135074 10.58666431799786 -1.018077919002163 0.7141740395588023 -0.06277091257963383
Ni 8.213978060228985 5.295731938514625 5.344317408303718 1.0229169922620187 -1.5121426451367572 -3.846935714868865
Ni 3.4639876310855393 7.394429479544948 1.4955794850566044 0.2924205613941093 -0.3303420190302311 -0.6789291003135791
Ni 1.2471082053610705 0.8237048901924945 6.374990407371332 -1.3684794277864303 0.9807884385230851 -0.6258034241331932
Ni 1.3065924006915974 5.270891458393125 3.343830118307851 0.3950312316785003 1.2918446127405108 1.2620534975210072
Ni 2.0281460831654523 3.0226828783201687 9.706952712428523 0.8969817883190746 0.5646859879965823 1.524183378351375
Ni 4.336063574559481 8.84856665436191 8.573897235435334 1.3827863313274056 0.6441832121919615 1.434792806301684
Ni 8.5677091188457 2.4023731127531276 4.923524543891974 -0.645353835461295 -0.2237474243974276 1.6726291046920099
Ni 3.3888950375784046 3.6825801108882286 1.2335643853475953 0.462128796657946 -0.020357480610429454 0.6438818789014588
Ni 6.244557755925971 7.393296536425949 1.2311814595311905 0.43578604499835916 0.21323983999788435 0.31365375974127274
Ni 2.8812522517708836 6.611106989170025 5.176375912769881 0.5894750220158042 -0.1465654785987863 -0.470240627131803
Ni 0.9457078830425336 1.3321632077823684 13.264921252343134 -0.13990966384516548 0.0906414137376568 2.9980674942275654
P 2.1081543389657598 8.705656647541536 4.231735430682437 1.2713133255563782 1.0576263707187463 2.3145790566780784
P 3.3184746640413523 5.410898883668959 2.737279525578557 1.192241876044508 0.04160404869403157 -0.5223592022039133
P 1.8866311881197126 7.038048644873058 7.281917928345554 -0.07282289749899716 1.5621004651121224 0.4287126830913455
P 6.869745731121094 2.612529379744105 10.76192312797382 1.1253430573394296 0.036671387279104586 1.3884067628379768
P 3.7752380043229667 0.9775051957046571 1.570348113010703 0.3258834690382452 0.7074814580299752 -0.19114095121631597
P 2.9635263938091865 9.282343421444022 10.677520738241729 0.8787148716890868 -0.21499976011178457 0.7629692066846344
P 0.32453483354514867 0.7666906981247084 1.8660659297183322 0.23761569773908756 1.0584018154321901 -0.6845050517394599
P 0.6829484116148442 5.15889862660524 12.204359153899777 0.45075783581684303 -1.3312763363735716 -1.148273697993674
Ni 5.656373013840598 1.0553786495947866 13.392025298178547 -0.8919583669625541 -1.2645518384628285 -0.014566070739632979
Ni 7.228411178363527 8.474789056755325 12.58520500572563 -1.6574187155001583 -0.9071150200983344 0.37834888592681293
Ni 0.9492565230598908 6.109540898273492 1.3074631751549595 1.1967371928117003 -1.3747403210944775 -2.5643565865906806
Ni 5.31765111075904 5.211978416205234 0.8626537892537137 0.6222473313508187 -0.7635729017069043 0.887395173071904
Ni -0.018617719816656674 0.44329442559832116 3.9277546197391406 1.3117449512088635 -0.8213643587940758 0.0013752830809718249
Ni 8.225167043924875 6.178772149693911 2.2076501527294585 -0.5122169715635888 -1.2142944849691732 1.003212057633924
Ni 5.286977378049642 5.958925005610679 8.361623956550096 2.2479892845729865 1.0483904539427749 0.760481150155458
Ni 6.5151438980410195 3.6787131232175994 8.880550294032862 0.15780402762708307 1.4933591938816666 -1.2799496610751375
Ni 3.2641776628259067 5.50297626079479 7.682209203886574 -0.9159259335217451 0.5373718735626616 -0.07025307988929191
Ni 7.002178354882306 3.0517086937655704 13.311171548463813 0.03069022999500521 0.6997051565186659 -0.7782739553625049
Ni 4.358460268283804 3.1872686150618663 3.2538500904271075 -0.6438659380618588 0.5731845123858967 2.264382895439662
Ni 1.0764738632072024 0.9681888452633105 11.127462075577046 1.6232670093191142 -3.138266407178376 -2.446149861640245
Ni 0.24402377571599673 2.8718235433342647 11.456727180723169 -0.7515491377731508 4.031178396303451 1.159410431336784
Ni 2.4629996143689254 8.657408251738262 13.388927962775535 0.2830270359943513 0.4276906695847344 -0.40166570627588244
Ni 1.3150847925009452 7.582919379780874 2.762618126145765 -0.4892981579838864 1.4031440690481514 0.03350764483914229
Ni 5.900011963422787 5.9150023926253965 5.648845964473967 -1.2123944397329829 2.3350062141841788 -0.5334771664939458
Ni 2.072621122960825 8.856590887857623 8.687051099841034 -0.20063654941157705 2.0655327485045456 0.2813838439639735
Ni 3.17304596549362 1.9714989272155565 6.072188419061771 1.8324630182649282 0.9028341333347935 -0.68346966849641
Ni 7.818159569216442 8.836637980530478 5.512163399541572 -1.6258818212341417 -0.667651727627547 -1.626259773398851
Ni 8.57361727676378 3.3985297356730233 9.389912157168052 2.388164543374713 0.674910208962173 0.9576922188252539
Ni 5.64418217135353 2.386362098426794 1.605512420264493 0.6095000589874793 -0.3904207294896824 -0.05052089156768719
Ni 9.17536924677831 7.07626908959826 10.753482233578971 -0.7493464736948773 0.8378592711253053 0.07296687927602917
Ni 4.370314036785055 9.254029206635346 3.3599179105976216 -0.27234384524889227 0.1353256440189089 -0.019702620635249937
Ni 5.473519739700844 0.45157989143304234 5.587151125586454 -0.5161728708875433 -0.44476176613440827 0.3919266246112476
P 5.054724038655069 8.212620401119443 13.341813446407885 -0.9173482677905686 0.06287684202987881 -0.18517162100675852
P 7.551608951764932 5.147372568923535 0.07568153666568811 -1.00053322525018 -0.11945422420429104 0.9808483452267429
P -0.004552371441791629 8.623429321334598 12.718175075230894 2.315265027001509 2.6901658064787215 -0.4736797347203391
P 4.482466042399575 3.859038342463722 12.979029142322087 -0.9920028191816659 -0.8801788578291229 0.5737074747689023
P 5.210190051447146 7.908944829396638 6.909924013913921 0.795773654809165 -0.8148954632402805 -1.434225363833988
P 8.49453597442447 0.8872995155167411 6.750519853387542 -0.6749127800653344 0.17785863228511306 1.1185291197413898
P 7.580250877393152 9.248523664866992 10.427547606676054 -2.2773147730099814 -2.551170941138342 0.2131079424057104
P 4.165017253089614 5.938897192953352 10.233623324735445 1.515877686699157 1.2589504331156514 -1.0736749395411767
Ni 7.719584154697349 5.193364441655087 11.214578847211596 0.8453617501499376 -1.207277944442024 0.4812932854015389
Ni 6.696442886579504 2.1703538525153725 6.871484471097936 -0.7096252438458553 -0.6163088543791967 -0.05305471373313443
Ni 7.7617371292570905 6.887208036219699 6.656524899809059 0.0826473397885867 0.45907406899202224 2.7262525248989498
Ni 4.852105120513623 6.904473714826576 3.3285915651990154 0.7990870354531141 -1.048000160482892 0.4189034103104076
Ni 9.271566417064133 3.928662846867594 0.9623003499944032 -1.2941285236786808 0.13769337292013706 -0.5881218504220194
Ni 6.550798835207499 4.579168823664125 2.75425869129749 0.09275717452907896 -0.3245603793514475 0.44798310128518337
Ni 3.515634856245808 1.8645528420486623 11.878287824769275 -3.273725491451356 2.2087010284963253 1.4008035938404326
Ni 8.863332367573975 2.982187184190698 7.088609742745692 2.2523401053425145 1.1106484314417324 0.7716482225158711
Ni 1.3742225506793821 3.3145608605393595 4.5656868005480495 0.7603687929473099 0.2671733567915463 3.795429319459457
Ni 4.437270038801204 6.120823513632108 12.679296399916721 1.6734888815891438 1.1806557138688054 -2.1934456449991515
Ni 1.350421382014153 2.9021040230602084 2.4400963733492493 -0.10007941922210506 -0.8971211421104163 -2.429025800365449
Ni 2.1391276929958845 7.136127811579695 10.154510187630809 1.50335075787674 -0.471546233317104 0.5436229966786961
Ni 3.1075318910834673 8.918593774915509 6.338675366982626 1.33289227471044 -1.5647317320873824 -0.5505207522397938
Ni 0.9690877092254907 5.514698944968223 6.221205082925206 0.23023174657019058 -1.5696469100008128 0.2649910044282468
Ni 2.363937315203653 6.221664814389196 13.172597623944332 -1.8241886940712777 0.7200708646592116 0.906998034904496
Ni 6.196627707775969 3.682149405239684 4.946245203169331 1.4933283406437314 -0.17256524509665763 -1.747008290934533
Ni 5.08765429443619 4.110720251874168 6.732910546578455 -1.5872898198935566 -1.0052769105827528 2.132840629722585
Ni 8.763605283603338 8.14333297070139 1.240442567291528 0.4694623542048818 1.6189365002645604 0.05877798937015684
Ni 8.972787781301955 6.7081281180878465 13.16268952139455 -1.0487969453525745 -2.2503462148409374 -0.31335165511982166
Ni 2.469169940942641 1.484089943723362 3.821549161024418 0.9968210665059155 -1.8930168685885846 -0.307531963114251
Ni 4.377476858983678 3.6005681375055607 8.98182323675512 -3.105702871420058 -0.7751130411360199 0.08145871879712423
Ni 0.26972847608446765 7.3760214946528 4.992085392607265 0.2773315282714708 0.6575179816276547 -0.15693602319983294
Ni 0.5895105664295888 5.55024152413943 9.109776521771465 -0.2882713151124261 -0.3352019182256937 -0.7652914270599078
Ni 7.216960026012002 -0.059455169515081584 2.758987090265208 -0.8159701843616979 2.1268471311433115 1.191840269730715
P 7.634416794280779 6.4877191840282515 8.964912422149979 1.584859356075193 -0.5228909063376672 -0.16348667983415713
P 7.335591342687239 4.489207522115927 6.952419680359243 -1.572263007467421 -0.39833869878517847 1.449925291067748
P 6.279164018469908 1.7864640353342602 4.079100839371226 -0.3203309146511322 -0.8193095331475762 -1.0264216629811678
P 6.972019596317907 7.489783964866227 3.519089864600438 -0.1561937457171697 -2.7264857239556783 1.234276584518055
P 3.75476075968455 1.5501377186110588 8.07111393292335 0.5853954526297918 0.3023558182299502 0.2657188837332069
P 8.934979315892752 4.192245340610655 3.6006421065191154 -1.665837535691473 0.13427226305373005 -0.9839781491049763
P 1.021296724362122 1.8880262998943462 8.379753855403946 1.4047862326372644 -0.0820978950430199 -1.31405303051675
P 3.2509568720488398 4.174492777357597 5.624727384472093 -0.6271123727526038 0.7710931213433494 -1.0233689921977729
