# total energy = -340892.3598214268 ev
CRYSTAL
PRIMVEC
9.10313538732812 0.00000000000000 0.00000000000000
0.00000000000000 9.10313538732812 0.00000000000000
0.00000000000000 0.00000000000000 13.32335879838138
PRIMCOORD
 96 1
Ni 6.453576861398334 1.8889916417592012 11.39597497440606 0.6459392756511199 1.382908972948199 0.6387615269557579
Ni 4.902539124030778 0.4783633968497749 6.007715299437176 -1.183326832943065 -1.2363992872880125 0.6026874069410202
Ni 2.7542173589501164 1.4677713572067375 4.947096241224738 1.258998512744767 0.7512704301904674 -1.3966798014800463
Ni 3.224321480986301 4.486234532633102 4.740051797112821 0.7103307545533122 -0.8489975471303121 0.2794840558380993
Ni 5.062818030283268 4.4020851483315155 2.946234347025138 0.2386739638002728 0.720275781581166 -0.8952064415862067
Ni 7.609365559714553 6.511982578585587 2.6895596083208106 -0.1682715028173102 -0.4915476161396954 0.284198173484317
Ni 5.11788289675236 4.3858997734626035 11.579997588909722 -0.24044776787124394 0.026232194223651594 0.31956266902654
Ni 5.650689415918502 7.433420157315045 12.447761260270184 -0.9902562688042043 0.39246115695847894 1.490144543599111
Ni 1.7023227457738792 6.53588741233461 0.1484248032410748 0.47323621942501715 0.130893062168852 0.92775635049777
Ni 2.8685254310698713 1.4397974219018075 0.4590228752263274 -1.3880457799541321 2.1900631016801637 1.537093915765456
Ni 0.830262394470715 9.06911705457061 4.888953604652619 -0.3015433496309839 -0.680844315058421 -0.169626731293624
Ni 8.758882197690683 2.3477805664039026 1.4383236242689186 -0.3380620133823081 0.7386373148074893 0.8929554407685009
Ni 6.826295640156893 0.9992420776071793 4.889339577596626 1.330482893937999 -1.0755718994535735 -1.1334217205825061
Ni 0.7530914738218333 7.666779035135377 2.6410626540946427 -0.34195569200975945 -0.668539786659455 0.2765131461352334
Ni 7.73975887221303 4.142572962300619 3.7923343765897406 0.24574192639064774 -0.6417630327862431 1.1647279868949554
Ni 7.413284021651361 3.76512965623218 12.958752115278086 0.6639318555737985 -0.13615071102336554 -0.600349759946779
Ni 8.122008633810594 9.043309665507975 6.796245279650839 0.7467206060362559 -0.1197326746766583 0.5772725664123413
Ni 6.928815151840629 0.6068823737546016 13.549856024319368 -0.8301534178406154 -0.07666566828385507 -0.13944712238645016
Ni 1.730633497091267 6.482898060753095 9.331214531075506 0.46952688889423005 0.2867793039479319 -0.4551001719459388
Ni 8.948919253800582 5.082371565276756 1.3351869200001922 0.5720475705679761 -0.6368326853641613 0.11224202272656798
Ni 6.578107754652952 2.029361990734802 7.05611794984642 -0.3676312423989927 0.5323474237648768 0.12763418891192213
Ni 3.5684655174987903 4.3663189290627 0.6242602593703228 -0.9785076129087082 -1.2560252890490562 0.41216994824131603
Ni 6.109405515479429 5.6036079992582035 4.9025427652849665 -1.32307117485496 0.9735824076929491 -1.0845100824834677
Ni 5.087341877244375 2.7328340937267903 9.461356597034959 -0.16965887008314007 0.08975078360258737 -0.14535783144393033
P -0.11321933711732393 5.4649945554286665 12.432466172050416 0.9328036831136903 -0.0986786822198365 0.06102153398869491
P 3.7928213943374836 5.866870677103493 12.559730736887223 -0.13662585088757115 1.758628905892597 -0.4001148168489948
P 2.296183994549577 8.42178398803339 1.3410629939472576 0.25152279473848294 0.5195438442423052 -0.7347788602933474
P 6.630450783615967 7.9682657788268765 5.752093793506939 -1.6928174067144266 -0.3230076901523469 -0.554415973529142
P 4.722342557365926 1.2502974507847466 12.72351435029637 1.2433024421657493 -0.4933638434128277 0.014624434781394167
P 4.021264579003028 6.099310138241171 8.420736217140583 0.46780039312142657 1.0468063972851067 0.02213591266709091
P 4.829541080682183 0.9063509523119964 3.726063550354827 -0.126186400721802 0.1954462634598892 0.38587784731400643
P 0.3131970171624598 5.491311720077723 3.8110140105779333 1.0831276003136443 1.4953805951870698 -1.4393171765345987
Ni 1.4385320860712232 1.0331603603752135 2.5835727123358545 0.76246475624439 0.5456030032232023 0.1358313800107338
Ni 2.003773076923491 6.731440968540436 4.824828387448417 0.3287584765931951 0.05647942314396725 0.29534133458533
Ni 6.199817856985633 5.898403938377909 9.103664363999746 -1.1445995915761966 -0.8532846045414402 0.6111563636439796
Ni 8.840373466434494 2.2864436395947196 10.151826691632534 -0.6137269525846334 1.119315363088111 -0.07679782298634515
Ni 2.5163160165293417 5.368419391208033 6.9735789102098 -0.5168377581650518 -0.2781979900368241 0.13800396218202038
Ni 0.5212045730072958 0.024283524184650598 9.015717151579315 0.1292007620680936 -0.4245120147464367 0.549855350741653
Ni 1.4706024323384763 1.2192648619612823 11.308520241614653 0.05315370120484394 0.0721909203419531 1.8047269858022403
Ni 3.967829173783393 6.942260482932521 1.4679006217304376 0.2465816486831237 -0.7260399377584529 -0.25737925351925994
Ni 5.893051294720473 8.079314928447717 8.07594039612831 -0.5967797832073335 0.6517646240836453 -0.18439823317584372
Ni 5.32723680633348 2.9025893640054545 4.780913951618768 -0.6936599787658505 0.26708953882848846 1.1460152409768005
Ni 1.021490140700329 7.485535607891266 7.133379901850019 0.032098680306757624 0.6381089809734236 -0.5735719776323025
Ni 5.138965758505116 4.457231943019854 7.192335448419772 0.09793409074432811 0.694850399529526 0.1496330617805165
Ni 8.120533925864159 7.299230837324817 8.956121654585893 0.383957490362842 0.5616646846717553 0.7269953596931867
Ni 4.76945128343264 9.438039825837418 10.727982341915526 -0.29981633963754817 -0.6570569828308361 -1.2081639465914031
Ni 8.542154748377381 7.114145886911593 5.0207742887930795 -0.1360802627967463 0.06485222058869476 -0.1915836951806894
Ni 7.189556261160223 6.203832339728709 6.884925294476754 0.29562081349896185 -0.3882933987340345 0.8641197474837311
Ni 2.2121165384672374 5.290796955039749 2.55117010162388 -0.3866566344615599 0.3775060783105434 0.25738696682874385
Ni 1.9665048403018237 5.126986032224189 11.398066874937486 0.7028920388870797 0.4185570827145824 0.5041241672531253
Ni 1.1035367007079222 3.3159536426457303 3.835221978738168 0.07175537546643126 -0.2547865530914193 -0.36991463911653066
Ni 3.5659803615149808 2.4759071981698937 2.783969136612695 0.3037781524987736 0.3569683633685078 -0.06742615196345808
Ni 0.9676633006554051 3.3584652852991708 8.179569580026062 1.1036061798829704 0.7901156851924392 -0.7150353591178331
Ni 3.856525136369342 2.527940720526867 7.022396294804577 -0.5104135998062629 -0.14871337817972452 0.17293625528283119
Ni 4.402558511376051 6.958882808304081 6.35249746574624 -0.15590012573615086 0.290866329533112 -0.5961020404140185
Ni 0.6715474068922849 7.355105882850902 11.457901784393817 -0.06245106734636986 0.19162894659632806 -0.81180731123326
P 0.061302334894389736 5.714611633201684 7.81841360394382 0.6359088879983112 -0.2455331528139513 1.7511431390385133
P 8.744207943310094 1.7053358836150545 7.936418459378684 -1.5146612977935525 -0.2605167707069771 0.40499271376658635
P 1.8016015412296444 3.292977328714834 10.368971064550445 -1.4019045402140953 -0.9365184129611163 -0.15775260556385734
P 3.971716212629864 6.276821279941833 3.741771920925015 0.14585585412627136 -0.17164993237123988 0.08298055475828935
P 6.711477792450716 3.9130738139203425 10.261810774403171 1.611075866569561 0.05681649476841183 -0.4106517118245766
P 6.548440636150262 7.793986250218714 10.568022045404549 0.3130428656301512 0.887692906817981 -1.6996675968670405
P 2.681710884917 8.64563008928566 6.080808015394679 1.2031778062307212 -1.9310650816105583 -0.7338854019448006
P 7.095438943516984 3.9435966271573846 1.840981705280776 -1.2260534252773143 0.4753812907924781 -1.4606295648591296
Ni 5.400544356288117 2.76722573953936 0.8106505994102069 -0.6286732894818204 -0.12468539069624333 -0.6306219285677591
Ni 1.6473671169304485 1.0972464340968886 6.926854336459997 -1.5465836004234463 1.167970405091653 1.6068163199622585
Ni 6.990397863307551 0.9123253401221576 9.22015081643791 -0.182083468999738 -0.8585875048115922 -0.01248450562025592
Ni 2.422171389479688 1.493970181094661 9.100080459564488 1.5758854347113571 0.836252845870134 0.6224121390634572
Ni 6.470353940072915 2.0823513423163176 2.7742160372681774 0.5589359728866825 -0.3092412324958739 -0.1954902293239472
Ni 4.073680433049819 6.949715950883948 10.61369429669381 -0.3663544325690981 -0.1603969851652399 -0.5918450649098774
Ni 8.14971857818684 7.356808169184134 0.08391998528769565 -0.21780380521948295 -0.33109740913901686 0.23029679548017115
Ni 7.747487434228613 3.9657081432184564 8.224749351686295 -1.2488981910859718 -0.3484194453572322 -0.7718978766328319
Ni 3.141674114037567 8.765527486585118 12.526075534734327 0.11568241586668465 -2.4952198796940186 -0.9814664384267162
Ni 9.04099746909813 4.897650740282406 9.959037757669503 -0.09975211778967336 0.23690607326657265 1.0585961908311834
Ni 8.80192182220149 2.360852668941449 5.702037472174448 0.006871016088220425 0.16226180628812056 0.5023408501004574
Ni 3.5002466202729052 2.7180050860431813 11.592494373285447 -0.18394854723293483 0.010495500214685151 0.06449329458737925
Ni 0.9082990233029676 3.347869235609962 12.88288840488296 0.7380264206963677 0.30677245924040714 -0.4074285769015887
Ni 3.199324270980659 8.370587954139824 8.436804161561907 0.8652026961352647 -0.7369015630633051 -0.7802696456362949
Ni 5.646083229369757 7.703337227190242 3.6208759096642975 -0.21091427718850128 1.1038576337721442 0.20509792761704032
Ni 3.139234473731117 8.503257050506257 3.4389588503952697 0.3619046243278606 -0.3197588441977461 0.30560312152265434
Ni 3.2044584393867708 4.218274636884348 9.050224407212376 0.46016241696019455 -0.3300329724302445 0.14792199262668074
Ni 7.10621705591563 5.830986117073544 11.40159798118701 0.7228283727996906 -0.29363849296161043 0.497179360504176
Ni 0.35543465543819835 0.26213297873323593 0.5490674500594696 0.6188874137396503 -0.8911338141787297 -0.9916660046675373
Ni 4.775659621824428 0.15851835985223858 1.5551022873557274 0.31755977966389826 0.44626277615996696 -0.07444140693902664
Ni 5.739235614652982 5.267119699677522 0.6030235546280933 0.7380557312724063 1.3963198470374663 -0.07685104482178379
Ni 8.352581952176546 0.11915549175850353 11.346492150608293 -1.099900448896609 -1.809865078359754 -0.9919377702716852
Ni 0.2618607949826282 4.815449426971791 5.886700037101778 -0.2568305801046416 -0.6874476793075516 0.08935303394353643
Ni 7.7294086071815595 9.117336363164886 2.40509299702099 -0.042539416024107386 -0.9045819692638357 0.17281335655172175
P 8.768959368657997 1.3403365637366058 3.7354170220521308 -0.8913952953702325 1.098142842775554 -0.021010797923712198
P 1.902564416747698 3.2976381340764105 1.6303661011232609 -0.9210948793171942 -0.771090036019556 -0.26922946798962666
P 4.730153047600755 0.9534533061838802 8.340955427551927 0.5573737706058852 -0.2510224580632967 -0.2706942254606112
P 8.505487318696856 1.7964491665525892 12.49748349653086 -0.02308567817486992 0.8445420824621197 0.7049201250607021
P 6.277331055528256 7.528529716724713 1.3244406685756982 -0.11948584877317486 0.42402864735211493 -0.17735521028613327
P 1.9454583910909555 3.261990255568729 6.122776200860451 0.0700245088182536 -0.20437724740093188 -0.440122467590184
P 6.958291104498411 4.021656013828317 6.004544677352338 0.281806790434005 -1.0644734755475669 0.2894617358761015
P 2.3000801365315193 8.574807695314831 10.403518373979582 0.13118848192208374 -0.8300140640492737 0.1284929373677916
