# total energy = -340895.2447720721 ev
CRYSTAL
PRIMVEC
9.04956233943891 0.00000000000000 0.00000000000000

0.00000000000000 9.04956233943891 0.00000000000000

0.00000000000000 0.00000000000000 13.24494922755128

PRIMCOORD
 96 1
Ni 6.4135604040078995 1.9460178340769685 11.373067033273262 0.3066300201252719 -0.6464357556715642 0.5705249632758627
Ni 4.776811354713206 0.35466681801530375 5.970995189311097 -1.01958767077847 -0.8017414423568257 0.43734516195536294
Ni 2.712307604055277 1.6521514039896295 4.667705309249343 1.0541664371946038 -1.2298897683042689 -0.23041146668116447
Ni 3.5585955030014067 4.182164629093798 4.918803508850039 -0.25691722628117686 0.23167927764999455 -0.3512900820368079
Ni 5.277469328357523 4.428249371290854 2.9738616677068124 -0.5588416134006634 -0.19013822098341449 -0.900375644491972
Ni 7.332434840561597 6.057261044989678 2.693413023345784 0.028708423678286042 -0.179810099584529 -0.27297325130277506
Ni 5.2509722105274586 4.452936576700833 11.704813120400592 -0.32814089761385423 1.1138851932114753 -1.106156714218966
Ni 5.606276117714632 7.783247826156734 12.229153798061743 -0.8472651378202376 0.7836452469767471 0.5897064213003199
Ni 1.9847228111805175 6.4002394485960625 0.5395421320774559 -1.3403883259771692 -0.20378872188731356 -0.4657728211684365
Ni 2.7654285335848146 1.598541798106668 0.20876706296350359 0.4290924350282674 0.5132335857535614 0.7333387854127112
Ni 0.6624514746131078 0.31755094401659056 4.68836726943705 -1.2926856205845672 -0.7844320045441006 -0.4266131202498395
Ni 8.583220066272851 2.397048009162516 1.4125072351394505 -0.031171026286165672 0.2658042443581616 -0.2773587819649804
Ni 6.9220462488690915 0.837404848788346 5.019014739725387 0.6658635253788725 -0.9066000281351291 -1.1112966065486927
Ni 0.7418993902052232 7.36515805711676 2.756909275823468 -0.39156924127182885 0.0026050417230148682 -0.24424605857141163
Ni 7.440233224301948 3.7961103098893543 3.8890085896313424 1.2912923397814664 0.07482321575847758 -0.4753365535974718
Ni 7.444586063672255 3.878968100480913 12.603773995552288 1.8744370487038684 -0.07835076929576183 0.14170609362395595
Ni 7.933760143011124 8.750274982646832 7.108193026406355 0.10382577363841473 0.550626938800355 -0.20629863279336083
Ni 6.885422671048642 0.5167680040955079 0.256312557282965 -0.47809046219352497 -0.1551107970656361 0.33032916351442465
Ni 1.7992882341805587 6.816247818352937 9.052935777183373 1.0861661300296521 -0.22908066368488292 0.9841725245039695
Ni 9.106302854802042 4.837633461590212 1.3341769404667385 0.17943806095709097 -0.35418360153451905 0.8649715539610651
Ni 6.571384767039439 2.091616238710824 7.120563777797645 -0.3875557492370616 -0.10803106996901395 -0.6152588158481276
Ni 3.451439638170188 4.197150703932113 0.458369369948998 -0.029022869594911307 0.361719504900248 0.021439400820698562
Ni 5.969263103125074 5.735141882024789 4.977941492220155 -0.3756402287463982 -0.6383604348625973 -0.4953579910247211
Ni 5.437465586293167 2.8491279334517134 9.420588716812796 -0.48501495722750015 0.5642630415265508 -0.45051152413399187
P 0.14938926619772686 5.466777117936468 12.54059538270433 0.14452248002682852 1.1069923227463838 -0.6702588262330907
P 3.894660041163062 6.147964805922311 12.680714277486373 0.9289475425923936 -0.09042184152768298 -0.6545198182312792
P 2.3391398612818493 8.256141743276928 1.576082594885815 0.09073423056177922 1.1279887224923928 -1.0624464178152089
P 6.479567909968453 7.67389291773511 5.869300735207488 -0.6970744037640383 1.4210001233929657 -0.8758663464966979
P 4.745490820283609 0.9327474152536608 12.54915174367029 0.12584264422913813 0.22828619280804555 0.1945134672329747
P 4.183630658154067 6.143476223120496 8.100213263505427 -1.176721926032038 -0.5952556332533233 0.47891912874240744
P 4.914971019300506 1.0293243419894746 3.9251272018865877 -0.5041025699865705 0.12743595685818698 -1.6287259755511563
P 0.1945465810788842 5.394000539524791 3.664943241937058 -0.4743957869507571 0.21057437735057932 -0.6756221474275331
Ni 1.45226467631528 1.124426190102918 2.2378662118159114 0.020719234825222383 -0.6697484622555756 1.446889846675534
Ni 1.8668070170118842 6.131784188886738 4.762102196475164 0.032446036343847344 1.1400001451309723 0.33609537657424055
Ni 6.098291759553037 5.574421659121111 9.214417973215905 -1.371120207843387 0.6294101676478451 1.3692579578236679
Ni 8.617517906633491 2.3702703549073365 10.287841736276999 0.2777701584707861 0.7282012070758297 0.21415875226772796
Ni 2.426983960590746 4.970408636727755 6.97268397855827 -0.058105903003796706 0.4291857660730221 1.046610993444849
Ni 0.4467587817741433 0.10994946465162268 9.211795410119201 1.051283459219854 -0.5680608180060862 0.0488311625700901
Ni 1.4571966876600155 1.2729657024194143 11.395781434145348 0.2084449897124023 -0.954271623179479 -0.7156290268377741
Ni 4.079995072979916 6.742873968842632 1.640506427478793 0.8047483475039495 0.26867719503058246 0.0016604184215584306
Ni 5.50742775089161 7.867390654566554 7.843049142428812 -0.14730055699259792 0.7783917118872917 1.106172655058566
Ni 5.468424138238746 2.888185843477179 4.976246509238743 -0.22190959985774042 -0.38542019095129754 0.06581098495753827
Ni 0.7848024591671628 7.440368967733454 6.843651702305466 0.762808512737054 0.47102892736105334 -0.7099900833844417
Ni 5.238148981031146 4.325437296267842 7.280245110972194 -1.4170987314560304 -0.16440404944210396 -0.10019666152625971
Ni 8.067132589247297 7.092657643148542 9.18939864887684 0.7693164890589008 0.48468637024348793 -0.28678624592646734
Ni 4.450393649750612 0.46276202739254785 10.317099875503905 0.7023181686614808 -0.3699514058917371 0.2156026838031061
Ni 8.288294837419762 7.157488706036039 4.8128566655154374 0.1727069128808445 0.35994415816738007 -0.01838621581667156
Ni 6.9678460826593795 6.043786247022133 7.165888509577661 2.0518421383913306 0.24592267494288614 -0.6261232693664572
Ni 2.4327937794592236 5.059546823417013 2.701783868288684 -0.7153197231274714 -0.451027544538462 -1.0871449490031535
Ni 2.2186358923524923 5.237768899422928 11.559489822454589 0.941866821757223 0.4508984751597654 -0.47467320898185994
Ni 1.040618195490814 3.264539032109959 3.778955959971775 -0.5840713345017295 0.17248631222960617 -0.6740964548116262
Ni 3.706166712173157 2.5759397527638623 2.5840626397052104 0.6051623508440739 -0.159923387962931 0.00040751985106381427
Ni 1.0069719236014067 3.389441088220126 8.19029260465313 0.5129121978584005 0.6329724310778067 -0.051250827755176254
Ni 3.64091936942904 2.576328883934181 6.831506285010477 0.4734521920905653 -0.5596322276227588 0.7309720849527476
Ni 3.6784026556490304 6.801297941763023 6.069563924665215 1.204094661618036 1.1078832099917693 -0.2826827652810551
Ni 0.6480409519243793 7.365755328215389 11.48180747642827 1.1059358564574115 -0.6637040558337086 -0.21003418857639314
P 0.3064634205311409 5.735630558378212 7.991882765513571 -0.6206002826656989 -1.5228407482805515 0.13121727827749013
P 8.602504683108872 1.78801247980342 8.154649999364368 -0.8298029764797322 -0.7185096908196787 -1.1352495178198643
P 1.868291145196355 3.351387679587808 10.305735435418182 -0.6837285785847516 0.0653633558971584 0.572395440825698
P 4.000232232626706 5.9979140167350415 3.818399381342719 0.5470865297472642 0.6192252566950432 0.6343358870842366
P 7.153009172796325 4.0665655228228745 10.402887914303584 -1.0799345472976434 -0.033117865599891355 0.11148611839714993
P 6.216361396277378 7.824767217073518 10.086452781293977 0.05035248431062296 -0.16964524323638525 0.41589753360454823
P 2.372424150687239 8.601925511134446 5.6847982631038745 0.6983715253089069 -0.15640097663196936 0.5519006633064559
P 6.8270077476903515 4.035760813433003 1.4734605606669127 0.4709466520598921 -0.3168131313058608 1.1366780227362745
Ni 5.411647185620634 2.87564315040598 0.216144265987776 -0.5563936660808031 -0.8919730222505734 0.8402899920539851
Ni 1.2913725117316937 1.1677464438776874 6.974683931782466 0.423452977354303 0.10741451943093759 -0.1643469709519234
Ni 6.884526764400699 0.7629260477455778 9.048935870734981 -0.6242743890831765 -0.8308648420853432 1.3555102692202718
Ni 2.7641525453286535 1.8190705769321036 9.111571509856914 0.26678871975861795 -0.546218268209698 -0.04660587278399716
Ni 6.3576974571619305 1.9499905918390583 2.4420370021886053 -0.11378956971934596 0.0514778561643178 0.5027385997595083
Ni 4.033742761084607 6.946036637997338 10.426463833487631 0.2632745359577724 -0.4444007832505637 -0.2897653831594494
Ni 8.22274885912633 7.32222693451231 0.34382272775035566 -0.6999694659236461 -1.1567105159071176 0.12245521581414394
Ni 7.678019518052907 3.934993939444689 8.229987603850468 0.7510606281725064 0.0009497655077790095 0.4712040194863369
Ni 2.9227732698250315 8.430400111082852 12.484106206161012 1.060876759335244 -0.6830791179262107 0.03625049769160208
Ni 0.2853127839900105 5.056605715734373 10.19368375749063 -0.9454306278490815 -0.7110234097449626 -0.34730127259238897
Ni 8.623056238638956 2.603658561477486 5.734083083259039 0.4519248595417507 -0.8784410492024097 0.45661609436983297
Ni 3.6528828905258113 2.7893012784057554 11.493026218564173 -0.08410952615640999 -0.6228461412770822 -0.4193978334483229
Ni 1.1108156487038676 3.338283913666382 12.518569653508088 -1.0243575813632875 0.24866321380250078 0.9640112190647461
Ni 2.981332986176929 8.633173649067238 7.94267758150489 0.8054204338703096 -0.03805618344177317 -0.24391361493265737
Ni 5.551924447739435 7.654762143454796 3.6093409224795816 0.10868824393703862 1.4480856667558482 0.5486510460209068
Ni 3.118080919076562 8.019559041285325 3.533871194386816 -0.2693513382794716 0.9254487854105159 1.5959660075113158
Ni 3.556034476926985 4.493822498270586 9.453171665155402 0.26754822363246183 0.17359651457464942 -0.24971633765736345
Ni 7.170565323271164 6.151032607474358 11.38076187592726 1.0742020156892405 -0.42447190553712055 0.27400426367045067
Ni 0.7118693233311486 -0.06182751322636373 0.16682686740904995 -0.06206128810711891 0.5987050252545044 0.14198865786138126
Ni 4.554798447703299 0.33127912972294643 1.51506320755502 0.030861208355230724 -0.6063342596649881 0.43446758329725177
Ni 6.061414793993776 5.7939821348018 0.4053380310842545 -0.42560961868598957 -0.14686449789644385 0.005275903686958656
Ni 7.988120862548422 8.770998479856823 11.069717567060883 -0.9459327642964805 1.1946849382683618 1.1416407660581886
Ni 0.10346002366940266 4.967295587365206 5.895577948678513 -0.49362686726622723 -0.2807174140245681 0.666352292089833
Ni 7.726298931858714 8.795459446214291 2.5882752108629616 0.9131465710043951 0.1744272380060609 0.5389682715155041
P 8.420644683138585 1.6576806864329936 3.526984477628387 -0.2761282519919889 0.2546333153430066 0.05395177162610708
P 1.8495766507726612 3.189101882440755 1.62495656492162 -0.5427105121667557 0.01060708609188496 -1.0440766570587696
P 4.8460043065331115 1.074943184537754 8.158306022452942 -0.7105613825068796 0.49034176875705227 -0.37228571045186853
P 8.476815315095969 1.6336359999321446 12.544423347472813 0.4546563995403008 -0.10539980299375394 -1.0684278322096243
P 6.251917125769977 7.668779915148365 1.5096986271418837 -0.04205733418136628 0.3710713784287932 -1.0397376633637836
P 1.7963199778116168 3.1911470834754527 5.864664644543437 -0.822008677246294 0.1191559762375819 0.9011621449490093
P 6.996623690138754 4.107840575562947 6.08956436186338 0.21962851713304757 -0.3897185612163353 -0.7099754280964224
P 2.4747565989189284 8.551790937098051 10.339272207606175 -1.824231117273439 0.3741194212264976 -0.9703597869905934
