# total energy = -340893.35727238975 ev
CRYSTAL
PRIMVEC
9.03834951602675 0.00000000000000 0.00000000000000

0.00000000000000 9.03834951602675 0.00000000000000

0.00000000000000 0.00000000000000 13.22853812707861

PRIMCOORD
 96 1
Ni 6.297099347436388 1.9904614504618587 11.490176069845392 -0.25281220297386786 -0.7312723898019857 -1.0493728724607025
Ni 4.360217232007668 0.21978734916798856 6.016246198456592 0.22309179309129964 0.5825564405190999 -0.2097104866883872
Ni 2.560835525462068 1.6085640747609136 4.607526354990755 0.04678507867433877 -0.06988566924754415 1.2720957122483574
Ni 3.3370037771440466 4.146008352067488 4.73606795198372 0.3799547969613521 0.20963001115943897 -0.13367242468620205
Ni 4.855889349509751 4.625655476146199 2.4005295534622784 0.9705032545469932 0.06615679833273123 0.48202604980250535
Ni 7.138804670360823 5.96662114127045 2.615348521984566 0.024091236621248832 0.516128390802853 0.3117223470465148
Ni 4.994953392832941 4.551486781260582 11.238912669015308 0.011759968749405552 0.6721537292629585 0.7588844950922995
Ni 5.764677301417985 7.816518182414601 12.48641728253528 -0.8754169176641052 0.4909362078079416 -0.6501939371624157
Ni 1.7117639478055113 6.365935416196911 0.44586358182384106 0.8167947371455223 1.0540677068332105 -0.4985731555279091
Ni 2.5652191249038814 1.3918244569986562 0.5185572180931607 1.028145844761126 -0.5844348884887354 0.0515192509252145
Ni 0.5326760236355469 9.104419698419495 4.642423421887338 -1.1242035444183478 -0.038490956986346615 -0.3505771151301833
Ni 8.472693307932621 2.4089912561373836 1.3857687629243982 0.3370983639174581 0.37002313966993694 -0.2639008566878617
Ni 6.829810620634456 0.8569105380604431 4.957831084322802 -1.18640341498586 -0.6860914223899732 -1.9310236868496617
Ni 0.60048172056851 7.2810863660577985 2.6053737996258324 -0.4308760092912515 0.09864165833431399 0.12079505450290165
Ni 7.446497197778695 3.5022971103232026 4.109934492083639 -0.6323232275295819 0.9416233382878493 -0.6378292449494758
Ni 7.611835722704673 3.598727259693742 12.410564743163045 0.9652641176352408 1.398996879648997 0.6241610034337637
Ni 8.035896998191312 9.140301945396816 6.7436706320154745 0.27009387287245096 -1.6287313748677952 0.7588353870219189
Ni 6.806934558392744 0.7893533957350056 0.4724516941495806 1.2988333853535179 -1.113008961254109 -1.4526092656578142
Ni 1.8441305742495588 6.595735448790965 9.03128137536144 0.03269517624017595 -0.03216115811357687 0.05063350588615151
Ni 9.135602003727243 4.910273097636336 1.2905135989712524 -0.3776400327852464 -1.0687083395645207 0.7519245188346986
Ni 6.693150778242241 2.1028171714127604 6.900984006540657 -0.32015119454015833 0.6047933975404294 1.7214862354040288
Ni 3.358822352510105 4.405689167660792 0.37818894095666417 0.5543594092595937 0.610415114602581 0.44474608240512437
Ni 6.030956112047421 5.601752015772345 4.765263628101136 -0.39908611847416425 0.04850257558607776 0.43558807005494016
Ni 5.558069673293405 2.9945045663232386 8.973049098075421 -0.7983000207754445 -0.42919630759598343 -0.2604949163301062
P 0.07916599824928425 5.623290402308102 12.329658862661082 0.9437635245593037 -0.7506819046768491 1.3423750173898945
P 4.13310158917489 6.230170370391788 12.535111389736871 -0.3266524859937858 -0.48243099855040783 0.31609836462702334
P 2.0663112783292843 8.295306663303679 1.5352513115601214 2.100485096210015 0.763806357873949 -0.8785284667098935
P 6.275054813336215 7.7521560965895375 5.822382642936048 0.4974256721870272 0.19948649496753385 0.7820092540352209
P 4.783031215281997 0.8859426200543609 12.66555736694095 -0.7063591715000739 0.1673957850805762 -1.2615469901982337
P 3.9246953295267613 6.242688484261709 8.149162880923225 0.07131674526711589 -0.26694992792683053 -1.40061847441282
P 4.550185258952085 0.9478516978618821 3.8410643866913823 0.6676964648225534 1.5351252220748595 -0.39675258524498125
P 0.014612299417691472 5.492848944278707 3.5877908569626187 0.19199275769365 -0.2818625833726049 0.11334811130655317
Ni 1.3333734516580174 1.0890759066832028 2.5946190677169367 -0.9538347927523767 -0.1855529156055772 -0.1010232711926131
Ni 1.789023758173809 6.356951296928535 4.689939832166727 0.18436686571727604 0.5773386437635863 0.4078497235994073
Ni 6.048843005439894 5.6479922111214576 9.041295866457377 -0.3952577458670096 -0.26106133035653745 0.7076640063544265
Ni 9.106408135279699 2.372033445585679 10.231440403405012 -0.4231403312098906 0.054274959293480717 0.48258912139482685
Ni 2.435780923653953 5.214675665885504 6.859208755777639 -0.7236123021535666 -0.13092905761311 0.3409992416337611
Ni 0.4441246034060989 -0.09358758849538341 9.354018235296627 0.060228862884070464 0.5187653142050679 -0.4442367468688737
Ni 1.857100605587709 1.2714878735588442 11.511685533663185 -1.1920613846025858 -0.7679494335080451 -0.18840684011460457
Ni 3.979250806291273 6.9792958807749885 1.6459738027808462 0.1987323904103287 -0.3837834266788229 -0.42518847198817095
Ni 5.587887187847103 7.983763799056503 7.905585692392766 0.2443877263555985 -0.32317352630624985 0.27891121405376484
Ni 5.22836876517282 2.711992880235045 5.269165162699655 -0.6941613438823013 0.10761043749182757 -1.4606041109378327
Ni 0.5473443608192987 7.352841821663077 6.8832055733405575 0.8236955780304137 -0.11542736243308509 -0.04855554031120025
Ni 5.019275590972984 4.533310660688443 7.090390751989534 0.0016341931693133146 0.7393698220981396 -0.7276404494763533
Ni 8.064376837039054 7.025011851860956 9.069234308178181 0.9941347779230042 0.9933814446967474 1.6352480929403903
Ni 4.694554813352274 0.5343399837535632 10.177852030022509 0.6623763381612205 -1.7183386909139826 1.2957169512117235
Ni 8.089232297791607 7.135315867506102 4.689741892315644 -0.1628513602430034 0.48346946711725125 0.49831090300545794
Ni 7.3531310488427435 6.246430360898639 7.115550805115673 -0.7663777181455511 -0.8770850493951475 -1.961210494845687
Ni 2.480330947671891 5.232535444229884 2.5780300812932153 -1.0942154826966897 -0.48453904603234615 -0.21500310254589422
Ni 2.3900468758692566 5.566303609564523 11.359557460168451 1.6215127456321687 -0.7013678889330694 0.647535416493646
Ni 0.9271990695638521 3.589327376354594 3.766760116565297 0.5540642466166781 -1.1252268434765396 -0.33234825082698244
Ni 3.5644086471564904 2.623977434122916 2.6265398061677696 0.17132751603481458 -0.1940000179316659 -0.41894223396814306
Ni 1.2992446444574217 3.480559880101425 8.167101292907077 0.7569307138000384 -0.5913578408608138 0.4809107052511395
Ni 3.6183856695616696 2.6760744798602656 7.157935240625861 -0.5940071055582028 -0.24834979632714002 -0.1436444482972494
Ni 4.001539375824289 6.820437852343403 5.900642094744065 0.4000636518960852 0.6858574520022962 0.8784659889030741
Ni 0.8529481256990181 7.372382732989265 11.253543948966664 0.06435934011267626 0.5572716978103822 -0.037769248328973666
P 0.26090731960207486 5.420650609554566 7.976345121898069 0.7412541836050459 1.0315656690759525 0.44870532416318853
P 8.676996156969238 1.632651275817478 8.098960273212688 0.3472128266436407 -0.231758210517046 0.4419428086283744
P 2.179326798783799 3.3752992634017063 10.605398493024124 -0.5821743745893329 0.10653185971566814 -0.47021003100418374
P 4.020637408031614 6.105865951580932 3.90247183610917 -0.5305232260719445 -0.27627557620313065 -1.4921057810905398
P 6.814264659727406 3.932025430861423 10.293866474796188 2.0460651266982373 0.5668845383097979 1.3663484974863567
P 6.257068498100732 7.719057661216501 10.194017117861033 0.9236184170699965 0.5442858270736755 -0.11996870194686436
P 2.143815124130425 8.447114779230905 5.761728991855264 1.3331475852543555 -0.47595258991491585 1.0470377965696225
P 6.952885823931731 4.105164051289021 1.618405933383988 -0.4919672201756172 -1.8995775525252383 -0.26377975772896506
Ni 5.2969607985005 2.8133670067080008 0.5591529642641023 -0.17088708606328634 1.1062320475415914 -0.5541285241957101
Ni 1.543840454961267 1.100861914254595 7.212926365829745 0.11022447807590693 -0.054683764696125174 -0.7382272238532641
Ni 6.86490653121706 0.8160987753396884 9.113205877836787 0.8653063115926646 -0.6183199712719544 0.4726947450992504
Ni 2.9309830469890787 1.6727905853455092 9.386930480672751 -0.9805711803059565 1.2378902700112422 -1.127882793042148
Ni 6.215672858011025 1.8619722758952093 2.3896166504395033 0.4046008776448064 0.7079439994886904 3.169297051231935
Ni 4.2021274632720695 6.856772016788953 10.135202770875939 -0.3152696980781409 1.1262647978227507 1.5164523282557045
Ni 8.114991593480616 7.021188630079746 0.3930597371661822 -0.13239124398093327 0.9970306114135602 0.3711040314389415
Ni 8.036312762262082 3.6565003888320384 8.395636860425027 -2.0919989131158747 1.1214244390113137 -0.1244773884504953
Ni 3.0757864421587673 8.24069695644298 12.261465420540379 0.6631322424906386 -0.12550197306026772 0.4846835420300104
Ni 0.43652244775556365 4.93489356130541 10.377840874907418 -1.1591913733474422 -1.2283381075464328 -1.7717263625065034
Ni 8.783639641121734 2.235075337664433 5.737151008428204 1.0694274771187324 0.5869350292027699 -0.15317732748834909
Ni 3.7757252553000087 2.721374686875463 12.001273938207978 -0.2428358084874463 -0.5360603538400897 -1.0199589380749594
Ni 1.311798911724802 3.506988013643412 12.727983438332123 -1.0822079167128524 0.11105185907320875 -0.8012992126130845
Ni 3.164308035835312 8.522657303219935 8.118142362069102 0.30267694901479486 -0.5258792995420298 -0.8640066189446345
Ni 5.433394682158602 7.947610401598245 3.886927682871992 0.02132113007527941 -0.3851440544717754 -1.241970610728203
Ni 3.000551222048132 8.351561349748728 3.6186269934897033 -0.21457938474491434 -0.3837088646871456 -0.02232180342565188
Ni 3.633244715917013 4.349877360334606 9.269527745436678 -0.8980238564303437 0.14516139916240806 -0.5172661039517221
Ni 7.289031075149251 5.963349258800478 11.345561576177424 -1.0198452953152306 0.12432183670923751 -0.5738859093282956
Ni 0.5153486040687403 8.99243454979254 0.20003765197147858 -0.35817112542735735 0.07884184999956743 -0.21834939331030784
Ni 4.680473065042283 0.28912414248330887 1.4529697942848718 -1.2692484726075495 -0.49295709489271233 1.3876750268782747
Ni 6.099060074509414 5.620009481488766 0.3478110487423628 -1.1087794965537938 -0.14029584353999064 -0.44729481696890705
Ni 7.959396409169638 8.640318535247836 11.478230083490248 -0.9519704858501282 0.7110234097449626 -0.37324756014450555
Ni 0.03094278904958666 4.929136132760182 5.743685735018784 0.0012151033540237137 -0.8564239215013701 0.7268014985148257
Ni 7.662206443713392 8.643400612381152 2.7266133141671642 -0.07659881960166162 0.18646488589688534 -0.2703746373376634
P 8.21691705926481 1.577942147113769 3.4195239068425205 1.0992697572911456 -0.15113458602670746 0.6764729254636027
P 1.628565941904695 3.019730599399738 1.6052036164671686 0.497165476547105 1.3725430563328427 0.3469184353316735
P 4.910996165585501 1.1572612142894776 8.032897170037213 -0.3998494790027501 -0.7991042618442947 -0.19402650029422713
P 8.540697848551606 1.5928283085172068 12.318441367264722 0.1127809259491735 -0.14404476905946162 0.09293869441226574
P 6.178154669798718 7.689059379675513 1.4580231354145996 0.44251410775081207 -0.25851773799907735 0.21250784692786628
P 1.819510110580485 3.175949429816871 5.981904990045929 -0.6206470767432343 0.03577021562107388 -0.14761448868859092
P 6.951864490453535 4.238814123342837 6.235866338161337 0.23496334771790503 -1.2297463007478693 -0.5255861937816432
P 2.4625434761224287 8.598922895158129 10.123482743254907 -0.25838686884816786 0.13952785502571455 1.1588339900080238
