# total energy = -340863.22180396324 ev
CRYSTAL
PRIMVEC
9.35257188385959 0.00000000000000 0.00000000000000

0.00000000000000 9.35257188385959 0.00000000000000

0.00000000000000 0.00000000000000 13.68843432448239

PRIMCOORD
 96 1
Ni 8.379679706057383 5.477043637085836 2.2253424729541393 -0.7500609832633987 0.517689821752702 -0.3661780548922339
Ni 1.562029100988062 9.085817568195145 1.3633860914109805 -0.18044876160979245 0.03277513754849194 -0.1493255578424267
Ni 1.1242726339379157 4.704577337048666 1.6685520859207854 0.9113627396310949 -0.9847582218041105 0.25181667182981793
Ni 5.940809605799582 3.0883313784036854 7.508188377751893 1.2922480188265164 -0.6803529772442992 -0.7762219579294825
Ni 2.7339343821653572 8.722311167203006 12.651590245529233 0.4298622233147565 -0.009948369461963511 0.3865234513178053
Ni 6.890871888249588 1.4050461864164963 5.178868689858858 0.07969545624911437 0.14499016369186643 -1.0619661357446808
Ni 5.851352258294248 5.336614774274274 1.8236139822824613 -0.3418320219477016 0.02619465611749682 -0.4544255144764174
Ni 0.5400558306411646 2.095799068246233 4.0621389049291015 -0.5314020291324719 -0.9774141227342135 -0.485124743332487
Ni 6.815695917601614 3.1487676961851245 1.2735265833261664 -0.23773268293292607 1.403027598074945 0.28875493961706394
Ni 7.43677214089348 8.337396729782252 4.949422985665067 -1.2319921593592524 -0.4929766352767382 -0.11163369971860776
Ni 5.921272083694131 1.7149997623364404 13.28086119207088 -1.441811403711362 -0.8631224165674684 0.8471710354445345
Ni 0.17772598315829646 8.68689297849389 4.399079326246499 2.8749502193493908 -0.5905371447317314 0.6022089246427048
Ni 7.211103940375319 4.168403758885228 4.007918306243537 -0.6502528154248092 -1.7279296770365273 -0.7172642484483519
Ni 3.3348090507670483 5.644697835871053 2.4682848732467217 0.3968903963744262 -0.1973329389596408 -0.2892282797090567
Ni 0.14833552685557708 2.3313809946771635 9.658271642170678 -0.5535412842336724 -0.35489219756576945 -0.029912214178400093
Ni 3.300260651218203 3.9485528579121096 6.916587719164451 0.8048889868468718 0.47743688776992615 -0.3333386397647098
Ni 5.285194335530487 2.2103119551103525 2.8646468583252416 -0.23781290135155816 1.3727842258093712 0.7937028883230653
Ni 2.6707577609004822 8.824048441239915 3.5497666862707686 0.915137890402811 -1.1108109251615257 0.6396614130622081
Ni 0.29686371668644007 7.761194145103099 6.704444272459931 -1.3906647056342178 -0.6227224712150243 -2.364778817460921
Ni 3.7080888890977204 6.139028008625305 4.797618589997182 0.26833549542044755 0.24205187913357024 0.13958493351589507
Ni 1.5022942260778094 2.864047358484667 7.852931649568371 -0.12341243752109067 -0.24357371509473533 0.49480237563156726
Ni 2.9651299525084673 3.411864888309802 12.42647010570776 -0.1677454551105111 0.764637852636309 -1.2225639240668171
Ni 1.119325123553146 4.089215535014066 10.923698898477543 -0.1603278224902013 -1.2023455401374132 1.1880275808528442
Ni 9.073481526233877 5.0827298651911805 12.718403146638337 0.38790053417099 -0.3299429838195995 1.5354157567320847
P 4.533238225046813 7.627302729850998 2.8774187301238077 -0.2178133183011797 -0.2361771655203481 1.5527645324231774
P 4.245412833569904 0.7790252585113457 4.892163736461523 0.7252508661982542 0.17087834431253798 -0.3239967935384936
P 3.038089363683492 5.275336725047411 0.2764994272501501 -0.13425400822128492 -0.47378437861900347 1.170941829015151
P 8.859120584799246 0.6900299280438337 6.0049102611400995 0.12760410700493507 0.3599171615841866 0.1623412533758043
P 7.971280961309301 7.63530853115414 2.797149348973857 0.12754959961791582 -0.032079397033047984 0.22216722439450123
P 6.144574083593487 6.299677131270272 10.746187089209249 -0.09217353411146707 -1.2992427049767947 1.5339396864071904
P 1.8047563921334802 6.786787118737109 5.331904819208546 -2.6673210406700645 -2.0111138074340333 -1.1356562663399796
P 2.28660088178061 1.3007556603284696 2.664918950440725 -0.36286570268954926 2.4224496898098278 -0.9233492225690096
Ni 4.6404654586222085 2.950951453938882 5.208394758450006 -0.1742313199451709 -1.1301139963655118 0.8009091762635174
Ni 4.934370021649403 4.314902440675458 13.541570672662038 0.6159558419151521 -0.888261120616625 -0.009023029434216718
Ni 1.5036035861040244 3.5290993735141263 5.550865355363839 -0.40488729853697364 1.1867916515632142 -0.1991982743031537
Ni -0.13866777357630225 8.7124348515767 11.171732838757778 -0.11253512848695459 -0.6825849518986115 -0.8466894678224256
Ni 0.8186268525042192 6.779099304868904 0.7293939667176652 0.4791209603405684 0.6271509393000232 -3.8990560897131883
Ni 3.5952501125528324 7.612824948989705 1.046967082733019 -1.2541473553000528 -0.8014038565117488 -1.565552171106149
Ni 5.816326877592996 0.21104639005398412 9.227551114747115 0.7233225388272898 0.8528300335025248 1.3993861446676157
Ni 5.494439420291263 0.949463717866594 6.950206473094684 -1.533807274594384 0.4762480096681475 -0.7594563084353694
Ni 4.895556849443743 8.204206757401337 5.819254232508748 1.8517187811707463 -0.4692157854117145 -1.5732613668249487
Ni 1.011377741963333 5.254686246919677 7.478169428636591 1.4596173215445314 -1.3970927206477488 -3.1825369469609766
Ni 6.069884446669535 6.414180665562776 3.8363612793230364 0.46108415744351555 1.6566111319971988 0.03290035027244656
Ni 2.555216091158622 4.833539947059229 9.269519844615953 1.657841919080506 0.45770572788958586 -0.1484225864121831
Ni 8.108240020051392 5.026502204636861 10.538054960470756 0.6437965182765042 -0.6589909666287554 1.260497980108429
Ni 3.6697059351863883 1.1138912794443536 8.579855602122297 -0.8622058182904698 1.5308289086923506 -0.7519502298663114
Ni 4.702660059867422 3.213609075197616 10.515728501509466 0.0614125987795265 -0.5832879193684858 -1.1572645886383746
Ni 8.34709534654786 5.973188208733556 4.90763195465693 0.6738128621329363 1.1903852824517434 0.7432637578359071
Ni 5.649551820539665 5.094813387718822 5.66349369904737 0.7195787555141414 -0.6483946791701478 1.8931726774401587
Ni 9.087108223078129 6.340678805234035 8.861946931941548 -1.1501642301481676 0.03118285336070759 2.148767071144854
Ni 4.247601335328006 5.2724561329897375 11.46068240934291 -0.3768895277724671 1.4027746015238745 -0.7392083568196107
Ni 2.697749282583743 1.7817116556720958 0.12471186621117326 -0.755602481906918 -2.2624242290513936 -0.006535744235988745
Ni 6.902235262762812 8.521062531173758 7.16697663697755 1.0848862348759638 -1.0957571161521966 0.7132579555024362
Ni 4.189334814161437 0.6377621463116531 1.4905745185860233 0.250523149829375 -0.5367434959500433 0.00444929402060524
Ni 5.601545070435653 6.617533630205586 12.97304935505096 1.0418786209661863 -0.2098891783580966 0.30486650046694597
Ni 8.053265604093593 7.374184731640401 13.649367477848838 0.6672989722738185 -1.3363977167605372 0.5583916703474384
P 4.902964086163473 8.840303210708214 13.291674635373093 -0.40165542186323727 0.41947136699873566 0.1766702684039667
P 9.166109395516974 8.450749897766011 8.684366848900458 -0.7470422510417328 2.1668437261409066 1.9575168480441834
P 2.577821256754063 2.3889647781157772 10.098285820008883 -0.7029511742597893 0.016765392383796936 0.16477557384890978
P 0.6112289006375671 6.146902873925827 11.048126446511596 -1.414476463341835 0.9148093034187987 -1.3061152637269118
P 0.37632222987729885 2.938203898826517 12.954022483355732 0.5724898003117173 -0.3133511408991893 0.06778302108224456
P 7.8813933955096385 6.396195670345551 7.060179621696483 -1.8062513928665664 0.36330150467538724 -1.184721656408063
P 4.486269610392157 8.54646411568233 7.905207848615005 -1.0429700542581521 0.8926304533289143 0.28929872793567596
P 4.895164041435877 4.334234206205361 3.64227297212286 -0.8537376329184587 0.7006970881182901 -0.8389795007726777
Ni 6.8003483475800515 3.442344919205765 12.160503544611347 0.2886760067500125 1.8762692168166009 -0.8558443948488162
Ni 7.827672224148359 1.2933390710371229 0.7281743913789621 1.6367712144531361 -1.3904111948625149 -1.0113655399789938
Ni 6.516806433903187 4.947323333337315 9.06542522104401 0.5199760466837173 0.7875489529065275 -1.2141078228796638
Ni 8.234097576285503 1.6296294886272207 11.834855418262892 1.1607548611798202 -0.9020124087644465 0.4826078904479043
Ni 7.834078735705198 1.2927872693117894 7.8999788258246 0.47572941816051617 0.11217337427216165 0.12439948402470832
Ni 2.1240251293827828 6.448598129109 12.435216630682875 0.10943720628792121 -0.6007066290655655 0.6596882498060961
Ni 4.521266933378562 0.9383154525005346 11.646406711747057 -0.7612817916798825 0.5792366321172475 -1.1294650499276033
Ni 0.9941970679050687 6.91052164121443 2.726776859107769 0.29532976462110433 0.6207357798022987 4.726208001723318
Ni 6.013890600405612 7.905111517127363 1.3313217348832977 1.1374565527735119 0.24009629806909616 0.16310512812502231
Ni 8.063749836874928 3.1603181221306644 6.227922331319365 1.166582780715507 0.8231294211142984 0.3552860905700784
Ni 2.7571100546293628 9.10850690693513 10.211448195531679 -0.7855229236154342 0.19954305923708213 -0.05377642239050739
Ni 1.4988244220083398 1.1387971776572867 11.841795961658995 -1.086720459871225 1.749075714986523 -0.8741781601609977
Ni 4.904348266762614 6.570583720694161 7.664468914195111 0.5756576565167376 -1.7914099569783601 -0.2529327877121322
Ni 2.431724735543314 1.372966865774228 5.986444543741822 0.7108917692631047 1.6292916182466393 -0.6966427155432582
Ni 6.919818097400556 8.874954488544832 12.534265975637396 -0.5269486213468085 1.120802746266915 -0.9989594530051571
Ni 5.950685921425889 0.02385560442047618 3.24695099300802 0.17752618864635877 -0.7794695183325027 0.8664514809407013
Ni 0.6833035585377347 2.324712611115083 1.4421179097872898 -0.004121478367541289 -0.16578987404603707 -0.06221658273806059
Ni 8.77322656707954 0.3766383467979136 2.587128000768967 -0.4191152692108976 -0.14129034624277603 -0.4925968833398162
Ni 7.017973336508604 7.559057014770347 9.37705664831183 0.7571423155902122 0.3573794827639974 -0.2434166206915808
Ni 1.2490733495794393 0.4178252016796688 7.640309351197121 -0.8212679424255275 0.15519101548426822 1.0190217709726708
Ni 4.7695028892056985 7.940408122405473 11.096173412673556 0.9358576394486656 0.5203236598311233 0.09274457612358866
Ni 1.7527093310914328 7.2411911632634185 8.329097257730373 3.341300510287852 1.100008178119067 1.9070964866101026
Ni 3.421806671937421 3.3192744293131686 1.5220721092737872 0.035754789002106165 0.318928892097283 1.2893830385738956
Ni 2.697506115721732 8.424067010946072 5.936577567143422 -0.012593263283978312 1.5227975537474419 1.836496050683721
P 0.41961341337261393 8.936307358344623 13.273167766659705 -0.5956207299022258 -0.33347130868783215 -0.513928812048373
P 7.208868675759138 4.9569751872448435 0.06160538923341694 -0.7516180433378733 1.1812900050186945 0.4942884121096261
P 2.9568716317716968 7.035509408288269 10.57445236342805 -0.6463213415808869 -1.117440000442269 -1.8945309912402664
P 6.541048299531397 1.8523142187999333 10.586922147163424 -0.897154566451513 -0.3838657019799841 -0.05926392786763987
P 4.699424070088347 4.394418004553173 8.39482900156069 -2.919549089005688 0.8913315320118327 1.0340532113844965
P 7.528361874727221 2.113325787454283 3.0794324065112315 0.08909335252424656 -0.7272588977672184 -0.10062500731292993
P 0.06503497724493873 4.275752575891629 4.078647129088188 0.5069873477335333 -0.20028842204353894 -0.8584419803726635
P 8.763425072026159 4.147631697326489 8.28632046567393 -0.9320853168904271 -2.618634888318271 0.8486669032637706
