# total energy = -340870.8821806371 ev
CRYSTAL
PRIMVEC
9.24244631449012 0.00000000000000 0.00000000000000
0.00000000000000 9.24244631449012 0.00000000000000
0.00000000000000 0.00000000000000 13.52725442204747
PRIMCOORD
 96 1
Ni 6.302350079562008 1.64185585867503 10.135808962705777 -1.2317756724730722 -0.587321208897595 -0.5167369709211295
Ni 1.606937897178803 3.394944556579042 2.599668112243281 -0.19086327207489712 0.20733890113241712 -0.35802071589242207
Ni 3.1912780135586982 5.371718935830774 3.9243916136828854 1.0066352243828598 -1.4928071780329386 -0.6307291435695846
Ni 7.35105347266177 4.306878231780136 9.395015814088413 0.3939624240943538 -1.312997592669042 0.9153420359938172
Ni 5.887881825105468 2.3975274970797473 2.1326389908643244 -0.6898506323220893 1.1641001235029693 -0.4959071786599718
Ni 5.605173882742685 6.120070556896949 0.3530346392449801 0.5153426616767641 0.5933345049712104 -0.5325315147512248
Ni 4.449461448297419 8.609772969276293 4.86475228045993 -1.8292028594564174 -1.4851987695580615 1.3398134273103055
Ni 4.804657895693263 1.9715339122934576 12.722936924033737 1.2432831588920394 0.2765859083546979 1.2938217910715395
Ni 7.15125951457179 5.9506010645743395 11.184617719691472 -0.5420983325040534 0.2527602666900099 -0.3148930314650125
Ni 2.01739493001296 5.083447040895009 6.384918396349381 -0.5492030618696349 -0.714237545806886 -0.2111392487151138
Ni 1.4845679103577214 1.399361799443556 4.349932318608583 -2.1166511644469157 0.5920358407644448 -0.04932507148737311
Ni 3.9759247205951436 8.725590061787997 13.203668896051738 -0.8194429734016467 1.176681816822722 -0.3907233483317658
Ni 1.9541488711144204 7.749328961490625 11.00377170042188 -0.02032919847565531 0.65033046274028 -0.30719643415170317
Ni 7.325230078161913 0.306554377634465 12.127738180884286 -0.15511979592670058 -0.3491213565202632 0.3478286058507687
Ni 0.7059777782732284 8.728852645273484 5.505917405214818 0.33103338867030085 1.2453847786160746 1.1936719236228153
Ni 2.912100685619303 1.1661841259156809 2.641805348415184 0.5510953937963412 -0.8645540068076722 -0.012171088144895169
Ni 0.480918669429918 4.153583020192941 4.494078432767214 0.29604016042456754 1.171809319221769 1.1925882036403332
Ni 6.0703369542470815 8.896806376430032 0.7062929456864155 1.96929070075066 -0.16524557150679284 0.47186556432973575
Ni 4.830795533361694 0.7771686438690036 8.61872797533603 -1.2960059432070516 -1.4445298310837897 -0.33811292122490155
Ni 2.5447873913410985 1.5607441513984581 8.668494850791983 0.01274830080460385 1.2169838588758783 0.171920155313491
Ni 5.613566023832832 2.699182454018302 7.661998936454745 -1.350309441745623 3.0709757523515178 0.06869653403544942
Ni 4.628838842876237 7.791132545357071 7.46596203271845 -1.5110319285710816 0.823390388085169 -1.2511414785941937
Ni 0.9470180007277421 3.458939253614478 10.759077014765774 1.3041805085980442 0.665780478746763 0.1381543717169556
Ni 0.031843923911884786 2.5332250912268104 8.753676007101584 -0.15999409329986639 -0.6756794830280298 -0.6456718809223461
P 2.650465520443232 8.712863213460759 8.924010592382386 0.5628944433137983 -0.05718904761648214 0.7609138668175025
P 5.283019180277759 5.441425464577345 10.038345519728006 0.7158205740232897 -0.36002103415190256 -0.4336445731753241
P 5.233572093458062 0.2014539014157392 11.446641067605194 0.19465616345842604 -0.9327843998399806 -0.6630437965418904
P 2.6895610675922637 2.862052839800862 12.221279129722564 -0.0781553654555041 0.4116552133884265 -0.2519845648662499
P 8.70162439896118 1.5000212802946435 5.77395943405134 -0.11926164857751075 -0.8232338079026467 0.06952931434938993
P 5.231363148831911 0.711494594370925 6.354549566840565 -0.5668079194355916 0.999513525736414 1.1069730394726742
P 1.5618070327039284 8.63118771696998 13.021308039860696 -0.8019437881756188 1.0878903118096104 -2.065294150131179
P 0.25401014711508957 3.239449642811831 0.6902822562475819 0.1993178306001535 0.08124968811011168 0.8091223082019291
Ni 5.585561412045228 0.4379634767751099 3.269252834617213 0.6601029687460115 0.2113372236585328 -1.4984129542554905
Ni 3.6968120897786907 6.8580151836156515 9.762456654123275 0.2572514696921441 1.5591071868117534 -1.774273297298073
Ni 7.737128932593055 8.435229374025829 5.083609707946976 -1.6579835868646928 0.1435943117856043 0.04860567682284533
Ni 3.1659999233807783 1.0128611869900825 11.377394812676123 0.6482260148027674 -1.4824497460580148 -0.37417572838572977
Ni 8.35696434015869 2.935687408154605 3.1079813920159247 -0.1991820763532376 -1.8879440820513678 -0.1131442228258632
Ni 2.544417693495718 5.34205992618509 10.809899377570288 -1.082255482121336 -1.4300316374676147 0.6826674843100887
Ni 5.864461466600587 3.6490563706016115 11.248588386366958 2.439224852385638 0.9989627954392666 0.8382598489978337
Ni 0.609364640339835 6.5029019182350165 -0.05549904054858239 -0.47618578897164443 -0.3771407245513247 1.3865871931307345
Ni 2.9285337548464843 6.828882993399636 13.04273480273436 -0.02286713440616062 -2.1190353484083766 0.2812048951839479
Ni 1.201176026980984 2.6249286417735456 6.3345692467869545 -1.7458628644761802 -0.07952730610236626 1.9554427391239741
Ni 8.202292004097451 2.3275159676107373 11.067850503717139 0.5294824435122558 2.242262409391538 1.4484381649992604
Ni 4.848624211955188 4.459655866383797 5.8060464342965625 0.7265431026471164 0.7936915754691557 -0.4206345340689014
Ni 5.873084668844097 7.666119218941517 9.235110405025809 2.1672653870593575 0.5786321657640293 2.018277157951692
Ni 7.174393357246501 1.2471109842695622 7.706842360854837 2.287811558776247 -2.6000851503405413 -0.09318834852922661
Ni 4.004123423751573 3.007482729727578 10.197506911876783 -1.2163557383735761 0.3982147716128045 -1.1347188421273748
Ni 9.204838621201407 8.507394393444184 3.1747922623885496 0.34684001668525427 -0.6537024645363064 -0.14419466437376458
Ni 0.6208668645542484 1.6360146327180118 12.762504760180244 0.5478303498918242 -0.4713066065024722 0.09133586870152012
Ni 7.365785931800199 7.0715341742153965 2.0647328906247586 2.1615979043609355 2.109862937880489 -1.383869022868623
Ni 8.791331581142858 7.38405824780815 9.116286744786544 -0.5993987088874193 0.4852651255650933 -0.46347605471445985
Ni 0.2704312011622962 5.680148605785934 2.3928360314218637 0.6293284065673161 0.37962338176386234 0.5320543180044901
Ni 1.191221912494103 0.9210522725574137 10.52743636003007 -2.743378385945959 -0.6274754125189773 -1.1770014049456696
Ni 4.216708927291731 1.8822980948646404 4.526232902869219 0.0281450949756483 0.7111247112095173 1.2337489941493591
Ni 6.14136515279089 5.518812466061704 2.6289407876405417 -2.5832595941427705 -2.634951108979791 2.4569973458777103
Ni 8.836157444895294 8.493660118488283 0.6410486699335923 -1.6210823429629695 0.8180790031745846 -0.7503188649104755
P 8.787505208443164 6.252930720080713 4.460625398983309 -0.14340019349692723 0.07045336882555608 -2.822470918503752
P 7.3777826268828095 8.067148956718459 7.421349669471723 -0.48061477127727553 -0.21564150746084151 0.15588752733066058
P 8.208475200561448 0.5748995587041994 10.047598132553277 1.172763455604922 -1.7879978459730173 -1.5561604454786035
P 5.460492630952866 3.64956470513901 3.8871103587100606 0.019304356755566753 0.7095609662668231 -0.6437705501345751
P 6.068396040558833 7.664446336191167 3.7108772443062072 0.6660915822292787 -1.3473791554727053 0.36141225807247435
P 2.2405075797003398 3.731157019614577 8.783827639126239 -0.4798408692257285 0.6094236972235891 -0.4652668280662955
P 7.380222632662322 7.089298155685949 13.038514701829337 -0.25008323407847893 0.8660624730323988 1.1332306876176226
P 7.416887416477975 4.020787554132117 7.232576404152549 0.5143869826317141 -1.1591576918960296 -0.8279954909573481
Ni 6.5724698102895704 5.83408154615641 7.822865559915342 -0.6183281988020707 1.1804433407476833 -0.1327817945511326
Ni 6.568430861328784 2.289862242058691 5.3324976914143125 0.6841664374531184 -0.1924702115507008 0.246584219786285
Ni 2.787604936187281 0.7098207873759629 6.471803859726188 0.8556351070514878 -0.7549638198816546 -0.36629889674081434
Ni 0.7563472612171507 0.018681756371710895 7.928120384984513 -1.1484932702036479 0.6010709543835197 -0.10631125906442981
Ni 0.2734442386021506 4.916362099675106 8.166998799288162 -0.05735976886639153 0.15029280685170246 0.13209762399991443
Ni 1.9013005641172191 4.564788691163994 13.368727893078953 -0.551988852144888 -1.0398060547078738 -0.3032253653190971
Ni 3.3728458678713977 3.1159520775623375 6.896586684068855 0.3062944911627241 -0.9377170612549076 0.6058298092247437
Ni 8.876094054642566 6.754869484754377 6.385526549305032 0.5564851973533449 -0.2725122525059565 3.03700222361955
Ni 1.833849192227472 7.090388764329823 7.817007697555281 0.24949573700612515 -0.7172719617578356 -0.5676828658413772
Ni 4.824279608836855 7.197721291290036 11.751666744649008 1.7711038984311562 -0.4892871022402928 -1.058593619728022
Ni 4.14720573236012 4.63479097818687 1.6368251952440094 -0.13591236976031432 -0.01299975469377761 0.40459676387974836
Ni 4.567774001265445 7.297382587958595 2.255859282729782 -1.4173435004769848 0.38060271495799614 -0.5789849211177577
Ni 4.200793435048083 4.5132990237485675 12.614543364257282 -0.6214135225956136 0.5526889635357063 0.04826937652934913
Ni 1.8610312263091033 8.312554386482308 1.5161345608855705 1.4866167329515105 -1.244238066606141 1.4981435026441876
Ni 0.659562213785655 1.0781683113766203 1.6565337873812658 -0.7950300917749211 2.2430139428455824 0.4936726329024982
Ni 7.356561970557945 4.638829927147656 4.5395845405551505 -0.4066629023801578 0.1515289932516487 0.9268837180848294
Ni 3.0589908820352734 2.6261671295555717 0.9689503254049646 0.3774034912944081 0.04194857651764388 -1.9359964574739044
Ni 1.6550725566473978 6.773086346085522 4.693672754020687 -0.4475660683524228 0.83946415371858 -0.106091686854456
Ni 7.520430540523034 2.200469303045587 0.464310917970794 0.5538112500656075 -1.451966746977809 -1.231263251613028
Ni 5.89646805756444 6.717178789417793 5.671192675481581 0.321912143095323 -0.10062603575419445 -0.4127690152778956
Ni 8.913609143502594 7.564184280523864 11.647601422397349 -0.03354261184213578 1.1716026025276016 -0.8203839971586775
Ni 8.767596979469403 4.63303491342131 12.382348162753505 -0.18491116825652026 -0.4368332553159509 0.1839680876169606
Ni 7.7175904014646735 4.338792398282643 1.4314543451564594 0.33847647521190743 1.2252021330206124 -1.1393725388493023
Ni 3.8177957096795936 5.237574072634311 8.019565147039483 0.5982208865292343 -0.23357160957670098 0.5683935187551565
P 9.57979541843286 5.833166543989093 10.418718390394293 0.03451346039583733 -1.0568969487518896 0.4973966187213047
P 7.60522998380728 0.6697224348213359 2.461175602385138 1.2204101109486079 0.3219347688031423 -1.1299211636284152
P 2.349817990133341 8.762023784450285 3.918534675567438 -0.09216273547818966 -1.309214728587842 0.1362206450293525
P 3.5325830644143554 6.602285941519541 6.053446383936241 0.5455317836656347 -0.7589086634620156 -0.6592383067528711
P 4.348552421400699 0.7692829888270286 1.2098398959874856 0.32774983282302267 1.4671863921410409 0.9510867976935944
P 2.375428808372103 5.946978025689606 1.4310208744327504 0.16691318901720287 0.29054391319668676 1.8564393265748673
P 6.05226797205409 3.9346941683890377 0.11126980901351974 -0.3447270841073095 -0.7165934476335724 -0.021155036811060342
P 2.509786247829661 3.2248188505808812 4.759969744388232 0.6920021314474534 1.8740408417067145 -0.4095669634008301
