# total energy = -381160.57755025284 ev
CRYSTAL
PRIMVEC
9.23180147545368 0.00000000000000 0.00000000000000

0.00000000000000 9.23180147545368 0.00000000000000

0.00000000000000 0.00000000000000 13.51167462412249

PRIMCOORD
 96 1
Ni 1.2742655204365105 1.4234791233258484 7.841797516826042 1.2259148428169209 -1.2765781734997435 -1.5910526293700986
Ni 5.587806170243934 8.698793931381498 6.47006540879906 0.3036879067778125 -1.5049152741503826 0.8841244727404323
Ni 7.585143288323488 2.6580478985774207 11.051468616952999 0.9575839753821637 0.28506849190441225 -1.2788191470151202
Ni 6.722523783653578 7.586343422480241 7.897654530021732 1.6716335735479597 0.5243317525492519 2.330715300118309
Ni 0.3115640588945287 5.831211840836044 8.917488839686046 -0.3580361425113898 -0.09550696936007422 -0.7373203957682786
Ni 7.446130825766558 4.3534589582213 5.953703071955076 1.4863863621082594 -1.0322063879837449 0.26084072970529915
Ni 9.01085650754114 8.602146204557982 3.2398424728277524 -0.470120556614171 0.4123797502592769 -0.7176689400859382
Ni 2.5725152604056882 5.356106423580777 5.041448788102184 -2.190577836533053 -2.9360334598139564 0.608493472099836
Ni 1.2568912705671957 5.039409483215824 10.884815218405786 0.8689259106231229 -1.8323105518474638 -0.7733760038402552
Ni 3.7045833468692684 1.4516084215999197 7.074036615905964 1.1338148422558667 -1.6748685355454895 -1.7449616928181497
Ni 8.464010763115605 5.394815366036695 11.847806558505628 -0.575674368687286 -0.2973941033493008 2.242484038484041
Ni 9.040315185188845 3.063997893000044 8.122840317754076 -0.3179145919001557 2.578146698396237 3.538485610815719
Ni 2.7794553162348907 8.360873080044412 13.095406944339308 -2.217353047744368 -2.2398635701420586 3.1072594172739003
Ni 7.700873148239391 7.465526840099943 13.043697779425383 0.3589383426106851 -0.7308548426485929 -1.8944718558675566
Ni 1.8891681033512007 5.353456896634713 2.0365602718626343 -0.03939521396817087 -0.16370548071318258 -1.7614648326794955
Ni 1.7988164649500402 8.053214073059937 1.9070104055416492 -0.22496895550935447 -0.6917023408188474 -2.0647267076634828
Ni 0.3678595826474943 3.294589823518505 1.719441438182576 0.6142787113230453 -3.3107979708236206 2.671669290336431
Ni 4.418035407655869 8.951182144546852 1.372299863801137 -0.3283476143080216 -0.38464834578227947 0.4913465558724828
Ni 7.094297650012332 0.6342589005028899 5.116074053149266 0.7902198148704713 -1.076554832192133 -2.628051039425848
Ni 4.232070004166243 4.4898126620309595 2.499308000023819 1.1816072791487973 0.2858223393513013 -0.03040252355125732
Ni 5.9249792456833505 2.782280247403865 12.811202251498287 -0.9203230341481763 0.1706888540095512 -0.6163592480011578
Ni 6.673669091672488 5.529101146376255 10.638673241936276 -0.8219320583720877 0.5788124000956354 -0.9408733474957022
Ni 3.3517716001872273 3.5847453354167844 11.230754812270229 -1.2548150707910388 -0.09780913513068962 1.592305270830277
Ni 4.591602502126105 4.5058575325266395 9.658591068264135 0.31527689716699253 0.5309199472897308 -0.6786830457410441
P 0.29860630272206845 4.144857178175054 4.622654588661933 1.3606367918135598 0.010790662857600771 0.9806663111229239
Ni 5.120926287863034 7.26931413727188 13.037887283746453 0.9867665104833909 1.2285293976216327 -0.44192403957529697
P 6.628784074209889 4.781851461375222 0.1309835650482456 -0.39372356861067026 -0.3634498573277934 -1.5483257799255334
Ni 3.196677339929795 2.765062938155049 8.803058817379918 2.1238001167868714 -2.1667989889459003 2.275105166953172
P 4.119885155913367 5.837554088264429 7.287372463610544 0.9795088004797131 -0.45204544428001503 0.8098296186815989
P 2.3375843833205012 8.996473361262504 6.393994443683152 0.6246340864154404 0.6961367224411172 -0.025674521947968685
P 7.415130437317484 7.873230876751668 10.070345096104845 -0.465367872420534 -0.3370394856550647 0.691971278209518
Ni 3.853159955475406 8.099354615486522 7.874063585220432 -0.2534773473616925 -1.461167696750787 -1.6845574806984793
Ni 6.367967226543642 1.4486265498104465 7.023328178242749 -0.07079095467063291 2.447615390442178 1.4760073328667804
Ni 4.3192089757477845 4.30853701355388 0.10009118867327861 -0.36658788873614284 0.9976625885706045 0.03738281152383239
Ni 5.904530806012504 9.183731216920942 11.265290980581126 -0.12922004534180326 -0.36375324750082516 -1.156465232665531
Ni 3.512414172969345 1.230682186943931 3.3706764826964637 0.07892001153567053 2.7386730100504897 -2.848024855713456
Ni 4.5499855422903615 4.555552318417458 5.3518930295104505 -1.450088813228806 1.6646481433690623 2.189110250848591
Ni 1.341149920172528 6.517319306451067 3.7908351423549327 -2.2448407116416758 1.8253297496542564 0.4580505128235144
Ni 4.084296562265009 0.9063920900872076 12.980327926408414 1.9942445424825204 0.9205150955543244 -2.2958755667313038
Ni 2.5271501892803894 6.828966451556448 9.76964317450906 -0.10855377524170336 -1.1691456563466769 -0.31575820767878526
Ni 5.208286822673515 0.46453962077523 8.875805410881618 0.1278434767092508 -0.13718043783946052 0.3894246841250003
Ni 8.673175683035405 2.280448765657808 6.235205616583158 0.3027473972414141 -0.3878732804774804 -3.062440975407629
Ni 0.5046905705794933 4.647057931969344 6.808938058840465 0.09522646200517794 1.9672433313033284 -1.5759121741842343
Ni 3.7433015211263916 7.11702634458101 5.567134320983907 0.8663982591052628 1.812362647970627 0.8117039528861762
Ni 7.235193400015245 5.314360218528152 8.15880833843199 0.36759627539599915 -0.8143686442025329 0.7615458439745465
Ni 0.27203440931141565 7.268427884356123 11.00543424024028 -0.38739762639264247 0.954013484422086 -0.3540709872160547
Ni 8.276715980252343 5.463195317568052 3.5135893812628436 0.06523428651846185 0.324023533011371 -0.07007515955053092
Ni 6.1826388173372155 4.037989847416719 4.1485028164712245 1.668256943766243 -1.4653616802274765 -2.9427532950362933
Ni 2.3658521586126597 1.0199109336143217 0.7965576584213281 -0.25467419588327106 0.9964875944258967 3.7498030369799094
Ni 8.696993730146367 4.90686851330416 1.0042334888066327 -1.7302809508775234 4.639152248454391 -2.026513172708239
Ni 1.3453319261187553 1.5391905196393398 12.528132147025458 -0.5537631704364914 0.5579610105679229 -2.557408180297305
Ni 7.998663359734866 2.0399234170419067 13.231077494859738 1.8617375988593294 0.14414401364148724 1.6074868636667217
Ni 2.4746581676242134 3.30024891765766 2.9988887686359016 -1.4193703010990264 -0.2860583666215073 0.6649163309742548
Ni 4.548434599687787 2.2145429368496052 1.2406257600226975 -0.3025779615430853 0.5881527036599549 0.9013179538005832
Ni 0.09140960281934472 0.016739101946355726 0.3123330679349718 -0.31880702180743803 -0.8240521900388841 1.0832813522826892
Ni 2.151101998963351 8.869997684743051 3.9233170287388797 -0.6869118614087396 0.14669634774969573 2.530882623202951
P 1.900513987033128 4.217492990062285 8.817853701992332 -2.7263952211244016 2.3368352969731174 0.5020397739202709
Ni 1.7264853025026008 1.731738197388701 5.2624054877021536 0.05578702506263296 -0.31119372823655433 -0.6499411977216613
P 0.0533755050315712 3.4291156306894157 12.023809002133955 2.095905447259132 -0.4392560058248306 0.4772970197579522
Ni 8.297441373959362 0.4060552369563693 11.54695508173031 0.7174411403458484 -1.4662440828324297 -0.6441297332462068
P 8.340221540747038 0.32393467251030006 6.911126712747701 -0.41606645508224477 -1.2309482914757703 1.8559359045758874
P 7.418998562022713 7.420134073571027 4.276026302427536 0.10827506765901998 -0.28241511344196524 0.4157530376068839
P 0.6198369806591899 6.826612342248969 0.29443260539692645 0.02406372581742307 0.3040008100325409 0.12229606452846034
Ni 1.0390299939115324 1.4284827595793919 2.755854216452264 -0.24693234715432313 -1.2863151982818493 0.2113199972673522
Ni 0.3676592525613284 8.730883672372856 5.419829854583929 -0.308903646650797 0.6380305623270044 0.5734146261188319
Ni 2.507227962278274 9.154872606351612 9.199734544311195 1.6138745123606204 3.5448141241369076 -0.5168243884286131
Ni 6.419074478018948 0.29107038339777425 13.444791846413755 0.2353454136476721 -0.09174158878037103 1.6645890079963523
Ni 7.589759188926387 7.640681804377578 1.6964311736771205 -0.11797635410718392 0.2791613823913579 0.630889580406849
Ni 3.84148172695007 6.532884123284044 1.1672504808588822 -0.49677929685227995 0.021061191545673406 1.5917820513369554
Ni 4.970909518268791 6.72491482016588 9.360428815180066 0.6505029837624022 0.6564705141997468 0.38391275316783563
Ni 5.438361772324451 6.242867088403853 3.8154674343322474 -1.280834377672936 0.9508636259391947 1.0488131433024908
Ni 4.496681122128075 0.13367094237925387 4.851758352826019 -0.55082517085409 0.36517943842439043 -0.289746614106372
Ni 5.322751925824224 3.7100670367855133 7.647405325195761 0.04039100222253689 -0.4378722381034265 -1.0328201103083439
Ni 6.188574865512545 6.138400025959025 6.156486047701306 -1.5744271049982757 1.444760201927041 -0.30962509819785383
Ni 8.478412372996651 6.836591919352438 6.227489677135352 -1.353148710966631 -0.6524817047553279 -0.2720767076304347
Ni 5.858371799983507 8.448159760445247 3.1247911503004753 0.12028520474601866 0.7128265243919724 0.382314041222148
Ni 1.7779895214297565 3.712125728454407 0.13427470217811316 1.0138939628278023 -0.07267043108153291 -1.6100052592132017
Ni 1.4067880267457629 7.029527332752442 6.705263084939095 2.1462623024451295 -1.1155931770415175 -0.06125036217004935
Ni 2.3425141651643986 5.935503499057962 12.624808492432711 -0.3851808212469818 0.5772782228392962 1.4666672864127774
Ni 3.833228496672085 1.4315384857785116 10.740403075323583 -2.625497419766059 -1.6719863289016883 0.29456306165840884
Ni 7.071744359666564 3.116286815029693 1.7460188706739521 0.03660119616280148 0.8423507312377558 -0.8930168901340555
Ni 6.4843340807427445 5.603481768691381 2.0445457799056506 -0.17467586368175725 -0.43819336888827115 -1.213399998179362
Ni 4.349627760720894 5.666839620366784 11.614432163103741 0.5459794127260146 0.6442922269660001 -0.5722028651989177
Ni 0.7729187082537579 8.16109690195091 8.552484653151504 -3.0039977436690712 -0.28940799982003057 -0.17776427279909388
Ni 8.286113953879847 2.5792914024907447 3.8598123914243057 -0.07117044949723872 -0.40548173758786293 -0.592795858858921
Ni 8.617480226360815 1.0648698054865653 9.135851403147184 -1.8751361316534225 -1.8159033141340342 0.099099571807339
Ni 5.93040754479236 1.774296800947437 3.139396782988171 -0.44208241953003224 -1.0929605272436662 1.3249215978001376
Ni 3.384036745401497 8.481218840563214 11.157021339219629 3.775018359903273 -1.9387385389954157 -1.3752743392210767
P 7.830847677415842 0.9509863058118223 1.8498295520530474 0.27539805869418377 0.04995370621030752 0.24595352818082158
Ni 2.382755586620479 3.3698197715445652 6.793494178603283 0.6628432504953101 1.2605496592819712 -1.1038902867822924
P 1.4399486566769948 9.103156055996724 10.947117875203364 -2.230160483921682 1.3616469782456293 1.2431234933857236
Ni 5.554183950252412 2.4136451934550838 10.249632214602196 0.8791306190702666 1.5227942113133321 -0.8868680969238404
P 7.081262346709743 2.6856232887791442 8.75648345711654 -1.1646133156939622 0.8797728806399558 0.16984321817980427
P 3.4574757239936322 7.359804252691127 3.455218548598814 1.3939708871893153 -1.2798833266135763 -2.2358428790184393
P 4.769406993349804 2.583067209183917 5.184699570592698 0.24413010181883762 -3.113794904399573 -0.008835081793126719
Ni 1.0390853847187673 2.3461976538455125 10.170588609498019 0.853775942355562 0.5881758435884064 0.9595835223106957
