# total energy = -340871.92691927083 ev
CRYSTAL
PRIMVEC
9.20536771968225 0.00000000000000 0.00000000000000
0.00000000000000 9.20536771968225 0.00000000000000
0.00000000000000 0.00000000000000 13.47298615058649
PRIMCOORD
 96 1
Ni 0.10338732622761579 2.561752584635388 4.139198209622351 0.1791524113958721 0.09559490108819022 -0.33296582980632333
Ni 3.229482344818856 2.3332845625501966 11.393242478450468 -1.2721512480766413 0.6143175349807807 -1.3277163869364552
Ni 1.5193275357233003 5.482928752908967 12.466998917022458 -1.952135272017296 1.0133131506236677 0.11662986738161848
Ni 2.176158140495637 1.0681356410263525 2.939818879032552 -2.419362309133756 0.6270992601264812 0.3775937529283433
Ni 3.2021792240845524 8.381432100424425 3.7550158688948194 -1.1576435692443483 -2.479306293787556 1.7193067112542069
Ni 9.09646824545401 6.470066363139252 7.632783475607504 1.4265004843859046 0.34659936142935793 0.6323458532374012
Ni 6.115447981464414 0.11454883461950482 7.0109378709534145 -0.49610206827959724 -0.48831573946595896 -0.09360152480724525
Ni 1.5581097500367258 6.00052817052475 3.629703197770048 0.30911036334496444 0.465249858785431 1.460182192909066
Ni 0.5684075243524364 5.231557775872008 1.6928404329023152 -0.8384678512435818 -0.2066670718763731 -1.3411501438438578
Ni 4.403341634406731 1.8576984433266464 3.3016496663362926 0.9612208008038026 0.7645167536774123 -0.2348679597906213
Ni 5.485349764626136 5.329208316920385 6.139464785913436 2.2495841398639325 0.8362464181122308 -0.300059823106922
Ni 0.4200998445984369 3.9816897648063367 7.82451747770273 -0.17383845538212642 -0.9455136744811911 1.5118821923865187
Ni 5.360239611591774 1.7659393376356363 1.125424326656111 1.0296671665016588 1.7728054545032952 0.2269379063102672
Ni 8.921400561662715 3.2067727025897503 0.13647417951666052 -1.743233140162817 1.2923400643196905 -0.14026370475047456
Ni 7.618702945103394 1.228925799443776 0.815104936184809 0.9692860943104403 -1.246529690853795 -0.6732760157928599
Ni 5.2313000255751225 3.191003907641045 9.667797553528992 2.6609164226953013 0.596752529513824 -0.22602413624674625
Ni 6.4129194401727805 6.438519567874095 4.089428468367434 -0.7760046997123539 0.08060922631263535 -1.416272378899993
Ni 7.324849195919161 7.864808451789706 8.905603230073998 0.2395766781202003 -1.5590606498445343 -1.6408487269566194
Ni 0.7003434575703742 0.31062132653336716 11.087648203243129 -0.6118397628642496 -0.7021520753972618 -0.1466752647037732
Ni 1.136632782423504 1.3738274931317969 -0.2204464646314242 -1.71639030893836 -0.12894827973765535 0.5960344204008767
Ni 4.732645254780377 7.975760749230893 9.811351581379014 -0.05697050384777285 0.5020464587884902 0.6330408224218969
Ni 7.630043958166328 4.890784267286985 11.623293823787952 0.6546928534740337 -0.7917329090808881 -0.15761736553757372
Ni 4.788632301410867 1.8609571435086907 7.6157802408440745 -2.2719424529544745 -0.5423662414534595 1.0821140714474653
Ni 3.2174509291749804 0.646288617629746 9.525320553705239 -0.1531369611687169 -0.5841127292626264 -0.35647599711312156
P 8.042407611711122 8.588083400951861 12.90959944200217 0.11852271352895716 -0.35467931022401494 0.23271260401051533
P 5.794806612139649 0.44851957644031654 4.535788465534565 0.9149843955440822 0.21670980082435579 -0.2883643890468647
P 9.304785717543453 1.8501224256717805 7.03863866357434 -1.0558736496936976 -0.3388472282877648 1.5069505594128563
P 6.275704228552576 6.642814294258584 10.385448943535184 0.8053260743842905 -1.4148207340551309 0.9237842532238995
P 0.4533017649843053 2.5137465918405826 11.343122933221206 0.41674496920650805 0.6757183066857654 1.0853575180854276
P 5.805475633357132 2.823949074141512 6.077543038697172 0.41069182103389273 1.4397810035448946 -2.0209976422066482
P 6.339359346515391 6.5371826993745215 1.7544924628436245 -0.0972172671829616 0.07925605471885061 -0.14283120836733468
P 3.194658438636162 4.549145454133848 11.661772260965764 0.2098598677820579 -0.08475590149115726 -0.20358174808283003
Ni 6.8898311323517385 8.78962572238033 10.915691933749946 -0.5105226145803015 0.2595058129439595 0.9792578608111716
Ni 5.810593817823845 5.444201770802017 8.5627566726726 -2.567972071856081 0.3060996015430987 -0.1808107729349015
Ni 7.213758817961787 4.38742555357409 1.8314907613541036 0.03473457526770792 0.17162884932531733 -0.4204226751684114
Ni 1.2535777742672634 1.9734467373634401 9.414316706204675 0.6396727259161177 1.3037115393814256 -0.5286640613760185
Ni 5.839655163797614 9.097269112447904 13.165910019371573 -0.6347500918035197 -0.38729221116302975 0.44862896239929834
Ni 0.6413214011940649 5.458258367349988 9.88860578911283 2.295199623710202 0.2377499093241067 0.15349537294940016
Ni 0.6811659149453659 8.547487729192497 1.4781344355972266 0.18839321326784975 1.2834882703560153 -0.44643298318924407
Ni 1.2471708383161255 9.000575929645096 7.862834820944988 0.3223482021914771 0.28570921081220474 -0.14129651689036313
Ni 1.1318091697246588 0.35002674424318936 5.237300084271892 -0.38021267860842906 2.272375426726835 0.8738711704435401
Ni 7.8300950100199636 1.5037152320262743 11.99222379069732 0.5316524545803811 0.28257015096259075 -0.5677648840322223
Ni 5.48352710181245 1.7959672472227222 11.908826841066675 0.032708545976614635 0.9875707515522412 -0.5410824896450295
Ni 6.2284162544419495 6.865832738638209 12.606457476762335 -0.16805912969618797 0.09831230001935327 -1.3087462735918556
Ni 7.001713171935259 2.6364265277900305 7.715602328143708 1.8327903196973598 -0.31354243097438905 1.5473060804117673
Ni 3.798254401734029 6.619533919229234 12.335731293502873 -0.3824806487069993 0.5470705889076642 -0.549931198284911
Ni 1.9937813947141068 3.3986770039882748 0.11400940006959578 1.7466408802927855 1.1136766767450947 -0.5214274344182632
Ni 5.058147058274972 5.185669017658757 0.2589562000595715 0.41792253445437705 -1.1629950633642487 1.2060181038929938
Ni 1.483886869901632 7.385300845906408 5.9287069708345586 -0.709552738736707 -0.07556112236576665 0.37086697572747096
Ni 3.936997704400051 4.281324484934987 7.521240193557032 -0.9813913622144066 -1.1642502759275883 0.8601664192629381
Ni 7.869751734269248 1.5207451623561667 5.530917255505055 -1.9695298133446595 0.6184330998110511 0.662501293774859
Ni 4.079183814603035 7.040311278893768 7.826726765961743 0.5764094470810976 1.179967172442213 -2.007002613479137
Ni 8.752251929332026 6.966401381262035 11.406876548618902 -0.12231971867754417 1.4022634662154108 0.29544417871178147
Ni 2.124249071776575 8.731742369994187 12.728778403369693 1.6067227318071877 -2.512466068368976 1.0886243617621574
Ni 5.306535496162264 4.71696851350913 11.290376176037269 -0.2636797418159911 1.1144912022265903 0.695456408544641
Ni 7.062542242000087 2.001118072807579 2.8680078052468803 0.7355725598392364 -1.251480092880535 1.0305701379319028
P 6.547814899121022 1.5592788317404536 9.915780955235464 0.5377071454148934 -0.5632029756931526 -0.17722382691459157
P 3.576432655161369 -0.12042185924138127 7.410829171739303 -0.06663219530725299 0.42287627891522656 -0.27798150315064385
P 1.8874593972491018 6.8663758553352165 0.6561383611178461 0.5881123373403226 -0.13603089761604958 0.0038108891056579525
P 3.6574398913251827 3.226343314417508 1.4305887111897158 0.3226942726769862 -1.8102540862680565 -0.45024387229490204
P 8.694285728636169 4.714160876346634 3.8736988341690024 -0.34326926861486046 0.6058141254954599 -0.4246421125663977
P 4.179375037149279 6.166427308041142 3.997233028245269 -0.43229320135375227 0.09787855491604434 0.34441829461763906
P 3.7610647160406425 0.05258474271160984 2.0519630010152166 2.0052241814224754 0.9712542737804046 -3.297415121758812
P 0.8711895597134053 8.09148142716445 3.8351126941885645 -0.7098975236706354 -0.9194354893369006 -1.5137634685696317
Ni 3.7243168879990582 1.0281475235382156 5.3934921615002445 -0.4942297909575489 0.6448164749005864 0.7466961805562238
Ni 8.172976547818795 3.067762444259098 9.818532688757582 0.5001901223060418 0.4941336316993168 0.7994097088998555
Ni 3.587819695063033 1.3111205280468086 13.417598581595767 -1.5341988536058482 -0.7273977373379279 0.8176234036944049
Ni 7.799965841387672 5.242852762096212 9.109920969877852 0.70929485708963 -0.4001482411900915 0.6924816421870332
Ni 3.4875180081038386 5.778770861526311 9.512022479459528 -0.6153511184516176 -1.8137114486890378 2.5932881820233664
Ni 1.2044671373429516 4.732903005077262 5.859131880874363 0.24669811965632996 -0.24424194480635356 -1.4587146072246038
Ni 8.408523497700573 7.092505714012952 2.4406716210634007 -0.7310381623039925 -0.725952263140653 1.2000464596905913
Ni 8.01890630785587 4.217623340133443 6.0620080600892114 -0.5753010445082674 -0.35962328449285164 -0.35699150329695933
Ni 1.6162416473520078 3.364193696412179 2.5746741593402906 0.6173426949603497 -0.3389192191762808 -0.11947299325736843
Ni 4.2411246439886945 7.350458528988222 1.1094603779111922 0.05586364393683928 0.3125618122286746 0.5590303323727017
Ni 2.1799783681101803 1.965106674185666 7.052300349846012 1.030279089054045 0.8181947028168425 0.2554087600564504
Ni 2.9836806152681583 5.149961396172457 1.8350072118330327 -1.7368454914689184 2.9175171461773233 -1.121435237644591
Ni 8.224894821905602 8.673407954588496 6.694228114192917 1.5616579782580653 -0.8873859171005234 -0.1718157685251428
Ni 4.251103262625237 3.870774288836134 4.982997197607867 -1.9330337753011546 -1.3893081916063235 -0.3845655562604861
Ni 4.70940170122201 8.061738883977485 5.470638666431432 0.49682249138538953 -1.9606103993678428 0.7773113343389193
Ni 8.401720730936361 0.7158278066557321 9.15768302042739 0.22602413624674625 0.03649603804350489 -0.9959690029182652
Ni 8.048989449649431 6.050181924146069 0.21608772300374632 0.9167795397712922 0.3219442818848391 0.43655583328484815
Ni 8.3144446393376 6.492877264413562 5.406480014852918 1.3732724782996995 0.3487758002553864 -1.4019744742200824
Ni 4.807337608670512 4.401785927257675 2.7246415668988737 2.1358580763926702 0.4484088759686923 0.5202979487995103
Ni 6.066825229030634 9.001570109361653 2.293439128262121 -0.2840318231097818 -1.372975258774255 0.39109410140762324
Ni 6.512300590357386 3.7552377182574954 4.062833240412789 1.1818615612514485 0.6655490794622474 1.9643169016851525
Ni 3.232759455736392 5.942939389906476 5.988944135753324 0.3242873281957189 -0.14618238422775467 -1.8966603788784433
Ni 7.875864098452518 8.839251859898411 4.181530013738591 0.10254150760935242 -0.3721900654142687 -0.50795253986028
Ni 2.267097968457263 7.535228670383683 10.68585691455449 0.8334937950677581 -0.1059451339742627 0.18713003028470998
P 6.374772396233821 3.5501605356146055 13.027353585670793 1.1084635079752716 -0.08258640464366422 0.13226243171255286
P 2.1124109688553636 5.78938465053732 7.8661487533335075 -1.1355480228968895 -0.7246196603721584 -0.26454286114723474
P 4.00308303944778 9.145882659513937 11.578158985193088 -0.10854606193221951 -0.15285619670350448 0.39858552468866193
P 0.5724615683077253 7.857094353618653 9.60765336282446 -1.985692539147451 -0.268062444264719 -1.2685465614445184
P 3.392490996863038 2.8581286045819936 9.103845427165565 -3.7167718175565536 -0.9058752341539624 -0.8330255971820878
P 0.15796318998266115 1.6638794254369773 1.9850427391129353 0.16807995563179443 0.6961107542991882 0.02020012909695876
P 6.934145772680444 6.641019247548136 7.023346706674871 -0.09135309509270075 0.9877003351515701 0.11321467105248244
P 2.2250938754327767 2.8296195806729787 4.879753475117088 0.4176595106009775 -0.5307008893003892 -0.09015418968859312
