# total energy = -340867.3813716118 ev
CRYSTAL
PRIMVEC
9.32127090045392 0.00000000000000 0.00000000000000

0.00000000000000 9.32127090045392 0.00000000000000

0.00000000000000 0.00000000000000 13.64262217131666

PRIMCOORD
 96 1
Ni 1.767797646717211 3.796600196655736 10.664546998970154 0.18339241761914868 -0.9957733419676916 0.020104741169675054
Ni 4.056356049592001 7.073819185229917 0.7992607525132839 0.7082728435830189 2.161479119394884 -1.65776992819199
Ni 2.8376558222155692 8.598555374984914 4.0729907894330335 -0.9802389937775184 0.734859850042928 -0.4697577739581135
Ni 0.4137311286350585 8.30336005052808 13.052060012487331 -0.7429536827946559 2.16335756736452 -0.42407132766459227
Ni 1.1147494155938493 8.684152604593903 8.210921008163673 -0.9890221392867871 -0.03604146700458954 -0.49647770645146105
Ni 2.829872561110973 1.9960662469453014 6.902675993001249 0.17706493273922408 -1.2166190193372917 -0.06577858905770607
Ni 9.309759014529323 2.1011728963050933 11.784319647389474 1.1744557557056805 -0.6860320299069474 0.08121137867300852
Ni 3.8425074552666776 2.3207913572456804 0.7445132006908466 -0.7839116132642563 -0.8664825912889529 -1.1381258109263948
Ni 4.103950458214837 1.4908999768092668 3.103928175556892 0.06551427965272588 -0.1665619763253712 -0.42010977191368293
Ni 7.727249588455422 0.30643957340350925 12.004034117419135 -1.0244054038820873 0.47686533153717225 0.8522250529286741
Ni 5.099779101147084 7.911689573457391 3.2360711708255234 -0.42894639636870646 -0.864851226333117 0.8835331190133364
Ni 8.258058674518095 3.627568272259632 0.6699048172090525 -0.3263303267676767 1.7985044019312961 0.9488170278228112
Ni 6.514636150900907 2.0521523332523133 1.3855584314257192 -0.12137483826577163 -0.3725690460202422 2.8013619044392786
Ni 4.821436634267628 0.747383219965224 6.624298105292815 2.405196302046019 -0.7188200229712459 -1.3868227061803085
Ni 8.389339452239211 6.583744052493094 12.285944766754685 0.6111183113171926 -1.6878706042321125 -0.989682141468289
Ni 0.21911790869948902 7.41371000309578 4.501833562263028 -0.19047400705627843 0.6581350463863633 -0.46821202673754847
Ni 8.489515149354297 8.503394521551593 6.602319480911345 1.7876780007397537 0.9012333645065769 0.4274160757671091
Ni 5.09131538727526 3.1559119705918888 6.714407762088313 -0.842807102048884 0.06306401834002043 -1.2638355291220944
Ni 8.483307183012187 9.205948021808501 1.4751218617532789 -0.15341309764823902 -1.2783378365033276 0.30386659844752184
Ni 6.681682644620031 2.7230694404685023 10.48638768622241 -0.42499152548601643 0.40979707713376523 -0.4546522857752428
Ni 3.4751934587544424 4.97490203645454 8.51767564051968 -0.0352164000001329 -1.9454897416763202 1.0636165268639102
Ni 2.73132808638308 0.7980657655987818 9.310311765886812 0.8862654303428349 0.0516236377135627 0.4168619544003466
Ni 7.424401500684967 2.571524220063084 8.003253348495186 0.263927596160739 0.2898044639275009 0.8356386093249029
Ni 7.065765607272587 2.8914209120973786 5.3101993320780725 -1.0481685677399561 -0.8096866653458313 -0.649658633484236
P 4.480921291259242 7.887566124668534 5.226433732178128 -0.3155880006495081 -0.07070148028062016 2.064709995492935
P 2.3712101109160524 6.770523676461834 8.19898418879775 -1.0262933649334196 1.0040270973360514 1.414456665847493
P 0.3143113865805529 5.307923077752632 11.031669909431317 -0.7949701850712632 0.6327801125613425 -0.90317506161398
P 2.46568119031136 3.005811547157982 12.564527722420367 0.3057057085387896 0.005544326856996903 1.0295704930227945
P 8.771651373442818 1.6127476284970284 0.2856466146657575 -0.5937921613339192 -0.5605210579856154 -1.3806767411835708
P 6.000512139541499 4.234886348916947 8.48144106460124 -0.8656986619350768 0.33791288939895353 0.45838732733764276
P 5.459980968051168 3.9111306507780994 11.994906729067493 0.5939238018157771 -0.3979885145346113 -1.691960972251402
P 7.22695834293939 5.70598794658111 0.37999931392210934 0.4285748719619006 0.8162607190189234 0.009366014595932257
Ni 7.399728096919858 5.149340297905333 9.922497410147505 -0.0008641477725081892 0.5598672264517003 0.004123278139754189
Ni 4.759841676927302 4.490065457898294 4.3764307778982685 -0.5737545259567538 -0.5795227958990987 -0.7970098412091112
Ni 1.549083349042667 1.940725862301005 4.666390344555759 -1.3198362128574301 -3.344599235643782 0.06044200733614106
Ni 6.331417252371635 7.8546154324472806 6.443001252799192 -2.1795053807689753 1.188664957326527 -0.6387425007923645
Ni 5.919342513554884 -0.24063419805007508 1.6405529792455438 0.2243338930285169 0.8915811861287934 -2.1289752332299074
Ni 7.194287288841655 3.8906704614073346 2.8307897741561137 -0.5233634750987116 0.2999065853585093 0.49403850088234913
Ni 8.650241821481902 0.48002493857757156 4.44291101325646 0.985035386724897 0.6049864873878419 0.6349161850677388
Ni 4.8912809162517465 1.9887583706506864 8.639408640576798 0.06652600874669189 0.2474195712033868 0.5619685890654192
Ni 5.744578007626653 5.302451491802454 6.448704006264811 2.4983666528531163 -0.0759591291351337 -1.6680417424316436
Ni 1.606782015195302 6.615203341388916 0.11601812893948095 1.4510437209429075 0.705262081781153 1.4007107770163103
Ni 1.380573415810464 8.09634394768739 1.8985210124454477 0.12728837553672917 0.32691705250908215 0.18241899796228583
Ni 0.4638152486842868 2.537622758221867 7.027778632446766 -1.7154006913315811 -1.2055051688123173 1.0196048971696505
Ni 5.292580266042254 6.525448825010287 8.195682594686074 0.39357495884794796 0.5131022023820195 1.9927175643150323
Ni 0.4974752896121996 1.4802550855739987 9.33834735202369 -0.773543639766371 1.0303765338638577 -0.03221283728711872
Ni 4.008687070802893 7.819054784406521 9.723110767443476 -0.44813119682727337 -0.02131341676579555 0.6359880779756789
Ni 1.7498635217288963 7.1421347788054685 10.571900092267265 0.2574756698878082 0.35360150377880395 0.39337955500769023
Ni 1.5218372745411883 1.1250307772685433 2.5230256481742055 1.3156003203992117 -1.4569922252168586 -0.43461619305997407
Ni 9.108018750952349 8.657503091422598 10.421953469801295 -0.05632027185828365 -0.35203647328452925 -0.185528490125545
Ni 3.0683386315767023 6.326700689354957 2.677050326608154 -1.2264871703806233 -0.1484585818564411 2.315331875683703
Ni 5.475799164571526 0.586712475462321 10.456292099242278 0.29781910670186124 -0.13614376904483005 1.1311686628822712
Ni 1.1093617210807276 2.8430528379994744 1.0959605300746462 1.7012593668341927 0.303099124153878 -0.8918125854133092
Ni 3.0000789656258546 5.484206950818647 11.823514658908893 -1.5230940019419381 -3.307642970134407 1.214755997986624
Ni 7.191090092962761 8.029463829812567 8.87642152492731 1.6016738565293707 -0.2901970713802292 0.22325480103172518
Ni 3.2676180796667156 8.66244336493809 7.486948159772333 0.8576068860658779 -0.8483277747567971 -1.1184206191879835
P 3.534747057793083 9.08922706905191 1.7012754656404914 -0.4571904788160642 0.04168992353961853 0.7583553620617068
P 2.2733740527677395 5.556129876187586 5.020157738237684 0.40732161901007913 2.7168255751580954 -2.8047061383211633
P 7.598755870698705 8.227736580657915 3.343424246444247 -0.4191152692108976 0.025450835972936816 -0.47221960523504486
P 4.839874107878276 3.5428192782919816 2.189900208643333 -0.1849258235445396 0.034367935956908555 1.4318892595016435
P 5.41080194339506 8.998037076972553 8.570595291141386 -2.10246587408547 0.5535559395216918 -1.9971300915604315
P 7.673531104927531 0.898618042053537 9.860355294212162 0.4959313470296878 0.07539760020470887 -0.5250742871422311
P 7.3954123485468894 1.093142709916659 6.483396843995585 -0.6910647072348485 -1.0314258010639785 -1.143076984284083
P 1.6018883480337296 9.337396582403729 11.316828089507997 -0.9566686626567459 -0.5773784958625863 -0.3417726294646759
Ni 4.009572591527369 2.9297779413733225 10.66753446625641 0.6939440856651726 1.4279297606332635 -0.6487554049436762
Ni 3.299384970498409 1.1256553024110678 11.653868462768127 0.862925470065314 0.5417828581461637 0.7372190943037239
Ni 7.009530380633032 7.903365678647325 -0.25909683909183984 -0.08297978342734096 -0.3821055247557677 2.0886598214403125
Ni 6.307452265186106 7.315678198261003 11.11914630723035 -0.05615032193932265 0.2540111083779754 -0.43325890770113124
Ni 6.164212297049184 1.9856916725627678 12.964815714330816 -0.5067176390119144 -0.2428818312340333 -2.9810827867441114
Ni 3.5439564733276234 6.088933714198024 6.486575397332912 0.7284143515279004 1.0831535684555733 -0.2910874444049825
Ni 8.720850447670305 2.039633866589472 2.5474184816887178 -0.6367414112019356 0.2963036984985994 1.352168863551865
Ni 8.028522381463388 3.9358599821679117 12.074757395238178 -0.7179458478964088 1.7322768982616297 -0.6564466029403468
Ni 1.0281641312817609 4.6821488849431 13.084447699953234 -1.0161071684290373 -2.4258458599755706 -1.1080367048504982
Ni 5.504089221400807 5.747868416213386 2.2342517471604335 0.8502576447896582 -0.3564721404583796 0.3728680653178998
Ni 5.658039329668483 4.242846714166439 0.33414145804632284 0.760752915759606 0.10922946115248929 0.4803597178436759
Ni 0.05160069080577656 6.675884814192415 8.994621763357314 -0.967451612204863 -0.5394871201334516 -0.11616629748163866
Ni 6.319532632122103 0.7962462535417553 3.8531402288499264 0.23088172144936364 0.05347277510715952 0.26609632167728364
Ni 2.7824552566330323 9.028974374704474 13.258213897780507 -0.5387358437897238 -1.5964429471477344 1.7306830714119483
Ni 5.077948684971079 8.847125702980442 12.579452009072545 -0.18302140743297513 0.3830141526129662 0.47050390809551873
Ni 2.426084432021151 3.686655807759075 3.049630841113319 0.8274241918349104 0.14322073049626946 -0.21293927803833002
Ni 0.5605691072945835 5.179336147288076 3.892308208684074 -0.8019856971571477 -1.0855493223812593 0.16703994440305425
Ni 1.804747164104779 3.8345843751003224 5.879151990315738 -0.11922925267767852 1.0203104078771073 0.6000371138023666
Ni 3.375670250594235 4.9029511472732485 0.8754984941281121 -0.9897649309900824 -1.8806583470232323 -0.5488407934342096
Ni 8.435600919139944 4.606348310928039 5.999534338236263 -0.5004153509429705 0.5974981494305968 0.3580014326187125
Ni 0.7011534453851581 6.1631030658258945 6.72320704170836 0.9956648414142854 0.654337269906828 -0.3816987762356523
Ni 4.9108276210856845 5.333211685389481 10.478256741717573 0.8389363062395682 0.14149937692978856 -0.6706344644049547
Ni 0.23747988001678721 4.321993624392937 9.013598938546352 -0.3818260458421359 -0.9686392047550607 -1.2626736476035092
Ni 8.430390328771717 6.341698614046329 2.2395863104300866 -0.2203535682245302 0.22415957223418168 -0.35158627312098806
P 1.0329086581107902 4.975778235908231 1.8076199797603916 0.2929342678057342 0.6932861403661995 -1.5836859045923821
P 6.821277995880428 5.408052168513796 4.281027571424566 -0.12720275780145834 0.1873935683587418 0.6979125833946174
P 7.772989064192251 6.509500130698952 7.178051499390175 1.0469879171682936 -1.4200423874653865 0.9651877558713507
P 2.464832954670021 2.9204193855062393 8.748317436289362 -0.8183337994978681 0.2326655528226638 0.46819737144952916
P 3.94645826704926 7.148146998461115 11.811481830453896 2.080673460800726 2.9316350736359444 0.38727704165437815
P 3.431924119775358 2.6808813689003563 4.797400805424141 2.9815736103376005 0.241077688145759 1.7926628555488546
P 9.096954402531802 3.0080766159584815 4.629241351973414 -0.36657169078622676 0.354091556041345 -0.5161337901194918
P 1.2246565194073742 8.915021839370715 5.804689950785251 0.4085441785632706 0.6683042736098813 -0.19794923238740103
