# total energy = -340865.2648862294 ev
CRYSTAL
PRIMVEC
9.28948984111841 0.00000000000000 0.00000000000000

0.00000000000000 9.28948984111841 0.00000000000000

0.00000000000000 0.00000000000000 13.59610737850459

PRIMCOORD
 96 1
Ni 2.6709141614490717 5.210289144663173 1.466502987041126 -1.1635036275695512 -0.2544227419940973 -0.022729580387031822
Ni 3.1530479813341867 7.50529480424386 2.2545740833554118 -0.49740818868553055 1.8108693512545524 0.32098191797156983
Ni 1.6138630956752478 5.335790154405719 8.63011548632966 -0.0002990192976575495 -0.2630567635200115 0.5477064227194504
Ni 5.6418602705417245 1.4281011643783048 8.647763659409518 -1.1369335903905065 -1.81917838534088 -0.17688109886319212
Ni 2.5226631907250674 1.2280334184993098 8.442285714561311 -0.39969624125433745 0.4949101048540251 0.11511471628867273
Ni 3.622938253414663 0.1241140888872865 0.34649797656528375 1.4198120166221355 1.2195778448552999 0.981400103965155
Ni 3.828756193596444 0.36793254576439194 3.98036903074723 0.5329881426726691 -0.2612279378413888 1.2003115404265199
Ni 4.581994489301431 6.487491833670795 9.1369379837568 0.43309281443691217 -0.9264170628610561 -0.8611192700945105
Ni 5.890837181209358 0.6088238843461697 13.299616971321305 2.3645389335359726 -0.6377629104879144 2.1353672527991807
Ni 8.692761019964065 7.691809184229858 10.926253534739926 1.5163901075592012 -0.061287128945255745 1.369324806505861
Ni 7.376412420145555 0.42335735883085596 1.67834423253135 0.04327218042507386 0.7301981829012005 2.8114074616007385
Ni 1.1537360775725232 4.005563056544622 3.671900368296235 0.7291283468757894 0.04320250352940302 0.31323929791167343
Ni 3.3417175229974823 3.697142699441566 8.531639460861207 0.5895804372454169 -0.5963077286669215 -0.272933142093459
Ni 7.675320339500545 3.4517794003793987 9.336365683775599 -0.404529915197555 1.4474794006304168 -0.38848725991239547
Ni 6.485215908623649 7.836335069468537 10.24899026185362 -2.05881882681948 -2.3880161907223068 1.2578700555672788
Ni 1.7586769551035644 5.852332245207665 11.316774404359977 0.008469985144224123 -0.8636664619963964 -1.1201746257646128
Ni 5.11406860736389 7.994544373460046 6.464786462241281 3.6869876443155856 1.5469268426954779 -0.3732233917747895
Ni 4.446655909661227 2.668526762522067 0.14794070175839366 0.45800269030471447 0.4582801123358172 1.1694032808834376
Ni 2.405290484722323 2.751732724347677 1.7449377994108017 -1.0259727483692072 0.4119997412120388 -0.5615412717200134
Ni 7.831755350904282 2.0880544016203277 7.4562685918813685 -0.42272021295333645 -0.5798992054019109 -1.9745609480106638
Ni 1.622558058304339 3.6928788235369154 12.833787135314735 -0.012481420296462375 -0.049001369599367225 0.5660000788223155
Ni 1.512746997152108 8.929457224867106 1.0305165665711142 -0.2891053809779473 -0.8409042285992163 0.7918501513850427
Ni 7.9769129214621675 7.5529870458440245 3.834741411995935 -0.08719742105311434 0.7921638259707197 -0.06104441680683035
Ni 0.5421216304338543 2.6569706369765655 8.464202408290815 1.6044884431600304 -0.6559192696819672 2.0088388953569276
P 9.110918122299445 3.2511264166311378 5.5424125644204905 0.2990987447452333 -0.7564157218368328 -0.17706570407017247
P 6.572509246044132 5.647183148305046 3.357368455729847 -0.9036836258192823 0.5314956172875427 -0.7525107303554718
P 3.3448759495935194 5.5872009114503 7.279410636738254 -0.11633727584186415 -0.5117778271436413 2.5202498260794535
P 0.5449670012172846 4.359158203461002 1.275500854441757 -0.18302115032265898 -0.46123328142687015 0.4882959419716171
P 2.208557665749144 3.7218713217905415 10.36825523696699 -0.7374065277241816 0.34966565905950747 0.3928277962692783
P 6.629927583662094 2.3853459497173457 1.3319205718859728 -0.5247238457813479 1.275685229371829 0.08950909990542649
P 1.6760283626772554 1.4817386795710112 13.460078976634989 -0.1585607032874495 1.7707352022378278 1.2770584555702718
P 3.5865141631703605 3.0663120133130057 4.072931366889101 -0.49993044088675187 -1.413377059630069 -0.20924434568524605
Ni 7.722222974451701 0.2480749011897653 9.579001588577187 0.7042799203735419 1.9843018294475119 -0.46691104853793786
Ni 5.6738997215115266 1.1976289177674553 6.015788253144594 0.2321598168308389 -0.11474164921997013 1.2011034402001959
Ni 8.076988597106613 8.589963523753035 6.745192504386483 -1.0433022407865904 -0.43822653611905166 -0.7741568478703377
Ni 6.711600779639627 1.6612394946158093 3.884571165242418 -1.288348426661794 0.32937348446937464 -0.9304920042613781
Ni 6.249866679768919 6.013068290476006 5.533194603505056 -0.6969553616876707 0.1631238971780997 0.823300399474524
Ni 4.3429944908812805 6.2027132285880775 11.409527175046609 1.475584129286433 -1.8235194359183953 1.2313239296476342
Ni 3.231711382555496 7.169358977795325 5.988337810229033 -2.581141519358503 0.671406823794605 -1.648853342428651
Ni 2.350463914811109 1.772193163036607 11.39469371743322 1.4944022904342005 1.2718360308290677 -0.1891231494553388
Ni 1.142811637346229 7.460120014430536 7.297819619048157 -0.2618419172763039 0.6589878813049618 0.4351029028884055
Ni 2.9300259056939906 7.764332232568871 10.739089819403741 -1.7366480307461318 0.6772789663046659 -2.42666012834675
Ni 1.7716172146573295 3.735025239614038 6.630590853247263 -0.7390939427289335 0.16155603847034758 -0.3851921341008914
Ni 8.20091039355114 5.134440458908332 4.709515034167444 1.3670861469833295 -1.3495216557370047 -0.9907550628174936
Ni 8.338896477838023 6.938134282495419 8.679197435632082 2.958075012995028 2.638057001598624 0.8071775257707324
Ni 8.339491005197278 3.182402769697359 2.906032082003093 -1.8709174655863843 1.7325160108556292 0.24283426582554954
Ni 5.150483408118205 4.452796262543523 9.893602243369491 1.7100060026785713 -0.9265654155134624 -0.45996238513424653
Ni 1.0434884103908397 5.819995530558235 5.544424667951966 0.34549558684221787 0.07716369096619613 0.3025458227535693
Ni 0.03585557345701561 4.197818341343418 10.700463191083204 0.3238831507787648 0.021704481556627134 0.5979442358290799
Ni 3.426586303531006 7.084462328791836 13.491104944247063 -1.2096400169162975 -0.7271874210993347 -0.3963072701774465
Ni 3.9200811696718674 0.5025539767774959 10.073886162420305 0.7179286215052281 0.6225190969549665 0.9319107389857757
Ni 0.8742125369762133 6.483330142156016 3.205853158223938 -0.07536237609139924 0.7524058293464914 -0.5290042183242567
Ni 6.45001803105781 2.27836818301156 10.596874230325165 -0.8973923934939319 -1.4588922704530487 2.636414066678563
Ni 6.861468121621605 4.334494607541944 11.908001207821226 -1.5064571647162055 -0.7592236235992731 -1.970042234204704
Ni 8.69441454918199 0.8556707149594758 13.57699185288331 1.256578590449365 -0.029643276787729596 -1.1616359782331929
Ni 8.253442459435234 5.903591650963356 1.8958409195264785 -0.0739734661636726 -0.6190416799293275 -0.24293453884883967
P 1.1640009640096447 6.745117259517579 13.08685142157724 -0.4729503127534822 1.4962858806101584 1.4454325454037171
P 4.818495614914718 1.646868653603839 11.9685175903503 -1.1433832026705921 -0.26075691174224125 -3.2948509605760607
P 6.483460195015852 8.99175254472895 4.78744735252667 0.6079625392970304 -1.1384505412556654 -0.14165467156073022
P 5.958678326594244 3.233690043923014 7.789930351180756 -0.6617821562206473 2.5390507608360404 -1.2565055711195843
P 1.1240097096098176 7.246248086428859 9.481122877314986 0.4395228863329721 0.8058366954721218 1.2263377892869525
P 8.280121874681761 6.332190140045636 6.531339155364784 0.1977188615441498 0.50458542316026 -0.11480669812995067
P 5.214952468637323 9.008798758857564 2.3209233366481703 -1.3682588271351919 -0.1831867293662458 -0.4377205430169107
P 7.534408065867334 5.661126672777552 10.423415299568788 0.30042569108677286 0.10647966632149404 -0.7183297135983887
Ni 3.576147092343367 4.870377416499626 5.32777053769878 0.5216336368917983 -0.9589052652967485 -0.5230379734384928
Ni 6.60182687644735 7.693295502627994 1.21685816204333 -1.8288565318605923 -1.5465488905307687 0.1429330240525216
Ni 0.24624301376406357 1.6455681250054708 2.030061973521085 1.0802245677342361 -0.731846774248217 -0.7561259585105559
Ni 4.4295168006327295 1.9370072944098313 2.2625556131533986 0.9586417272227169 -2.3845752833615577 0.8079321445485699
Ni 4.672418384847985 8.486543631712786 11.876621310640594 1.1457815276994396 0.3019598683431122 0.831718191224574
Ni 6.879489732198994 5.606327971336302 8.200506300736647 -4.2758689986114495 -3.2064245522118524 -0.9336467478402758
Ni 8.535508533441353 2.9923490940258 12.984173759787058 0.010340976914691869 1.4507858392958304 0.2104105980792054
Ni 5.508732589518745 3.506949681420182 5.505404165255922 1.2055079970257947 0.19205934926552728 0.2231478431402157
Ni 8.307785975867054 5.889016441171641 12.72055939974479 1.009462666529326 0.4803252650613147 0.32186740590031665
Ni 0.7876716482447874 0.6734573688380806 10.170744887681787 -0.03991303414485384 -1.1766872161393604 -0.8946287147058658
Ni 1.7427269007935753 1.4377250760062306 3.916930174667821 0.2565079066579002 0.862242070845044 0.18597303386213135
Ni 4.892254165422179 6.1349371096331105 1.7303625896190875 1.228322166706833 -1.0986619485038176 0.3114418396916185
Ni 1.1966535213186789 8.429255346954658 4.987038547569263 0.3604509226004695 -0.03624664103686016 -0.725332370168467
Ni 8.632007755440286 7.9874379136189635 0.4338015324247527 1.443266905210966 -1.8677424102925124 -0.8059325976200378
Ni 8.888239757788817 4.467510814685062 7.647552196027383 -0.04323027144354491 1.22852425541531 -2.1794385320867824
Ni 3.6658835656307835 2.3596233519396175 6.451121622468425 -0.3104735622410782 0.0342352670337862 -0.5545347584951934
Ni 8.746379956176794 0.8956155219093611 4.765327218966421 -0.7858461112828078 -0.10931147934333432 -0.9833546565883645
Ni 6.721763481686878 4.546248531826278 0.5157877842148928 -1.04609291615785 -0.690165849569663 1.7125477952638184
Ni 5.4906459525114375 3.7393541419486076 3.0481789288557555 1.0463394849510173 1.357951788782229 -0.24620163963588565
Ni 3.727222068023828 8.22241556287416 8.248214334469793 -1.5833629740353248 1.7073526242161243 0.5797454534328661
Ni 1.854786018522986 8.986225298185884 12.407386539563696 -0.7665553813739959 -2.043998988197828 -1.7228136959662006
Ni 3.941772128794654 3.747770419878049 11.773617587751822 -0.18360607629185152 0.22659929202392587 -1.2053832985224724
Ni 0.9972546187188447 1.3047367373330776 6.378967366881949 1.4599855035172273 0.21964831462738948 -0.10977864878773998
Ni 4.831714559168132 7.338306932213363 4.0746991568338835 0.9216001010883871 0.27333217730409054 -0.5391058255346328
P 4.316119996344997 4.862760034709183 13.576461423004975 0.6020407744959567 1.0968441785687884 0.26182700487796845
P 8.548151529315492 1.2084976210538192 11.519968063620052 -1.1361578885667465 0.5442194926121144 -0.7084273668830122
P 6.12763557050227 8.560766656719665 8.31377491006254 -0.6986602601939192 -0.2092785413572912 -0.7943338370388449
P 6.563823572905029 7.469511688808753 12.648621589275043 0.30968654756340863 0.5748032789362424 -0.22756808369509837
P -0.010032649187413041 0.4700546960532695 8.031465451418727 1.326541649902064 0.19957982601228855 1.2165128327767307
P 0.5006802866468467 8.952755265757876 2.7910765012953163 -1.1911987794919743 -1.1397309506299855 2.8914937255303688
P 3.140432853930014 0.31715898033509243 6.664281975536994 -0.20723759966786245 -1.2780061641955216 -1.851938610491036
P 2.8456030206799077 6.144514573811095 3.876427069369636 -0.3564554282878312 0.7988373813361532 -0.6867372835040882
