# total energy = -340891.6425524778 ev
CRYSTAL
PRIMVEC
9.07769595491552 0.00000000000000 0.00000000000000
0.00000000000000 9.07769595491552 0.00000000000000
0.00000000000000 0.00000000000000 13.28612561759086
PRIMCOORD
 96 1
Ni 6.613818533160204 2.0893133891775904 11.560137875963001 -0.27787454525913435 -0.2940244155461194 -0.5760248100481693
Ni 4.501574884374854 0.37116337952745626 5.963995309914874 0.11262460287696732 -1.022606917220768 -0.47533783914905237
Ni 2.379908587342133 1.6498167466955103 4.906127844618568 0.09571882826056419 -0.1759914971693872 -0.7447339146235303
Ni 3.489983696762016 4.380496577704896 5.060273473803643 -0.384491508489441 -0.4129271381223147 -0.17861556505579562
Ni 5.264600605408237 4.652173857808247 2.376954705126628 0.0461045076675464 -0.14206861916969726 1.4551641708691843
Ni 7.168166182988836 6.314880932549292 2.5671986994566853 1.1173829219520885 -1.0249417360015314 0.5004860562799058
Ni 5.233191777917005 4.470737951719445 11.855369053376032 -0.12883052321286845 -0.905630465133008 -1.5794739233935637
Ni 5.469220946587387 7.958070961305901 12.522757618007356 1.8382762825125953 -0.45346546455599324 -0.12985947869801506
Ni 2.0161199278880515 6.734025381032717 0.33199766096938677 -0.02038242031109393 -1.3166614146738744 0.006810595163930205
Ni 2.881814388495375 1.7029303448605968 0.35290087110350815 -0.05851830795086695 -1.2413651159337202 1.0355133408697907
Ni 0.6301890749849883 8.874482508385336 4.407260348251833 0.24235989729229226 0.5232194933216796 1.051313798237157
Ni 8.751761138774365 2.329636307964549 1.2205325119959842 -0.03545808369729378 0.7502183347768693 0.9402022895706065
Ni 6.907536458682258 0.7276463093962939 4.91748767315109 -0.7671117680980981 -1.2338294696783074 -1.6838877083249644
Ni 0.7169700313580171 7.367230974334277 2.3700193455302987 0.4209978309455911 -0.6821581487738381 0.15902555873901
Ni 7.417839128456711 4.094966733800501 4.008862065765071 0.8116574159189569 -0.4423464718246963 -0.7772956506096356
Ni 7.6712339292053375 3.9948579044440535 12.622310892380431 2.039085610056611 -1.3440945711841623 1.095037721487669
Ni 8.22461026558265 8.815041756242971 6.8119292586763605 -1.9938856164812047 1.3835954574922624 0.6410114993321993
Ni 7.0416684919222705 0.6017713482620687 0.15485278168841907 -0.7067443227536344 0.29467747574908604 1.0954591252958037
Ni 1.6795371227666933 6.48372607455418 9.605310550161885 1.1854287097774165 0.915721530820423 -2.068374074608083
Ni 9.331417404512115 5.016543489793958 1.2609927099760914 -0.3537539701962682 -0.010106235196066465 0.33011601906235405
Ni 6.396117232323579 1.7920370068993057 6.9233997321044916 0.2492021170251063 0.6299282449348441 0.9996492799833299
Ni 3.6321585684867777 4.167996796565518 0.4597335497439885 -0.6196857412712296 0.7732423064758683 0.47680208239940464
Ni 5.897089060741066 5.672670265007471 4.826331267399224 -0.3614351408906098 0.6588341293359169 0.18917508573919678
Ni 5.402772213282237 2.658657392478914 9.36562851669888 -0.4235378237586254 1.4427264593264637 0.18980346335181505
P 0.421018084897932 5.709316922979178 12.431163667317607 -1.6793646236436304 -1.7786346595905627 0.7029167214774281
P 4.035525981658134 6.069519892589606 12.598382086233931 -0.5620536925800578 0.8963151012693532 0.9709262010170248
P 2.452021802830673 8.570479553514277 1.4503398279604445 0.7647334976739087 -0.7525189578855878 -1.4766745341371341
P 6.176800101633358 7.760649232901474 5.857533909032888 0.5259559184162361 -0.20417258758929352 0.008934583485468484
P 4.817324377619802 1.5009606908570068 12.618006249028888 0.08139906920378238 -2.7255997218062995 -0.05908986418362081
P 3.8158275877440313 6.233753565124684 8.391689795753132 0.6529948969463206 -0.18413418088117964 -0.3295310930931615
P 4.818322924158541 1.012671433413837 3.6391756273453684 0.008729666563513998 -0.06324039601688464 1.1435462106110177
P 0.2235364437011819 5.740870993603316 3.73361362013136 -0.35826214247926685 -0.8429852794979611 -0.474855243085679
Ni 1.1764693765501921 0.850698107134631 2.3287385238492644 1.2725132594017505 2.308161840297825 0.17748736498862336
Ni 2.012325451040845 6.598568004204925 4.783696053503828 -1.5475148539884638 -0.42392477478439894 -0.652669909506734
Ni 5.843739442485004 5.579070143544438 9.335974407807086 0.4389451594526312 -0.11605059783938079 -0.12138383712683612
Ni 8.617610950142739 2.160591456651912 10.114727236825603 1.0272467299856245 0.8986355218724137 0.5952857151603101
Ni 2.287025603847831 5.27409587522206 7.157966483980411 -0.7103970890148733 0.5765182047448201 -0.04905202033164455
Ni 0.6534651948029848 8.93163568118441 9.26939767899106 -0.6756488869004106 0.16698312302318982 -0.2947985747079826
Ni 1.622647203146014 1.1005072180396058 11.683101620052012 -0.24025647779604428 1.1674356156341055 -1.3828403244937926
Ni 4.033392723143557 6.880530313657282 1.708582118269857 0.41380516985189386 -0.2794688863294477 -0.14829017459937685
Ni 5.738156762557109 7.7758997618567545 8.127521585621096 0.10494446062389022 0.23735473076821703 -0.515582545601712
Ni 5.331684777419857 2.8796538968933767 4.7812114881615315 0.5673797327786616 -0.4508683932527784 0.5158244864091891
Ni 0.7241159934970627 7.360023283863746 6.834130579310842 1.5379431511396287 -0.25940605414130163 -0.2630927589642694
Ni 4.714719181916509 4.551493133615977 7.224569538114276 0.9480307844760899 0.18949313120024786 -0.014591781771245838
Ni 7.995189659459555 7.1212435733639285 9.216027182034646 0.4046828958356514 0.47487452635938854 0.26020772410699056
Ni 4.591525772123587 0.4817006658266567 10.466929125351994 -0.13722928879952498 -0.43959307744927517 0.8242632776084257
Ni 8.148766117117551 7.343583576757785 4.821017184273974 -1.415748130965407 -1.237122281496966 -0.0786670149846
Ni 7.124084892151431 5.95247208285783 7.107971074324931 0.33790131943472773 0.19270572460027455 -0.4762071291278831
Ni 2.2387231844603033 5.164873039275672 2.6876905869775287 0.6043095159254754 -0.304298800888934 -0.2673170814582622
Ni 2.2966025729239146 5.223905295106736 11.458565722042511 0.5892670197700561 -0.3628821577497815 0.49471161568997385
Ni 0.9185720386814349 3.3630684316883417 3.8085073338454967 -0.1552835751980745 0.08856267683175714 -0.6589434012202716
Ni 3.8826666619688694 2.7740530615738677 2.9570530546501663 -1.4734172035421012 0.36716458717521927 -1.3066605947074206
Ni 1.1077512192933638 3.3181429151409114 8.095754189145499 -1.081269206948667 -0.04077049704914269 0.775199173091923
Ni 3.6496875990895434 2.467662672705642 6.73431223622021 0.28108868132105785 0.21931998475369324 1.243154346623659
Ni 3.9033638084081788 6.8085804966932635 6.015997798113218 1.7673138352611046 1.06436831742827 1.1698889622706046
Ni 0.76414409315677 7.510304537943903 11.542999186279923 -0.331769495505377 1.2679989164711647 -0.7942528472892644
P 0.24816060134647552 5.7767732805188725 8.076888013950406 -1.0163935893212044 -1.9372498702650311 0.5306520383403248
P 8.591040534516484 1.5677271435153917 8.000957627375142 -0.3043777337559855 -0.30600318517455044 -0.2847291062871225
P 1.8705227648441587 3.334373835243317 10.202814473625217 -0.7034011173130144 0.008267896435747052 0.9496261539876678
P 3.9452664522519725 6.058027529698306 3.8485917152192055 0.5420029445767698 0.6934892575159411 -1.347218461525125
P 6.854459171300398 3.9551702183770976 10.453550417272057 1.1096564998421083 0.12202275626241564 -0.9304567801480685
P 6.220772460121083 7.757272330061377 10.347035457984813 0.7520523026618146 0.04678816399813233 0.5335473576102489
P 2.362334168260334 8.568772946702614 5.74898645365452 0.41259289471134747 0.10623926817591381 0.9705567334927478
P 7.386094426220629 4.030043053390878 1.5663010375041568 -1.7171927502349973 0.7652148081857014 1.0832646401121409
Ni 5.6839719962868305 2.9238895085594963 0.559959481376342 0.10105026777580661 0.7597378442315302 0.12909123307342285
Ni 1.5485187391883837 0.9707234010910094 7.178984980851278 -0.7457968086704058 -0.20035244251225495 -0.7603412821434841
Ni 6.843257294674912 0.7330548005579344 9.268613366073362 0.1384078824886584 -0.9323843361880846 -0.6740236925921617
Ni 2.743778946058475 1.6444245953863221 9.106084484810784 0.3931725812032067 -0.2054720231270074 0.9422463165838288
Ni 6.498804127289133 1.9172184320738979 2.4783008244215305 0.9183324860807087 -0.016419836118920107 1.1074736332581765
Ni 4.161542554846944 6.93518712010951 10.511504242841283 -0.5958019926750966 0.498240968999471 0.115117287391834
Ni 8.091740032059771 7.3007550079417065 0.38144205448939905 0.435579842524824 -1.0525960073836904 -1.0855423804027242
Ni 7.655166407627452 3.8098998523822463 8.27036094467891 0.033968129415328605 -0.1659423404635013 0.04716405928031232
Ni 3.3033462709759673 8.397603914571208 12.499228230476351 -1.5346534246447636 1.082205088499375 0.044249199626362506
Ni -0.01926650158017074 4.833600686201241 10.286649717708967 0.43236210691847476 -0.8487805460234996 -0.4258986106813181
Ni 8.626243838854924 2.206933093745189 5.609548507215482 0.75406290533394 0.812791015302768 1.09837887004576
Ni 3.537904852925662 2.8327766757475032 11.608791602178247 -0.65011860383979 0.3793161349360886 -1.3491573304190505
Ni 1.3029943007041782 3.4374510711285597 12.79714277476985 -0.8162890011536974 -0.06961724607750591 -0.220851076686239
Ni 3.467915818255893 8.396115172458906 8.22352729647291 -2.3235763750806817 -0.26148067728214325 0.1063469973983717
Ni 5.539318913606836 8.053940506720611 3.3737329087220695 0.2513746991963929 -0.4793271628141036 1.5149490042373006
Ni 2.9412097521587075 8.642039029558607 3.5900171812432675 1.6129280892869513 -0.24537477285921613 -0.2096832329948776
Ni 3.6726450917847244 4.35722136565648 9.52572639102442 -0.46493027066248316 0.03842102298035964 -0.10008147610463408
Ni 7.240252165389956 5.864663531319481 11.495700760048619 -0.03800270449601842 2.99528916015148 -0.8403609545012366
Ni 0.6034915716174412 -0.12081868456988526 0.1323945622626075 0.15560033510754492 0.5881059095824195 0.7456165743387997
Ni 4.564837346451847 0.2914730113490521 1.5260042380485708 0.39812041212678534 0.42305548480556815 -0.7737102472512224
Ni 6.070745381523513 5.595419073692332 0.38279553893418017 0.13425503666254943 1.3258551653580004 0.6956762378649309
Ni 7.873203583208927 9.021631957412179 11.331045882428109 0.6774684566076526 -0.8408841739945583 -0.42986042354254356
Ni 0.003923380127661984 4.874913279817599 5.7470992006963035 0.09530462354128102 0.016255799737230067 0.9943859747018617
Ni 8.09118629261556 -0.15172097663510256 2.310124708597596 -1.5080471349111448 -0.3853320021128654 0.16355224296476994
P 8.608642186685705 1.493671301124215 3.548671000152425 -1.2382126863476675 1.3300224093618127 0.7763528270803921
P 1.974553158789106 3.1246427513249864 1.658706534199026 -0.6221748262416705 0.9261445259259597 0.8931870971633326
P 4.7405270710949985 1.0007796519070409 8.262348970359904 0.7130242422250752 0.16034170644727225 -1.4033718687882413
P 8.748484090588141 1.7458769237221627 12.48247443509548 -0.4734046266820815 -0.33614371331367265 -1.1471976913206758
P 6.29170557515475 7.857753344945899 1.3410216762080858 -0.5554014773708629 0.02127356466679562 -0.22622391096237812
P 1.7531300026717274 3.4372604395166184 6.07124102371456 -0.19417973804263977 -0.9948788551778802 -1.5022277000158901
P 6.615997180153816 3.899051902899989 6.269881886665827 0.602801049700749 0.6982874502355328 -0.6564026370762889
P 2.4173268494574103 8.663680256361815 10.405866188968968 0.849739310392343 -0.8392934324686707 -0.5439083891295988
