# total energy = -340895.03442617005 ev
CRYSTAL
PRIMVEC
9.01163192193687 0.00000000000000 0.00000000000000
0.00000000000000 9.01163192193687 0.00000000000000
0.00000000000000 0.00000000000000 13.18943422747601
PRIMCOORD
 96 1
Ni 6.328787863852679 2.007845620680829 11.456883037235468 1.422418086786415 -0.12405855574552183 0.0360671780362024
Ni 4.551748155206883 0.33885537655557085 5.9397160706086805 -0.6472001446414144 0.3173944577306276 -0.04388795963220184
Ni 2.43884493174203 1.5941125960267462 4.853395405485652 0.9639502839198238 -0.6642128771493271 -0.5570166443767826
Ni 3.2992845415740195 4.418186761240335 4.8706076221023515 0.6424114650035195 0.16615265670209448 -0.480074068282457
Ni 5.065951862091114 4.570240023530164 2.63185966492691 -0.21027227272912816 -0.6792489455468431 -0.3704340019551104
Ni 7.079772194613238 5.930536822521889 2.5452569827760483 1.0985639894733725 0.9953887049347631 0.05871268334986017
Ni 5.189221972614588 4.360701562393253 11.387612426403402 0.2522853839361203 0.5605359703839508 0.12609409811831188
Ni 5.653456181519971 7.6714038413774075 12.502106155824224 -1.0873807191630434 0.12904315344430678 0.48012034813936016
Ni 1.8625240472981595 6.685576387563868 0.3578969544147784 -0.02689631017021174 -1.4681695819899165 -0.248141794081392
Ni 2.780665135138907 1.5335454191257836 0.46684127396675074 -0.13374055891997613 -0.12140157773864899 -0.11181933336685258
Ni 0.28772518040906275 9.142390512988465 4.913328163512365 0.8514925456380238 -1.1096001926828762 -0.4006663184770906
Ni 8.64566036004129 2.1554020787341486 1.0671502209299895 0.34452936627420666 1.0607718583262635 1.9029390127983032
Ni 6.827437494359725 0.8209641570102864 4.876898642217597 -0.2954698897433944 0.2042810881426998 -0.48394100743703106
Ni 0.7351635100839726 7.3888891864383845 2.3736232470491694 -0.2667447538945599 -0.5119277224579442 0.6330819600724774
Ni 7.5522160000305645 3.8959086323202063 3.8058247568295385 0.8222727295409581 -0.6184433842236963 -0.1063004604311524
Ni 7.522486626931878 3.8203911583684036 12.62011167108724 0.9656487546681694 -0.6702889081400779 0.3049857996536296
Ni 7.6631491867067805 8.824721482645385 6.958468422134666 0.21556488858663522 0.7121544380256122 0.7495773587587606
Ni 6.934910214449128 0.6524313237639345 0.4204557019295056 -0.8733914025936442 -0.5605375130458474 -0.2468991799235425
Ni 2.2465907802757106 6.474370774555707 9.40847155629282 -1.2004586075273453 0.12833507163368865 -1.1506362846885796
Ni 0.15273544281228138 4.85495351661289 1.3835188728134917 -0.3942876686442564 -0.40765894774483985 -0.3157319824265401
Ni 6.1148877729553055 2.1466247494228052 6.716706168234407 0.6153606315333144 0.32373068436130054 2.084352966534843
Ni 3.2902368633105814 4.082088943996131 0.3189919378819953 0.03496726010380429 -0.023016772610147455 -0.07841916063985203
Ni 5.928932752072794 5.80702339794153 4.654405960459478 0.17032144336780344 -0.8308458159219497 0.6042112997847142
Ni 5.293144109799813 2.7732215273245644 9.30974913061955 0.763886062071949 -0.17478307868358287 -0.21897262871660353
P 0.2943189913506539 5.379024960248581 12.356112314714013 0.48432667291122394 1.2918669813380137 -0.46365757459764667
P 4.13113024390612 5.859137664273663 12.627933767434515 -0.03199892150409973 1.5242389141796588 0.4873667452891284
P 2.393336191472746 8.570269048933799 1.5194890759432036 1.5348367443001631 -1.590837428035499 -1.17350676152885
P 6.213619210260312 7.773685861586591 5.787615947833822 0.1956961746871662 -0.15082888186083057 -0.784736680268713
P 4.727438927541529 0.9328751057299118 12.648693863465873 0.39785044629485034 -0.796151606973874 0.7822571083799689
P 4.049989511750746 6.273600631098402 8.110578504749954 -1.528343937486968 -1.0801019261134432 -0.07020731425302103
P 4.651002267152605 1.2935656659830028 3.9423221404158344 0.23183637205314914 -0.8960793311094631 -0.6972278986227669
P 0.09180059133647 5.501240709858886 3.467185659435643 0.5131906483307678 0.6948244313875969 0.9286233264837556
Ni 1.4160878110723474 1.0477463754749747 2.5160692087447245 -0.7717232987281806 1.4348524558950257 1.1237883112578002
Ni 1.7061181668796048 6.512634162908852 4.7231358733873545 0.05993575712368387 -0.27310180646083937 -0.9213008246804134
Ni 5.806987351414584 5.3839453111767055 8.966230234640346 0.9413559435590756 0.4537806818035669 1.3308893853477983
Ni 8.723989463094878 2.3548204774309793 10.095851790257218 -0.17694923309696622 -0.01391686719140829 0.4148114996292211
Ni 2.308329469302417 5.517560774933672 6.884712722187347 -0.18015642718035427 -0.2084038520618217 1.1936652387545958
Ni 0.4448844332407881 9.073000948617477 9.098599389728156 1.1565745045498856 0.819107187328783 -0.015318889745257488
Ni 1.52721024201503 1.1761531160882488 11.454970768980983 0.29457617428453137 -0.8208658218911024 -0.9459777586018031
Ni 4.24166691878593 6.88450815814693 1.6291191806703231 0.28344149782395056 0.06397367463848337 -0.8452892450407894
Ni 5.439060450877091 7.896316146256774 7.8764265738511625 0.5947748369621628 0.4410712046566984 0.8415207791372927
Ni 5.385666532838376 3.1783394320385607 4.7874347669903985 -0.732128567154694 0.03592628158296393 -1.09321660911853
Ni 0.5464527322164417 7.534562213458777 6.791108002177231 0.7793882714726061 -0.9352040650250668 0.8096938644346829
Ni 4.949161114786178 4.678046173993818 6.815046500722048 0.36801305121844363 -0.18376471335690286 -0.2967963218643017
Ni 8.202387206554986 7.2601490154508594 9.243247794220109 -0.6166888634264347 -1.6123380211114362 -0.7792291201869226
Ni 4.828324144831558 0.4002408096182069 10.540494711767469 -1.1501413473300321 -1.543090499668523 -0.586403582179332
Ni 8.09939326743862 6.999109078939897 4.815976407026216 0.06985327334771196 0.30725042731809016 -0.6061280571914529
Ni 7.134418729463325 6.193451178434043 7.037855490754118 0.8136284236023987 -0.9828607476710816 -0.08038168368286157
Ni 2.5915019733582043 5.187239413632559 2.3550917275462475 -1.5341461459910417 -0.2260655310076429 0.5315025592660781
Ni 2.535287414585967 5.067177444007277 11.321019171360247 -0.9700049747543359 -0.0865253346867542 0.8892682217249007
Ni 1.0957333144717947 3.3957991174718485 3.8148850513774075 -0.5280855631647292 0.5096214429222707 -0.7025629376824353
Ni 3.432422388848952 2.8155311383273944 3.014537705453867 -0.0696972073858219 -0.21157222248747432 -1.4574977040983672
Ni 1.2884650824201482 3.3519485174420787 8.248315888863193 -0.9376162740109852 0.6180106675616518 -0.2344370429007898
Ni 3.465116588788945 2.839429985692571 7.200692071579834 0.9931731853406832 -0.4670889688766989 -0.4203087752983664
Ni 4.127165125942064 6.912876774853405 5.839886115394996 -0.7852920385515508 0.09378715845549009 0.20531210051037543
Ni 0.6582167913387624 7.542735763443775 11.265385862835013 1.4380035999294976 -1.0113233738871485 -0.02640162992198034
P 0.25951697074749563 5.595637552298639 7.936939680961706 0.15525606439424872 0.8227838648494217 0.7431429159873266
P 8.511035593529837 1.6546527380324993 7.907830308126489 -0.19997371901659752 0.1758500864955165 0.49488079427798637
P 1.857225207837102 3.1124013226226492 10.39212630569469 1.025188304794699 0.3099809388753758 -0.4476239181735517
P 3.9458060372451627 6.163685758808409 3.719881726121788 0.09720775410126485 0.46244529945710033 0.03660710970007244
P 7.143466407726763 3.8848603718112673 10.434042108390637 -1.2355245979925433 0.05105645235618304 -1.3509169934226348
P 6.2279206698261245 7.561110480554482 10.019129461142246 0.0765931631747068 0.1850510362684942 0.23271440378272826
P 2.287855041997107 8.397903568709916 5.670836915650143 -0.31483775274704484 0.9573579754142867 0.4806170852701206
P 6.918608172637815 3.777567884356594 1.5837474172034331 -0.016366100062849234 0.37491209233112205 -0.06835534864594679
Ni 5.12080566447114 2.678563347564453 0.725670657212752 0.39235085663285973 0.23250383043381892 -0.3012160481985522
Ni 1.5117462819552097 1.157967643244008 6.944065131130231 -0.7869146617566383 -0.0961551444670344 0.7745448273373757
Ni 6.757173801710298 0.7579854674566386 9.207557226727733 1.0662326243305187 -0.4647569783094125 -0.5935203957297713
Ni 2.7752581560970118 1.4526119545003495 9.064873357954335 0.40939187127554655 -0.27999287715371785 1.1762560421392128
Ni 6.452247218642619 1.9557764125073782 2.6069704392338924 0.3344850946643272 -0.6300043495884182 0.7343350878877095
Ni 4.334621900147845 6.675366208806424 10.52105301745916 -0.01055026471202054 0.3450204469780122 0.3158101439626432
Ni 8.182093011884406 7.031181476290072 0.16465963392600755 0.012985356516074412 -0.23795791156985469 0.6326397303287362
Ni 7.6044474175752725 3.8216527868115127 8.255807258325738 0.6331608929395288 -0.4197788709368254 -0.8223830298665772
Ni 3.10376817941909 8.233963964159654 12.38367799503277 0.7996899591444357 0.760039434632349 -0.5888286466810569
Ni 0.2507162111936376 5.017207946028429 10.079893091615064 0.24115507835091368 -0.7737650117485577 -0.07975047785676588
Ni 8.585751032257091 2.2310817620572077 5.7624239313144585 0.08030403636739074 1.9165388629699251 0.590918182220234
Ni 3.873388564610713 2.4904996048556023 11.457212862957023 -1.8617527683679809 0.38573515108855505 -0.47120761903076264
Ni 0.9898376299362774 3.2693749358406023 12.465636983349816 0.208262441387951 0.6514447788503813 0.07719917218982189
Ni 2.9064675141803344 8.346095697856825 7.776450630203347 0.5791751827516929 -0.5632199449740172 0.43279893734557723
Ni 5.679725088031845 8.11385693637569 3.6727427816713725 -0.7076958880336264 -0.6056045805878151 -0.4515489642595707
Ni 3.2004449646881756 8.272650899204415 3.6921448248000392 -0.050515235140732355 0.645175915122534 -0.6473459261906592
Ni 3.5700209938334475 4.230564588486572 9.282050979314269 -0.946085744934577 0.7356365803079524 -0.4418026835060843
Ni 7.29624060055551 5.846269054153953 11.296393986477108 -0.2893923160907468 0.9644601336767067 -0.0862499695381805
Ni 0.59599507885098 8.924984897345595 0.17227266041699596 0.021865689724839762 0.37153057745339885 0.6167120033548862
Ni 4.688265364382999 0.2826534340677651 1.7129913384050273 -0.2943504314269704 0.4941449445532264 -0.27313368814003924
Ni 6.152114823658754 5.454209003826134 0.4141800015882126 -1.308840890188191 0.6456605680684364 -0.3290248428807043
Ni 7.585504967665166 8.421207648380486 11.420941946380816 0.2820844695754239 1.9007260643073847 -0.14278338584853473
Ni 0.14646514945003028 4.847509908798548 5.876090345896352 -0.8428382123971356 -0.3109019080277484 -0.3853260885755944
Ni 7.840038506062381 8.75573744170254 2.855960922949992 0.5432267896815418 -0.017138973673131774 -0.6196075797351265
P 8.593735337975623 1.6664399523438307 3.5911271365234856 -1.176140342496955 0.7067610349241827 -0.3497772449367073
P 1.6213277238709518 3.207996712083356 1.4756997550092419 1.2707682516861858 -0.6235503664329584 0.7768109976637332
P 4.79587325894845 1.013844616882292 8.130732117965444 -0.7902128728919359 0.35791504355249326 -0.3023159661309503
P 8.478656800700621 1.5229297169401963 12.25625532460512 -0.4801028646378635 -0.652176000589451 -1.11179951432704
P 6.517608583627395 7.732034099700526 1.4274794147504468 -1.06604724779259 -0.13622990100073312 0.2651036187467112
P 1.8114551302474595 3.411488368325081 5.968008088445397 -0.6570783229870748 -0.8357195990744833 0.5405613270342368
P 7.0009564634458785 4.1248671598492574 5.9216468478138395 -0.43756036328996256 0.26916416196933 1.1305320577395368
P 2.419235621083424 8.504817567631658 10.170688886012917 0.07808260323603972 0.09327319493354903 0.30702005647483893
