# total energy = -340886.95407797734 ev
CRYSTAL
PRIMVEC
9.11274396927127 0.00000000000000 0.00000000000000

0.00000000000000 9.11274396927127 0.00000000000000

0.00000000000000 0.00000000000000 13.33742192930507

PRIMCOORD
 96 1
Ni 6.526920690800971 2.225149767019454 11.704654106820774 -0.37276085031607414 -0.30137391393265517 -0.08148288716684032
Ni 4.567553207772381 0.28279942165542443 6.225735397370878 -0.4956127873480045 0.4017060725955146 -0.8315382140032841
Ni 2.6855073553980637 1.4975427429074537 4.9940241472704985 -0.0572702944763788 -0.007643889698502965 -0.12682686251927835
Ni 3.311124551545113 4.3701802910557195 5.009482094480733 -0.11901790799782083 -0.12217316579735088 -1.4387772448707286
Ni 5.106599338366622 4.528104140111528 2.4515385710862945 -0.08311630900520524 0.7188015110284847 0.6554140479107745
Ni 7.280653951222435 6.247013654009384 2.706656211075428 0.4106866788275701 -2.21348173771442 -1.832759209349108
Ni 5.430028839271915 4.715453038711548 11.76295197363841 -1.2288808674237803 -1.26575845717642 -1.2542108615481367
Ni 5.927739564250626 8.251398091125434 12.475730741132775 -0.6706869149094449 0.3447386540715353 -0.6569340840997268
Ni 1.8986037077542601 6.444350119751077 0.0989033416593998 0.3140404536567301 1.0867731674860317 0.010627140696542987
Ni 2.7589651827055572 1.517709244809387 0.3163133593168523 0.7036697975933688 0.5392693476956906 1.5392220178520526
Ni 0.5439515205507754 -0.33659012541806854 4.539791233961157 0.588652783224825 1.4879501070509535 0.04951996110699859
Ni 8.847918296502998 2.453378434047885 1.5651602127504425 -0.25319452601395104 0.3154224216059213 -0.9400079141716134
Ni 6.679030609349126 0.6693984621830407 4.839976859402708 0.21564202168147378 0.667841732151166 -1.15904276358472
Ni 0.9135069964569793 7.378980456202941 2.5134241251153133 -0.7940070498270454 0.9140595697369678 -0.5922266166190124
Ni 7.638529623474003 3.5702363071165406 3.780385290560048 0.21309328711769107 0.6751480360045922 1.0559860069018459
Ni 7.814031955208903 4.055098063418466 13.004199710065212 0.20884659602619512 -0.7547391054653583 -0.9787423546273337
Ni 8.037066358304164 8.98840035403585 7.03675683260332 -0.07370555721426661 0.4362745545990035 -0.20701622768567574
Ni 6.90146357135739 0.9273492542016862 0.5454004468058172 0.6748006799675024 -1.0843830699873 -1.5604449317865707
Ni 2.005724010446183 6.339435101044814 9.394986375413675 0.2291220584457796 0.3511425007153501 -0.16711502061536382
Ni 9.299281606807858 5.056315218396054 1.3454792993523839 -0.7112684358762331 -0.5360739806868445 0.9222577892770439
Ni 6.568338111110183 1.7861889009480023 7.089439426726888 -0.854738049158515 0.8101558916727659 0.39779336780466973
Ni 3.550662133557864 4.416728186091904 0.5172320446236818 -0.2592055080947213 -0.16727802855578933 -0.037291537361606744
Ni 6.055217736463073 5.4409550190190545 4.646757531283833 -0.45744681780124447 -0.7822807625290527 0.9191043312497269
Ni 5.447233699457568 3.233083014135192 9.393145601177709 -0.4410344378814921 -1.9174531472540783 0.1549912407686363
P 9.052098432795233 5.837860572719326 12.673178382348125 1.9433606111484598 -1.9321950814499433 -0.9443903595100251
P 4.153142073342957 6.259543676655185 12.628164162083786 -0.49208806202419764 0.3550120109730854 0.12370374350926439
P 2.453259968379234 8.394878241349536 1.3210061147577918 0.7279800922039592 0.7705593603270665 0.0016894718872809615
P 6.459030749920084 7.986745787358627 5.921094551513667 -1.5540701386084783 -1.2226384860584945 0.4876814483160698
P 4.83646116286689 1.2436434767566795 13.024819115331143 0.39844231424257837 0.13601495677644962 -1.111513607655505
P 4.080950917415657 6.3225856378651155 8.157740956038534 0.13669372801102908 -0.7671521344177304 0.09046837849490226
P 4.674172309558472 1.124867974818226 3.9238162319679417 -0.10554224210888918 -0.7458780555303025 -0.12056622632154718
P 0.2726760746319913 5.68066574316291 3.6426361448755418 -0.5581109058822259 -0.9907864302760614 -0.09211645562128652
Ni 1.5721396631827476 1.2213719310502518 2.664069625744065 0.18075215178282417 -1.7945099360599224 -0.48983140477953707
Ni 1.9400758045259268 6.35224761874663 4.934659178160628 -0.1965893759253969 0.6426608620101641 -1.5182482438138625
Ni 5.987828996488017 5.380993165194056 9.035956118529944 -0.5905533426816474 1.625164226341827 0.8764767263871872
Ni 8.6920812657642 2.669851661648619 10.66477613651605 1.5399797219536833 0.15328737070365214 -0.5704105491851854
Ni 2.19731033488642 5.110845876950581 6.9155464055368965 0.23264986909337998 0.7004386922505808 1.9713293284472437
Ni 0.6960714631170482 -0.5649099198839234 9.035929691573092 0.2944447909129897 0.29744423986094576 -0.3724016672044425
Ni 1.734191585153863 1.091023244558949 11.67189743816434 -1.2905546902844935 -0.02331502057685662 -1.607025607759587
Ni 4.241216741613262 6.889288945717542 1.5361242773640305 -0.02021427016434583 -0.20087720466747339 -0.4215025384961515
Ni 5.715093689021701 8.267236039749728 8.057990129211092 -0.20105075413086018 -1.2294387968097795 0.5168403292682131
Ni 5.11665069471449 2.973105547908236 5.206115967679886 1.317048622809964 -1.5472088927122707 -1.204976292892041
Ni 0.3928312459730442 7.3395678395170565 6.6550531580141215 -1.1535071784784716 -0.5813091983755602 1.14839351140099
Ni 4.913199577921648 4.490842130948851 6.87972238733677 1.077112504467816 1.9491504783573592 0.9859576414288502
Ni 7.93217867782913 7.035402678883199 8.813195097746954 -0.09731676887530337 0.3723319903087716 1.1345396362370332
Ni 4.750564440351019 0.4259879640797699 10.481879724508568 -2.0663827552096667 -0.33123573448909405 0.9286806620842523
Ni 8.007477279372589 7.201774041388212 4.637848001726888 -0.13634945729773293 -0.21445905711696617 0.9249381643226845
Ni 6.837984198447826 6.059282020172183 7.011468968718158 0.4264277437119107 -0.05354399466472714 -1.702529748906184
Ni 2.2754976761962196 5.52770833944671 2.3242991527598993 0.9785513216624502 -1.4854026580387514 1.5511246828269092
Ni 2.5237105902517354 4.903075319623841 11.671844584250634 0.9104286578525996 1.5792417527780997 -0.2986354319555696
Ni 1.0020737528893737 3.154166653326 3.763126665186315 -0.036038124570479876 1.4734994788432625 1.11277910463149
Ni 3.56434947465895 2.7155520715167594 2.842351344320397 0.8320578339521799 0.17914778341018178 0.2625011481268576
Ni 1.1012021793192108 3.269679793004674 8.305519587485927 -0.5431481139248066 0.18485460398697195 0.5289995903385664
Ni 3.4198304716482135 2.8742596165344136 7.129931903546246 -0.8603420256088538 -1.4659684605735397 0.18592084046795723
Ni 4.195224723945365 6.9740374625218715 5.761979666850728 0.1388539688871415 -0.16526536900113473 1.0875480979788432
Ni 0.32880875353643235 7.353100263974523 11.13010472660614 1.333290538590123 1.1048649919907358 0.4462180389649606
P 0.34200218392668036 5.680574615725486 8.04386537641037 0.18222693655613778 -1.0978942170998576 1.3370826586427038
P 8.652130997197514 1.2269853811955704 8.602329852645292 -0.044220146160639975 1.6664183478956074 0.5231572726251764
P 1.8745005005556097 3.311580188732233 10.550753841713634 -0.9335377330662374 -1.169915701743482 -0.301451561248126
P 3.9410520754823186 6.138726920118434 3.6770604456368354 0.6565247644764499 -0.28943988149923056 0.595579078031013
P 7.207788452258197 4.2701132520204155 10.577935333748465 -0.7831251128072191 -0.6240162503257833 -0.11699316425830819
P 6.665543748610373 8.014475866566753 10.360456059238572 -0.07055209918694946 0.8840774215525807 -0.9119654062121002
P 2.0802298032840527 8.216869905085478 6.075662177049148 2.970025500488685 2.2098631671252265 -0.9566403805219718
P 7.100340090791548 3.997314155347902 1.7832135901161086 0.5616993945644326 1.1246889686951986 -0.413679700017623
Ni 5.650657478019184 3.237484469362771 0.4685426548080337 -1.141013673997151 -0.9381811453755197 -0.8436272839573342
Ni 1.2738795604939657 1.0286374008984722 7.095842040480299 0.06277399790342737 0.1059991271406497 -0.15628322010718246
Ni 6.558396107687223 1.016471888002367 9.427516136750924 1.721264606311526 0.9795512236818742 -1.3253931381199173
Ni 2.8309558582705248 1.751897646245348 9.328459700996651 -0.13936896085034708 -1.2464088490052148 -0.35573063430666474
Ni 6.445571227412557 1.875484676879789 2.452045239638372 -0.8072091503396162 0.5224813296040743 2.384552400543422
Ni 4.766739560493781 7.010369971822824 10.521918386689553 -1.2364728208384255 -0.4290284145595515 -0.05332879333012751
Ni 8.194416104504201 7.4055167659808125 0.2287900120429627 0.5700873615178118 1.4280004659701988 0.2214725123203218
Ni 7.715012881703974 3.6023678415522467 8.524013110374351 0.5059095412883223 -0.15543938404964844 -0.8366788776639591
Ni 3.403482209374346 8.562607402672167 12.402694833860556 -0.044250485177943145 -1.0020792295810612 0.428295650158585
Ni 0.20689482265309603 5.155881056525526 10.562437290465764 -0.17086831701020896 -2.005274575044437 -0.7865163978769552
Ni 8.410743528205057 2.116972386053413 5.66840454645751 2.1658967888466054 0.13258227694581684 -0.4199066547639413
Ni 3.9109526829011685 2.708498807860141 11.278604176083556 0.16554741901792777 -0.07664947033393896 1.345183176262651
Ni 1.1110621680484887 3.3884370694556427 12.87924121149754 -0.2181107949369405 -0.5764606120340072 0.005641771666809638
Ni 2.969423999436306 8.288496070900749 8.188590327429685 1.4574622228747416 0.6947771230894292 -0.793472260369498
Ni 5.713626537279175 7.651105209838517 3.7434404048796064 -1.243032476333814 1.1283900716958695 -0.14423065981802258
Ni 2.9543606340301176 8.339891945607889 3.5530760993752257 0.8316847668834773 0.2424959086495243 0.566469048038934
Ni 3.3830878888788534 4.4182317888094005 9.297503710503715 0.5098543848686833 -0.19782119144996899 -0.6787138989789795
Ni 7.24966150975453 6.268911577222373 11.563304516083646 -0.17028390526164866 0.018601417151271192 -1.7272709604066059
Ni 0.5452218370284662 0.056199201933760656 0.5675188984173727 0.48617323920165945 0.6249251352932979 -0.1016591050043991
Ni 4.621728469320955 0.16102127065384983 1.8298407660228515 3.342434109671663e-05 0.704665842958051 -0.47241706595783156
Ni 6.266405572693213 5.854126820299511 0.26292726137637074 -1.0960512503538478 -0.8446593247662744 1.8029637232542306
Ni 8.296579074600258 9.409545806090907 10.843657473630632 0.5000319994616228 -0.21112613608899122 0.2627322903010572
Ni -0.10057188503863342 5.190454806284196 5.934565920588059 -0.4400805586086549 -1.9260732848229216 -1.1721921564824844
Ni 7.959416668875167 8.51631466446077 2.3931067469356453 -0.1612955857201093 1.9605486928919718 1.1261382995472153
P 8.495601397934294 1.4120652066037331 3.441694677709356 0.13899306556816707 -0.5542853614885487 1.1146536959463833
P 1.8943753946577861 3.317029609490189 1.6817158503132472 -0.4687696990132314 0.06842888219635956 -1.1696215675418309
P 4.651417788433697 1.2956316798070766 8.178147123100892 0.29001966526210055 -0.08239100080340649 0.8676598994265058
P 8.695480319180115 1.5306311154361114 12.592179759593794 -0.11204044823872317 0.8439404443223789 0.7554631281155764
P 6.38071583019789 7.7477367444829355 1.163400300458594 -1.657949134082332 1.0933549344686073 2.7764677123007604
P 1.4742596826456194 3.265360352470776 6.0402910622130195 0.31088519585720004 -1.3448275926954452 -0.7045264891667093
P 7.234425002217235 3.814685658006445 6.294155699937573 -2.2795230935152095 0.9088844532939315 -0.5879182190516454
P 2.470446603077402 8.288705664006823 10.349745851518128 -0.12216313849502186 1.0601635353183032 1.1645644647338975
