# total energy = -340889.123959578 ev
CRYSTAL
PRIMVEC
9.06203599262154 0.00000000000000 0.00000000000000

0.00000000000000 9.06203599262154 0.00000000000000

0.00000000000000 0.00000000000000 13.26320567983620

PRIMCOORD
 96 1
Ni 6.210820335090204 2.0212508516758607 11.066951491412194 0.6418571351619462 -0.20413530659345488 0.41663004089519856
Ni 4.700813298807336 0.16972468213376404 6.215761863247709 -1.1251265704532496 0.6303036259963919 -0.4265678688342009
Ni 2.8561271539365842 1.7307038577533898 4.873552014069994 0.11207875767582633 -1.4113304615136855 0.10174009475397962
Ni 3.64345495401057 4.114372709801698 4.891576403406648 -1.6782785896683032 1.4635770775232277 0.609433467415602
Ni 5.243882984160272 4.4718519006273985 2.763349124541112 0.06870373312430103 -0.9285932445767685 -0.3668385712943682
Ni 7.4707604916621815 6.21144561556493 2.7196864233335374 -0.06784215645495413 -0.9024099013131814 -1.5689036040768851
Ni 5.026974093681567 4.473446818939742 11.546057702811465 -0.27140307860217777 0.10595181884248203 -0.8009749965044463
Ni 5.392763171396012 7.763527684371723 12.509988270241196 0.05787630349149386 0.5796590643666469 0.4493604412486842
Ni 1.9610970576000901 6.156874035582361 0.7507198937877709 1.7067594707168157 0.823778367552207 -1.4218555294147255
Ni 2.8139615010540053 1.7164130271933582 0.4828578942476256 0.7970718047952983 -2.0169566393680554 -0.8535638263447558
Ni 0.7228668203513008 0.09327281655373391 4.833390883520884 -0.0595277230519878 0.7379413171817292 -0.17037723630640333
Ni 8.380806381427956 2.2205975166470577 1.4599873169155846 0.9606093924720489 0.860236610379241 -0.17150389371167882
Ni 6.601656879937134 0.705483116950344 4.698092875640487 2.0151573813757877 0.6323941899768334 0.040489732583930266
Ni 0.8272669107443898 7.703464510654607 2.8158445921068744 0.07072847686381367 -0.868666229203833 -0.775325157146826
Ni 7.644280354416455 3.890250438773984 3.843437773899531 1.2062132506229357 -1.1945224445485685 -1.206642110630238
Ni 7.657257189775976 3.799947251373403 12.43773031485976 1.1211470169802111 -0.14750675946613306 0.27957790110348624
Ni 7.852562186751121 9.195157172453124 6.69460255699612 0.5611021273000659 -0.5266452311737769 0.38182681717308437
Ni 6.758457286519397 0.820353483582533 0.4370348036896951 0.0201978151041136 -1.5666070947332245 -1.3200514141920299
Ni 1.6692179444053779 6.524529892685117 9.29229494730353 0.2050418775681243 1.220526324811498 -0.25748158342507915
Ni 0.22215762165205413 4.681674279059215 1.1659206282629193 -0.7634754568970916 -0.9346049979884871 1.5074647800451133
Ni 6.323832984369948 2.1204529582964486 7.3039673781309356 0.6077329397847275 0.9600350080258176 -1.5643915751391446
Ni 3.624923090665443 4.124404383504903 0.252773709823942 -0.8476600592658112 0.24108360168302995 0.7543860930013138
Ni 6.3842495774858214 5.5309773424179545 4.831573945329833 -0.8261029019203255 1.7746715611777564 0.6181075981508323
Ni 4.850871550705602 3.2115673866925287 9.1600735005995 0.6846107240793887 -0.7026552402859253 1.4863238843014404
P 0.22468864826931276 5.467017493278637 12.3519699260386 -0.48812650627328846 0.18860455794770742 0.6826764831711534
P 3.9934579652471616 6.128029575422196 12.690394374049728 -1.6935478571225477 -0.26512573023389824 -0.32573434505489063
P 2.252260269961421 8.348772084643103 1.2491844262031115 1.2137470971061355 -0.11820852472264805 1.0505008154175586
P 6.402609262149501 7.8250770319707925 5.7362433292165536 -0.09881366513580402 -0.42330976690821936 0.023870378859694372
P 4.915221067387139 0.9141147438694222 12.481909552111672 -1.2192238039499905 0.7816171608031249 1.5448079965802621
P 3.8891358083625165 6.179637869676718 8.132387886041014 0.6911708937954096 1.0803122423520364 0.4822649052861887
P 4.76625932182861 1.1277975495799786 3.869009932908633 -0.412562041473412 -0.9526901376249721 0.11993862003987732
P 0.25414388964681883 5.641153574471768 3.6578200932646996 1.250735758515343 -0.6447136307741348 -1.0068411697460788
Ni 1.4911217535389838 0.9373316797570576 2.717935638004306 0.7550610075811512 1.4092568668141083 -1.0135453212391319
Ni 1.8895069742619477 6.604330180517482 4.825194272080458 0.7968542894678535 -0.19586201084106913 -0.06981316413839589
Ni 6.147268277564838 5.602096199891086 9.293594443246654 -1.530949750540931 1.5847572832796901 -0.30372930153870914
Ni 8.577905661504486 2.5407501817424034 10.165557127287297 -0.3211706369436082 -1.0983284764237986 0.0009891033861466837
Ni 2.2521062153517057 5.347507364283266 6.905593938054597 -0.9081023237122684 -0.22984659531662996 -0.5854949543221336
Ni 0.5818660733006898 -0.03569807788530939 8.89010095290626 -0.8142097500271656 0.13733213292597637 0.7987404507469728
Ni 1.1774846922309956 1.0325102424533246 11.298739338578606 -0.09936053877820952 0.5513653596282763 -0.2540468467119173
Ni 4.222029695884879 6.878873619101324 1.6849315145963066 -0.4791456429309168 0.343094433599893 0.0762082690314623
Ni 5.6025764877919615 7.854827695717518 8.001890944762206 -0.49236805515846177 0.15947010247559634 0.9965194761050967
Ni 5.529409610213207 3.0137703298543475 4.881456827955546 1.1631362169278032 -0.8679275512655955 0.6286969436309042
Ni 0.7083711877807068 7.6863191387969145 6.9082065229946465 0.05469507755003483 -0.9078788948475526 -0.13171350118761832
Ni 5.216198464590901 4.607537763642842 7.3978183525728936 0.26095025869996996 -0.3890073940819236 -2.171724965492608
Ni 8.167322940506441 7.014378241399457 9.359127461812239 -0.13860508610112904 1.320171998930294 0.31818018685671656
Ni 4.648996577727906 0.15435909412007362 10.516209886495451 -0.6827155639392049 -0.5459729849681113 -1.231033137880093
Ni 8.437752214807308 7.331694489268874 4.68020079202747 -1.7164594716133987 -0.1084103076853036 1.3292032558946267
Ni 7.2035935502729265 6.371553665238132 7.119476108554197 0.9541464104555246 -0.942448662402622 -0.6775869844633879
Ni 2.736354225901113 5.100222529583111 2.6590604971891696 -0.6574645026818999 -0.2786610457161717 0.8179941567702622
Ni 2.2370360497072337 5.331395064514252 11.463627612170907 -0.4453438638901233 -0.7318956252082814 0.48195431602430544
Ni 1.1588440844554817 3.3592513851940105 3.774509210495112 -0.1631156696479836 0.5415573723989189 -0.8822959041721258
Ni 3.727623143130148 2.5611125763323788 2.748335143519006 0.1715596866502787 0.6427012283297964 -0.4803296359366889
Ni 1.2491835199995251 3.457646970622561 8.283866158959418 -2.3822407216911103 -1.4096836699388817 -2.844377488768856
Ni 3.608239882636896 2.5220461397158305 7.126758360575782 0.20390930662557785 0.7800793840023598 -0.5207404356535678
Ni 4.371580473774672 6.557497579164125 6.022794871525886 -0.09010302473568353 1.1090072962938837 -0.7017399275605075
Ni 0.5044753808049849 7.378064926793086 11.369299068438831 0.6359680233710209 0.13846393253757444 0.21536279987815812
P 0.17734313568596358 5.844614403725942 7.978123037093944 0.08049944020764846 -1.4678924170691299 -1.2533181745305384
P 8.563732637410707 1.7589230374388298 7.973891972548301 -0.10653083127440363 0.06121719493926876 0.5460650304612853
P 1.7483113934402266 3.1616990033242 10.260747470630188 -0.008945382118745883 -0.3455693775029468 2.9544546426336216
P 4.402282651287282 5.986571195560373 3.8367273363410637 -1.4437140200507137 1.5164479573803302 0.690687526401088
P 6.7976959018173915 3.971083798695026 10.357249996766418 0.5460182363837499 -0.3652079776694807 0.18074829512808227
P 6.291943680158945 7.6813078329632445 10.265760588871032 -2.5669485156875727 -1.4462948934040123 -1.9137523013637237
P 2.517904789325257 8.440208026526882 5.891847547064558 0.8967377906290686 0.1901094246280081 -0.29669502039974716
P 7.025044257613255 3.9777715811638292 1.649372085859741 0.5989528795992524 0.6163857303637191 -1.3840901377404937
Ni 5.626237463437011 2.8740246747711202 0.06726658602667049 -0.7719066183835803 0.027396132624765722 0.7878754830080109
Ni 1.4823043926417672 1.0702717459052282 6.918075080052271 0.037502882041464444 1.143325095739147 0.5208203969618836
Ni 6.930500037427578 0.6733745114713939 9.124608317035937 0.23673406646508263 -0.7078439835757164 0.29989295851175446
Ni 2.816072955410687 1.5700430238923866 9.23696034390108 -0.2224474746390814 -0.7292764424178795 0.3062307278043242
Ni 6.141251085750088 2.1595465810205936 2.4558552173464054 0.4961025825002295 -0.7140907358163766 0.5815107728634049
Ni 3.8084021308359963 6.6430341356994065 10.467388168269597 1.6550792687337044 1.3859307904936584 -0.5787969734766676
Ni 8.943558808680947 7.133797750036171 0.6112352253374729 -1.9490574044229207 -0.14890209715176292 -0.26015810181597776
Ni 7.75215482936041 4.085890731076155 8.238971020874125 0.3713757970430895 -0.5644311916732989 -0.4423097050494899
Ni 2.6543971735327383 8.566179387094415 12.300919853193397 1.3932247530519102 -0.6317627270404216 0.7852511580112864
Ni 9.100277656940419 4.821438058214173 10.148739801127938 0.19912834029716672 0.819679257782169 0.829592660241139
Ni 8.73055565566031 2.340343258574933 5.606197677323851 -0.5050039987549174 -0.14971070909598733 1.0007736233957603
Ni 3.578607025356425 2.57524029024683 11.47301769373483 -0.3238893214263519 -0.5688748292669493 -0.048766113660109564
Ni 1.3199670821456302 3.3399039386209806 12.561224114821641 -0.8812101273071146 -0.292168079063671 -0.11248602041657403
Ni 3.0806662786141152 8.364703143694806 8.198822577175225 0.9391710200926149 -0.07498853769174828 -1.2867743973064547
Ni 5.752988159088986 7.818951095725655 3.5522845297776526 -0.5581854678739032 -0.954013484422086 0.3844945938132346
Ni 3.2730895481840028 8.583487875597688 3.6321817813937787 -0.47933796144738094 -0.9054139782468279 0.6806465972253182
Ni 2.9132723521049804 4.591117354654397 9.07926098336095 2.2055306011881437 -0.3987899273899842 1.4265447073602786
Ni 6.915248631065794 6.02763128006735 11.54263587806862 1.4557946053643316 -0.07062357585483321 0.7034733653118466
Ni 0.5138210583931654 9.370688807169556 0.4884745440771168 -0.2658921760862776 0.3668807373862133 -0.7025691083300223
Ni 4.723187465359471 0.13097994779044408 1.8066346562711488 -0.06172138826919692 1.1210135767261404 -1.3462488985230041
Ni 5.689408915456022 5.415971045247781 0.5690659476405474 1.7905154701885484 0.24152557431645502 -0.6042462667877077
Ni 7.58715328031979 8.720125252379018 11.295051996184899 2.233134221838025 2.2178731819138964 2.1830643017648272
Ni -0.054405744726228514 4.865996088565268 5.684517228495778 1.8062033132374504 0.8448400733185127 1.0336621465936648
Ni 7.604797064150088 8.952312735327105 2.4433477954447214 1.0388231219693143 -0.1071628084314477 0.43136066223715386
P 8.677415877344504 1.6532234511026158 3.5505464312986326 -0.9734705647054334 -0.8130506967220578 0.10257081818539109
P 2.0882374207942846 3.2482051976970996 1.6317591129513846 -2.2454855443145263 1.1131300602130054 -0.1879000756815151
P 4.841610150050971 1.1071995420574978 8.460744412205477 -0.4383172960606451 -0.6398383049597045 -0.5593722890931528
P 8.414580589099 1.6108584334309934 12.370101247398466 -0.5063602556724957 0.3671838704489289 -0.302569219792337
P 6.56389537648523 7.43626132112189 1.1311695331255638 0.0986462863200043 1.0245082480085388 0.18231075451919568
P 1.7299698328482773 3.2089122101839114 5.937910781572927 0.6907268642794555 0.9792298357867135 0.8950963983709035
P 7.183203969575355 4.032660332401694 6.12925838748557 -2.70181470357156 -1.3006928071597599 0.3325657661544273
P 2.2670766986016564 8.494435249146559 10.141762939715024 -0.275440481896345 0.07657593678352619 1.332334859545073
