# total energy = -340871.5911299776 ev
CRYSTAL
PRIMVEC
9.17787028150462 0.00000000000000 0.00000000000000
0.00000000000000 9.17787028150462 0.00000000000000
0.00000000000000 0.00000000000000 13.43274087033089
PRIMCOORD
 96 1
Ni 8.859076792318145 3.4849749490503483 12.488378337792893 -0.07424368910592376 -1.039064805666475 -0.7387954376519082
Ni 3.5511290368076267 1.785490384928438 3.133052273020034 1.5593211025947726 0.06581355606069955 -1.7520229705403052
Ni 6.459201426445239 1.688021404353758 11.93743446620101 0.44882719445303343 0.11626888449777396 -1.0390020707493397
Ni 2.0051076388052294 6.701671576897451 1.3571096263676632 -0.11379779724946208 0.030514880759405512 -0.28577991614914006
Ni 6.805730268211549 0.9044735926785678 9.189471856217011 1.151480634966746 0.24473225417921077 -0.4055164474805404
Ni 2.9016295248199646 0.5992203861607062 11.347898568581018 1.5454862535942093 0.003319037070903961 0.9685790409410867
Ni 3.9439694111520742 4.571855039029249 10.357690820051197 -0.8214404634476498 -0.32066850049620904 0.290108625431481
Ni 5.716849402548534 6.345928153540089 0.789368416899339 0.44390558878170006 -0.9358861786937559 0.8721536735318013
Ni 8.225849644036595 7.2805749119942975 7.392305384933856 -1.6546231550328923 -0.44010858363311306 3.3622604003689704
Ni 7.316708186619771 8.53323486978115 11.017305262687762 0.6852468150014909 1.4954682698048698 -0.8652641455008195
Ni 2.2099760554142702 3.8841205201607854 8.116142891456427 -1.8706436430997073 2.0500997017789273 2.103394813657642
Ni 0.06892121559562722 1.2488970310415028 0.161194603900691 -1.014183469043763 -2.273469431121962 -0.9581241641563499
Ni 7.958140350780206 2.9971803305415277 3.593096683462414 -0.4277428629789085 -0.3523689169232835 -0.13302913467524832
Ni 0.8871971699823552 6.85584143901548 3.5785093767086096 -1.3727330608564616 1.3749138705578643 -0.03775896391632852
Ni 3.8288605642248013 8.751328597219581 6.413623205688938 0.4451582302418785 -2.6197000963579917 0.13725525694145393
Ni 1.3548371857282762 7.387313541380695 7.936465892726989 -0.825317944125185 -0.7773396164736935 -0.4945686623542064
Ni 3.314312454343552 6.262290223222098 7.266602522537906 -0.8267086538251246 0.2717550626249578 1.4862979161595111
Ni 6.617795021956584 4.315278502217031 4.966849459488657 -0.05292307325127659 -0.690881387579449 1.7182358467875312
Ni 2.3174948037600682 5.220179783642753 3.0558278383353374 1.6123593612676748 -1.8903395788667379 1.1906467636432463
Ni 9.084063100209642 5.453912601749663 1.1561280377504661 1.3106380912979299 0.2589784796855798 -0.29760879046326805
Ni 4.414417855151842 0.7599964791843533 9.343720648017994 0.49986976285214557 -0.24519248164508095 1.1466572454361736
Ni 2.3129425801852057 9.0608430888298 2.848950385959084 -0.5315822634640781 -1.6607179550767206 -0.8630260001989202
Ni 1.3660800766137737 8.30203514382477 10.231960424044914 2.529096734947122 -1.8373604555665453 0.3150475547650058
Ni 5.887879012059756 3.144503501557042 9.787470667865998 0.14458135828922197 -0.7577480674950112 1.528942233192599
P 4.067898191255644 3.119530516986072 8.780109480099444 0.516048172384221 -1.1265648455616728 -0.9140942796296451
P 1.53177734359073 1.5125588835791124 1.6492449031364298 1.6231914188861722 -0.5278942730895295 -0.6611604634762485
P 2.2369222820590218 2.75009371142368 11.934251580846647 1.0936742654812388 -0.5498643496027176 -0.020754458938532
P 0.18503228593897886 1.0346488311794186 5.01882098456401 -0.9274329057200802 1.0880186098573583 0.36542240767313194
P 0.19719296383553736 4.708476813495793 3.357406225660911 -0.7434740740745003 -0.04292790971177768 0.1741845258676355
P 0.17250632881201808 4.7457940333655335 7.524537384126495 -0.01307303113387426 0.45340195830790947 -0.9246656273875882
P 2.8204237300812856 8.729476088486217 8.530529233672544 0.8598031223862482 0.7786225969511752 0.2509486674025678
P 3.7450390765045984 5.476416739260879 1.316133189684822 0.8006574652640276 -1.6363567526235367 -0.2693842483999361
Ni 1.0351444361653914 2.5862595520791776 3.4797922057988866 2.3167367264510297 0.9409700209745664 1.975808704374836
Ni 3.8589180888370502 7.070062105267232 9.853264065327927 0.14852363076642164 0.5605634811877765 -0.20120527743085348
Ni 1.4798673102451187 5.110843817015054 5.46237000905659 -0.27969642895922153 0.6459181926051972 0.3788178551434315
Ni 0.20991440959585414 8.346713015523221 12.223122289217072 -0.4011005778010318 -0.8961724050439017 0.870509967280791
Ni 8.777852641839244 3.1709265896054886 5.916410256872609 -1.913111325345615 0.3562001177439156 0.12489827803799781
Ni 4.529021919223032 1.2909041425377656 0.21638664359785645 0.7259504633684402 -1.5888335102315927 0.3854929531707619
Ni 4.282238169818834 7.946713902492496 13.27724288962316 -1.1894882245587708 0.806710613436643 -0.9250363804634456
Ni 7.1427691922834855 4.385516742173531 0.27886682994985745 -0.7410940038780979 -0.43627506881963574 0.6126889982384223
Ni 1.4892195598878306 0.5945938218379475 7.000379126452424 -2.926214931061638 -0.8953002868515936 2.2340472205705977
Ni 7.330447458175354 5.009758755616794 10.617399763932166 -0.590046321138242 0.49282159775611256 1.2739497347379607
Ni 6.004024958309527 2.5903987714990624 7.249797842365378 -0.11967276797300035 0.6316727384297767 0.45584887718650524
Ni 4.0326459921607904 5.850561792190014 12.298815855167318 -0.8930708833004425 -0.2869821639873574 0.6094445231591956
Ni 6.491131236560052 7.954680293748507 5.824919740887981 -0.3344920366428626 -0.4760425785255608 0.13454274310629732
Ni 4.667515979192139 8.97842581523652 4.072283377594493 0.6304725474740883 -0.3983651811477397 -0.5574712154156979
Ni 8.195847186645011 5.901287880291356 5.486629873119966 0.20098647655182805 -0.7032774472509565 -0.45186212462461534
Ni 5.269483301876951 5.206165175983851 8.350758620667978 -0.02971449634529721 -0.1694909770467081 1.0971696802290072
Ni 0.06065929692205593 7.978487688815429 5.660771698385695 1.840519312910501 1.789560819584763 -1.82664049804588
Ni 3.8475742413803355 4.025331229682634 6.581424958282257 1.755999695799866 -0.21952233057248643 -1.781920786541002
Ni 8.904617383806992 0.9013099808514405 2.665028622303489 0.156876116496175 -1.5486368834080488 0.3685501546688362
Ni 9.107154621407938 2.490846414409274 8.331522722703149 -0.4015433217654052 -0.12310339092110412 0.5058702034099546
Ni 9.129236576894066 3.1266433663217943 1.3440128057198226 -0.7548717743884806 1.3584526396780474 1.1526075494823376
Ni 1.7473930460992952 2.875463417134615 6.19861874932974 0.9652918855493827 -1.2143160822357282 -1.246953665765091
Ni 0.7910094200751162 1.3697787582683496 11.4107504586725 -2.2088514380312607 0.2801774823606981 -1.2002611468045585
Ni 6.170933704141085 6.827995781099889 11.733512288000371 -1.263666864754714 -0.5468821270459421 1.7212409521624419
P 7.799656889710189 6.823553691966353 0.06690575531933722 0.1907303460414586 -0.36310070151849083 -1.1150334478833055
P 2.11506770060045 6.928704549823615 12.572037377212139 -1.0828018415431093 0.3762125563101005 -0.5624691828509217
P 6.018782973447387 5.721245602331516 6.498893879099606 1.0486689044151423 0.6532088127293396 -0.5811045385639217
P 8.120294959894467 8.07974712974579 3.2946351008264037 -0.7193815519016707 -0.7284722013490292 0.7897264201738206
P 8.098258893758892 3.0125165514963568 10.470565773393545 0.08665517539639915 -1.3971261449888455 -1.1185070082542028
P 5.023323647640275 9.219721198314572 11.551431605088965 0.6725306529864031 0.11467737164093798 0.10725305415240884
P 2.132937013705808 5.732965742462765 9.787887343169018 -0.24509632238684886 0.39566423727680894 -0.7333094748366725
P 2.2608857009178247 7.27667431719729 5.207725413902655 0.21979332484568598 0.4852275874589385 0.5996673891677736
Ni 7.919758497977634 0.9014100196356462 6.829903860295884 1.1305407994902854 -0.25324106298117033 0.4036390279521694
Ni 6.678873747542695 1.0767201877664556 2.2725379248102553 -2.348543329438665 -0.11094875783644118 0.20559929273349106
Ni 0.0463849555390239 5.829773916389482 11.879969985864456 -0.1386444239794967 1.1484061098064804 1.8788341493302998
Ni 9.142865714008323 6.132423361156963 9.634471901974079 0.4257777688327377 0.25235454661115897 -1.8438110962878955
Ni 2.0570910951117254 8.747960318888987 0.3437259202345286 0.11254027069327716 1.9351739615726091 -0.2675214841595844
Ni 4.028359926819135 3.319332749294056 12.947187406918385 0.2619848706120714 1.5408279288865916 -0.8306275292635565
Ni 7.34362687965419 5.32286179444026 2.733898441826497 -0.0005913537270957558 -1.3152483363764316 -0.5368764219834818
Ni 1.078858631502228 3.9315150414119766 10.571580165191955 0.06354738573434218 0.014318730615517274 -1.355514640095646
Ni 4.856791194483254 4.858232120090619 3.7161269500821543 -1.997541468066237 0.005916879705067229 -0.827833254347871
Ni 7.493033427184814 4.2363212856554515 8.521260502647838 0.8933200231967712 0.2470668158496584 -2.076061673060328
Ni 1.8006889378316087 4.586484563985562 12.932558799749085 0.3301026493259153 0.9237464580074285 0.5963465523246568
Ni 5.199869157087973 3.678774854305993 1.7062128606999982 -0.005345066361997246 -0.5822443085953198 -0.7479279960807959
Ni 7.203921340830482 0.5785307135703576 4.5482183523463835 0.02933423018774303 0.43208545621832034 -0.5079350563587833
Ni 2.316705506930556 0.7010304992977049 5.048091047920768 0.4450461301440465 -0.07104009456696153 -2.4344914514657106
Ni 3.5011647119254645 1.588147821810098 7.306698801477139 0.26840234410264097 1.8548298159959022 1.5728067957860332
Ni 4.568936476334075 1.6874248427965681 5.409660583224344 1.8399824665704247 1.4546846601296044 -1.8461901380430332
Ni 9.103198959390266 7.934608291816602 1.3240784718395773 -0.23904008889043993 1.0870580457163022 0.5352813095822202
Ni 1.8958726287487468 1.6831020659744709 9.158845303657905 0.9068291134267996 -1.0910936492382564 1.0375028604959937
Ni 4.38715958092333 6.458852667381036 5.349132529844871 -0.23258636284529619 0.8848253554621986 -1.514783939414346
Ni 5.6249605670011045 7.701857505811527 8.019869787357159 -1.2370117240610308 0.14595998380430347 -0.33539089430804814
Ni 2.4650933108789017 3.449777817176158 1.5039830817477582 0.9667340173125482 -0.2938773484452939 -0.2530294611909965
Ni 4.1146043722485395 7.188731965797422 2.7147836917471295 -1.0894273172794269 -2.1431273563605733 0.3401685182023496
Ni 6.215299528255773 6.834337689346321 3.835114364918171 0.6331994594869482 1.4513106014510488 -0.07988931742747532
Ni 6.5499889175793955 8.580968972226435 0.3034038656905738 0.9400773339569681 1.3216917780089303 -0.40249514415571325
P 7.153745924935777 1.9680290435583643 0.46670479078164984 0.5662780150740505 1.3537189816478044 -0.06190882168965467
P 8.977095024070481 9.185028849296465 9.46246576708309 -2.8612069016213693 1.532908931149831 -1.2382767068163834
P 3.0186749023405763 3.2887245524751703 4.390813291014363 0.08191740360109763 2.1488431757984285 1.8703834474597856
P 5.832563988903108 2.808501676807603 3.642663606568786 -0.9435346963779492 -1.4875384734348316 0.0865613301310122
P 5.783352249370015 4.594808892175886 12.078303758954743 -1.0867142892236379 -0.7955599961364621 -0.6068050286538195
P 6.458558975537496 6.81221902237975 9.628386974090747 1.0137836625021832 -0.5124154607276401 0.6673827902368764
P 5.834803389210096 0.4584281875159016 7.091143672911303 -0.3096405248168215 0.5826711117200933 -0.33204897441900877
P 4.756385295473177 8.841400214485109 1.7342338159347024 0.7151844831011877 1.934344009472146 0.5589745394341019
