# total energy = -340864.7100447518 ev
CRYSTAL
PRIMVEC
9.30539208287881 0.00000000000000 0.00000000000000

0.00000000000000 9.30539208287881 0.00000000000000

0.00000000000000 0.00000000000000 13.61938191673914

PRIMCOORD
 96 1
Ni 6.379144189153726 8.55919288468735 5.6962931003179955 -0.046705374476338914 2.269656228023459 0.34041225878203957
Ni 2.390741387823435 7.389979648510225 3.5557206705074114 -0.46008914052009797 0.9480017310103673 0.8187824569995124
Ni 8.245107978634087 0.7951625211116713 3.214786916072212 -0.6613273280714159 -0.3799177730758296 -1.2893074481409539
Ni 3.4448655321252666 0.08349170180642608 4.717753865991539 0.9531822467700422 -0.69415877277914 -1.309246353156726
Ni 5.400793854290809 1.017609784945537 7.252171441352467 -1.4817275231800096 -0.1447325391551056 0.9388113227603511
Ni 2.543033438084677 4.601293159292313 4.005011065494183 -0.11144112409182742 0.3042676905406825 -3.772597923387238
Ni 1.789510686404083 3.466109742729349 1.4392827061470013 0.6460860856416292 -0.05039207929930675 -0.3653915544351965
Ni 2.9269646186864486 4.2806479516727425 11.211965744618285 -0.36830461431693345 0.9785996584018825 -0.850426823377671
Ni 0.8875520390283138 0.43060702834162173 7.756333873610441 -2.8556551185652044 -0.8823807505764482 -1.7729118981741725
Ni 5.719028965306587 5.887242541780525 2.5689694274827057 -0.6656138712619117 0.9111963892565599 -0.2828982237259709
Ni 8.676850264835409 1.4170065275376655 10.918767722105068 1.5350187784039822 -1.3627458677367628 0.22261331079298435
Ni 3.9855553512887445 2.541395689041174 12.327310995352583 -0.5094604918643741 -1.1048094561624522 -0.5568328105007506
Ni 1.279556577983174 0.438911160423568 3.3086383111180275 0.15999152219670512 0.21106417250280424 -0.7504633609081398
Ni 5.748694555935503 1.1815987133186199 3.773876287415914 0.5537130339248464 -0.891280109948607 -0.5730693269642712
Ni 7.974618835471811 1.0125941784998076 13.228573599384863 0.318660983147877 0.6891528349241163 -0.5376238416724676
Ni 9.318047626151623 6.802325514445825 4.35607746159683 0.7842222025261397 0.6816938075429098 -1.3138046619513695
Ni 3.3610983907069785 6.290528938350975 1.7954568320790758 1.6535006113926747 -1.058225694865642 1.2201568572872212
Ni 7.076090155695107 3.4624620289506365 10.065935962799028 0.40740338009060806 0.010698103143794479 0.5375688200648161
Ni 4.514864675678331 5.091612889975764 6.658243611804374 1.0336212660534005 2.8627133109635667 2.099849776618861
Ni 8.386996600312164 5.536559527840334 9.435562633797606 -0.5101534041663408 0.28421488565486536 -1.6648476609743779
Ni 6.554429863770065 4.314082226180175 0.14704753116511388 0.10836582760061336 -0.37408265445129124 0.1970182359326994
Ni 8.78034483791408 7.4297695059535265 6.466646515038276 -0.8228728250188021 0.875788184960595 1.3751959205746573
Ni 3.4892336425765436 1.5102744744867327 2.8302164550199365 0.1833469090931939 0.364700699015759 -0.45379199465747655
Ni 6.812570751360015 6.565931328643761 4.940363043651297 0.651422153142562 -1.9636774683289406 -0.31405973693043976
P 8.709493580997968 8.501834446595556 11.913295481468728 0.22325557236267357 1.9949803922072802 -1.1660256226604562
P 1.8029476728746459 2.4783051292971177 11.318823286471515 0.6058429218508663 -1.2117542350458228 1.1643140392859883
P 3.128324002506748 3.271599127636428 7.991540691355965 1.5430958989851618 1.345678884952147 -0.03408537171948323
P 7.492041191175831 2.821934655879493 12.178560577397915 -0.40390539423967864 2.2865784577000943 0.5512380900217926
P 5.688693386432602 6.22839683401306 12.874320106421989 -1.4826394934713176 -1.513479875890942 -0.7837447486690889
P 0.4353462646362601 7.351176162649943 8.479264217589773 -0.7878631417128367 -0.05901607352289191 -0.08664231988059272
P 2.0437526146234193 2.4256552197053964 4.09082632375608 -1.4003731911712336 0.5832077009498536 0.5504243358712456
P 2.1334845125012856 6.046299612238513 5.3968976865378835 -1.2949469058149183 1.5672092470935977 1.3190869933962315
Ni 2.6410006081415243 7.4195707960008 7.108813498231383 -1.1751350411608923 -0.47269063133419237 0.03017343825958674
Ni 7.41416436307878 7.367600180046441 13.073844466882178 0.3393563067136994 -0.018422725481561823 1.3157502157135146
Ni 0.2743127288553178 3.4936630093078374 12.895403333739408 0.994196484398875 -2.291629132750124 0.0014056220982749986
Ni 0.6467712912995012 6.888474836291028 12.62785004184546 1.4663240441407457 0.732316514795784 -0.04045425136030452
Ni 8.740917890770191 5.22914658806089 11.867371509426121 -2.412980059756496 0.44635405032219255 -1.7415364691866846
Ni 8.458099102820178 3.149428632226441 1.4041176286731387 -0.3395280564048733 -0.7314698505247725 -1.2935024600589078
Ni 6.8160881896466305 6.510508412148834 10.743349910918171 0.3090239742787452 0.07310031953009992 0.9575955453463896
Ni 0.3802034404493424 2.7771571081673394 5.613582120924922 0.4612361096403476 -0.9487717764071725 -0.5956636673250194
Ni 4.5774899658077555 7.215773399399831 4.444835084901658 -0.30152766590170005 -0.5076756320498095 0.0749815957132128
Ni 8.852768706127648 5.321223444796499 0.5268275762651414 -0.3517287122361233 0.9774089805278908 1.2558203721271017
Ni 6.61882317843509 -0.015169650515451362 1.2096870399539343 -0.17451491262386074 0.8948570286665879 1.1680907327196013
Ni 1.9720917885778477 2.029301340392959 9.110685333763346 -0.44014380774642264 0.49535747680408876 1.4055539640412245
Ni 1.0701108082605761 5.944731255364416 2.3289145003527185 -1.461146613704864 -0.6449691984283666 0.10737826687636344
Ni 4.645223916305836 7.727560670102389 8.87287765887203 -0.357198734211759 0.0993062885015064 -0.49330882180517627
Ni 3.0493212219422885 0.4234772367670059 11.090753704614439 0.7342386715191613 0.28151059934982486 0.16535175806735394
Ni 4.578187870229703 6.190430833459114 10.58424817457718 -2.7179833429116225 0.5470909006226384 2.777133370909217
Ni 7.757095985239208 8.185116114523478 9.282903020540804 0.08904527289513052 -0.29905606443275595 0.3942033364605662
Ni 8.67176021525134 5.012358863819403 5.548046104086362 -0.26662571181819245 -0.8328476768433268 0.20966112150769053
Ni 1.3132793196516785 8.659430570463599 5.45429055458116 0.551514997832263 -0.7869552851865866 0.3426658307029066
Ni 4.41070011435459 2.79789882758762 1.0616419707350502 2.2670804968764826 0.24818524572481773 1.5388576925340982
Ni 5.181782141291384 3.825111777379155 4.945061336219848 1.3061695140036151 -0.023371841956721037 -2.0419500760885994
Ni 5.058383334098769 8.26031298964025 11.879234023520771 0.8341939064585763 0.4384674484852642 -0.8595030746473261
Ni 3.135033190349737 5.514980323113717 8.784787232194585 -0.03540254786901 -0.8278882759555227 -0.015351542755405819
Ni 3.902811803022646 4.629590857254211 -0.09547332492242117 -0.06739941249058069 0.1866939711885559 0.2931150163579726
P 4.640775938789957 1.8273371060736385 5.458008058802068 -0.3576671892077453 0.07469954569641975 0.4045075466000518
P 5.652839709929085 0.21752378077183326 9.418661249776497 0.354585464958628 0.6700397682437493 -0.6730739270843827
P 6.706982465015502 2.1592325329750026 1.9764857948184293 -1.648614229834651 -0.30301967706619426 -0.5133600840290965
P 0.5864314055171476 1.4413866553443657 1.278760966942154 0.43913130732150824 -0.008214931710624561 -0.3031826850066198
P 4.629786270492357 7.590147942117067 6.626128841924037 1.5371756768459848 0.22303959969712553 -0.47522831015438155
P 8.010146823245087 7.095091766756665 1.8781268677460623 0.4042175261634587 -0.39843922891878475 -0.2910969574866793
P 8.96605255189817 0.552198728351007 5.163529614309383 -0.9335187069028439 0.8163167690678392 1.234764837008383
P 6.127749710975935 8.185814018945425 3.1856145112348058 0.17786763114617754 -0.04605257138368843 0.4709067999608922
Ni 1.155739028137391 5.883566911824936 10.247713079078707 0.858076883723761 0.9665877215426709 0.2304027249304161
Ni 0.8980755071720531 5.5100205490217435 7.543339957806661 1.491281999637664 0.61504412873416 -0.744527455039679
Ni 6.087783051079074 3.379485845877223 7.968864380878046 -0.8801418339436003 -0.33668930140449754 0.07725239402526049
Ni 6.475166532221412 6.716492575938573 7.568807885972371 0.3634426582389418 -0.5984227181273952 0.2420338814114412
Ni 0.7943073555599783 8.702886752470198 10.102898842063828 0.2187934228262619 -0.10874506531690303 1.1000477731077505
Ni 9.035712718600825 8.735548679417342 0.8709177197660019 0.6202894362934995 -0.7566322087230131 0.5950234626378591
Ni 2.998178785901974 3.754176771932409 5.897383558301038 -1.6849796558375625 -2.8888020376308186 1.7686960603206119
Ni 7.176327841471357 2.421681817196442 6.019508457288791 0.13965949550757237 -0.5122131149088469 0.07140262011270283
Ni 1.9970953776681541 7.953793367520897 0.736894015653658 -0.3365766870860333 1.009056946450475 0.6333385561679739
Ni 7.469429087904731 0.6033876913527847 7.766520486553187 1.7715782669644136 0.5012579014489238 -0.17284703800313456
Ni 8.899267751413939 3.7119489017084373 7.644532376832136 -1.5129342878001169 -1.4739136835625455 0.8139858069418175
Ni 3.4787092438935754 6.782523639647101 12.90006068258187 -0.784017028493869 0.6645085540128749 -1.8186520805237645
Ni 7.5570486617321695 3.019441607290642 3.815047995614672 -1.5877947845544331 0.34586531147681077 0.2134694395101872
Ni 2.9944380182003356 1.1600474247688801 0.3959565390615419 -3.3001497470811554 -0.5965478697021855 1.398577018502759
Ni 2.72737325940175 9.220145593840824 8.737732654988424 2.53376765806023 -1.9591656965015163 2.247948661143038
Ni 5.004356226447738 7.742021249725141 0.8919758225242318 0.5610895288945756 -0.31407670621130424 -0.3775474730714401
Ni 7.805884157029486 5.33496750921272 3.0965302686605067 1.8255593491665592 -0.36935568128926716 -0.5511702128983347
Ni 6.452777758365335 1.2072629852617032 11.09038521107965 -2.0854963361106664 -0.6473808931936529 1.1807778412689662
Ni 2.9847138832545332 0.8328670401421937 6.753892808641126 -0.22708445919046052 1.8355295730053935 -0.12080893845997259
Ni 1.2027963969612394 0.5197387284166131 12.524479230484278 -0.9400457093880842 0.28548938149191483 0.6533741346626102
Ni 5.343016673545847 4.22180995620642 11.620384065038122 1.3381100714659535 0.19134766791048335 -0.2165079692261949
Ni 0.21627220550847404 3.696185567164716 3.2267583032566853 2.7729039062089016 0.4835167754154188 2.064580926114238
Ni 4.675243111841872 2.4425072851473564 9.842142208700418 -0.8435645490401988 -0.37478096606989647 -0.8382649912041563
Ni 0.19314086134744535 3.5973902171938246 10.387216728712184 0.8095323991561542 -0.005401630631545536 -0.9999179602636844
P 6.789605043181795 4.691639213061492 6.503554492488549 0.44381328617820986 0.331537582000229 -1.3338456397626448
P 9.039434875517879 1.8330227007644377 8.897760277862531 -0.8192645388422536 0.7848868326933321 -1.1083105273371752
P 5.658283364420274 5.149203962874874 9.286225976128504 1.6494410966113207 -1.1061783114855206 -1.433315964645841
P 4.68010983201092 0.6603962466943754 13.086088502060825 2.555239454780761 -0.8655472239588772 -0.7921237167614035
P 1.960115748697228 5.611598211288133 0.3983229003215586 -1.3645366410885984 -0.8677329187562861 -1.2915769609014207
P 4.283402347791362 4.34021176773789 2.749072503688942 0.3871690553216042 -0.4981712921038001 -0.968323730397171
P 2.7724392742749746 7.416202243990867 10.537452287276754 0.2314036553911047 0.8272347015319237 0.13928514288728916
P 3.5269483975385882 8.819325126227923 2.0088722821537113 -0.9264582005116367 -0.10412530715670454 1.069138999344036
