# total energy = -340869.41884710843 ev
CRYSTAL
PRIMVEC
9.29043208978085 0.00000000000000 0.00000000000000
0.00000000000000 9.29043208978085 0.00000000000000
0.00000000000000 0.00000000000000 13.59748645466180
PRIMCOORD
 96 1
Ni 5.666503852836942 2.0842991116672844 1.6788953209390358 1.1677721730379178 0.2256166163956824 1.5218243912008953
Ni 2.987022510404854 4.662254614036345 3.068014637829951 1.5600327839498165 0.7757573595882381 1.2971009760434433
Ni 7.784062710791345 4.76254482665351 4.7945550098468805 -0.11190186577832986 0.8792949125622728 -1.4098237950611718
Ni 3.417977776053064 6.12756940835011 0.32288152916530555 -1.5361004415039352 -0.4390122652451407 -0.12114832407726232
Ni 8.030500708001435 1.0886992649877232 7.580340261480394 0.3650601392377068 0.10828355229945222 0.8420069747450918
Ni 7.6289589498239 3.625526025230226 6.645553724087488 0.3133745379379571 -0.8670392351233713 1.8806465199486901
Ni 8.02359791708207 7.639104101484664 9.952027736191388 0.4601287355087818 -0.3425830411811132 -0.4077116553596462
Ni 4.072182120829618 2.2820366647329386 3.531267161017977 1.0920642406816417 0.3680372195881597 0.403414313535873
Ni 3.6486127485608106 1.7270727137661628 8.509361156821404 0.17449871467394465 0.13019449343993061 -0.03051668053161841
Ni 8.327515816604562 5.065868138532882 9.257862456581096 2.2089072309698605 -0.2687365875136082 1.0003812730533481
Ni 7.7075838751948185 2.95827791403269 9.729096389834838 0.2490607063512356 -1.6342047392775405 0.3638730609081411
Ni 8.977390820104636 8.81952780085583 5.839413655629496 -1.0700453132083894 -0.9025194303078522 -0.38310336989266275
Ni 0.21203924396911553 3.4450129329512533 11.510435445510971 -1.0747028665850589 -0.9340298422113076 0.07871638016529668
Ni 8.1505237980247 1.7242484224613348 5.211793881802828 -1.056342104689684 0.48261534664707206 -0.46471352666598675
Ni 8.418255465204085 4.338009249464629 2.013855340648443 1.11394664257703 0.8290357592964045 2.2607090461325
Ni 6.214165524311629 4.977413936186608 10.29461612955341 -0.3137859144437628 1.7515992527393254 1.6951290855667387
Ni 0.5047473083323805 5.060368202834006 7.403776531812219 -0.6971425379978123 0.006081944528021783 -0.7384326549958508
Ni 0.5235808719282598 0.35972459504542514 0.8193250494442147 -0.26141254304836914 -0.8305833062891824 -0.5062080463653476
Ni 1.1928450068532555 2.7707598360831898 0.736635560106644 -1.2934258411847015 0.09170353645358399 -3.594339484560545
Ni 2.6525855420127553 8.31272544898191 1.3374858833881433 0.7274607293653794 0.20120784853401474 -0.21622977586414377
Ni 5.296623886655636 6.953284416871498 1.5164056665921888 1.4512956890527133 -0.04489557496110978 -0.9213267928223422
Ni 4.399651265278885 5.8044481860411725 4.426117847743338 1.8343342671457117 0.7058426368749715 0.31810896729914895
Ni 2.048893275605773 4.928211808718288 9.255496183570111 -1.1004473225390143 0.032588989679614835 0.6174573661613431
Ni 6.949986313538558 8.299598068673614 6.846075619600698 -0.6024925173213946 -0.16988692693354615 -0.7352048920871725
P 6.387097624140801 4.255194339296088 8.27250624014069 0.6252789190882909 0.6771208434602468 -0.8331978610938942
P 6.850374302451828 5.641856336943164 0.8953291439694361 1.0234255564673211 0.02244958725276779 0.9180895168319672
P 1.6836956871140512 4.839153728296969 1.5488348482653223 -1.1443162560078228 -0.4570886631308773 -2.4455880755995043
P 0.08258636554321686 8.301391122034904 2.73355723048762 0.3094541198376284 0.7151160917570974 0.9538175663611961
P -0.13274633654287737 3.259724558663459 3.916184620311106 0.029338601063117215 -0.048201756516207304 -0.3962270517588144
P 2.809277966839166 -0.13650152912646774 5.564077769920501 -0.39582930209976347 0.422519152686124 0.5361850523434121
P 3.071361051408895 6.66315351832389 8.425655294231374 -0.43023323350093 0.4635804415028081 -0.34354180554995667
P 8.648277269204863 5.477490015347714 11.269242826165044 -0.053996251710797326 0.9664218853887679 0.8772547422037924
Ni 1.7754201214974943 3.352461650126594 4.968508128144475 0.046843956936732226 -0.6954093573567895 -0.0573890794424302
Ni 8.826681433437138 0.8786425991911416 10.578368217542154 -0.6963426678043363 -0.3609612865779848 -0.1217533046511129
Ni 7.602499799704986 6.325790063875801 2.977250834107426 -0.5617703570116841 1.392544439155434 0.15347120457968408
Ni 5.490951851205265 2.5826657513544156 13.033462402935236 1.1567645090735046 0.07666309718069379 -1.40952374732225
Ni 3.7041974027607636 7.201320368372477 6.260146659031975 0.04726510363455086 -1.8822622011752423 -0.43986947103911345
Ni 3.416853633790287 1.5814916455205883 12.84213246076741 -1.3163153441883655 -0.14048944760803547 0.6820331931601996
Ni 3.624318269080135 8.954805780097937 7.5582987117412355 0.26804007566721577 1.491637840315186 -0.4442076934031511
Ni 5.082247170014499 9.177274462944684 5.462246274647181 0.41954515765946454 0.16563792184920506 -0.9864065560408108
Ni 1.2425488176454584 0.804503094353022 6.930516355355901 1.0742688643714335 0.8060740082939085 0.3974935771760638
Ni 2.000703805217145 2.690639151172543 2.669077916763843 -0.7251279674671447 -1.1584256988260115 1.2932414930880372
Ni 2.0766623766259404 5.562265206652173 5.39296659474839 0.599654019431335 0.07279255848169398 1.1996350831847855
Ni 0.9295634565653593 1.275780692636806 4.211712330763237 0.6113414830715923 -1.9768859965994148 0.6326975801498652
Ni 3.602411430603871 5.819870303034641 10.79134579513557 0.9666782243739481 0.9464428711636798 1.084390526186468
Ni 8.16171876849285 6.937583586920317 12.990657666889629 -1.9044585347666232 -2.774789553267389 1.0680655637741994
Ni 5.252466463721928 9.239603970721298 0.5765363338937846 -0.29261776500657993 -0.21161670257216458 -1.42833908025654
Ni 5.835952040694697 4.454436942333393 2.581346510021239 -0.23988855293366432 -0.021148609053157123 -0.11625345787880624
Ni 1.201243557312349 7.187700595172222 10.02051772937666 -0.10978481943532704 0.34436224456872305 -1.1686885142046002
Ni 4.314104968124752 4.803645697484296 8.692954956326302 -0.1556854386221835 0.33062818281208217 -1.4786478558134213
Ni 2.3272253256101867 3.5653426072280037 7.3063236171045745 0.6708499228498704 -0.794726187381257 0.17312574558581798
Ni 1.2414711275423003 7.574665665661351 7.299049208908258 0.3986608580112876 -0.5085850312379563 0.5899265077309259
Ni 0.7910756330935883 5.857914621762505 3.4536121567399003 -1.0458332347385602 -1.39689140327022 0.9062195048672586
Ni 6.873238055416243 8.536225369772197 11.918767580381594 -0.533169662555856 1.7780692740053958 -0.08148854359379515
Ni 6.2953917706212055 0.12041421720725672 9.417237958147094 0.5673352526939713 -0.6186624422130377 -1.0467894280042425
Ni 7.473502152443351 6.320336580336544 7.756822235347641 0.6357741621926599 0.045092778573580405 -1.2082552207536288
P 6.190809378455255 7.204311887451934 4.6419782463627035 -0.17545670771183977 -0.3664400503043689 0.8776375794645078
P 5.890050225786847 0.8112646707071465 7.324693588147458 -1.6157442185795075 0.4783835679539116 0.21904204850195824
P 3.7638977183029505 6.9529871230499385 2.8259515050127675 -2.2387901345722216 1.214736200492282 -0.2413052307755328
P 0.7170522586545159 1.4731094666978144 12.355818298414993 0.8615306466003162 -0.43082741544150316 0.7823075020019301
P 6.531229385006267 1.4100274339353733 11.153772976827621 0.9382143126063003 1.5016234907729882 0.173943613501423
P 0.248628681057716 9.063141506761092 8.71669572606432 -0.1820886112060606 -0.6768560198346343 0.6099188916924528
P 0.2532348772055243 2.681125748882596 7.412832844851516 -0.2844953930097616 1.5890533395518824 -0.09534833229502288
P 6.253157467095718 1.5006277260560397 3.8873313258854343 -0.5877842645769426 0.9439797543351678 -0.0356876832095966
Ni 7.908508046410328 3.0460632052804524 0.444751557055018 -0.823558281121601 -3.697744625721773 -1.1391218562910768
Ni 2.262396691646076 4.370014787442038 12.343022586526375 1.1492962257209174 -0.12211505886590583 -0.07363048100195706
Ni 5.285308140572478 7.251497991192793 8.460709022922973 0.15278034916024655 -0.41964697334465145 -1.0391473380779523
Ni 3.6152136457948347 8.483325650398214 9.69152681217828 -0.5282696541510773 -2.5934383344479857 0.7154727037655678
Ni 3.751392796933547 3.4239701046439 1.0161196236696057 -0.4411218553889758 0.6978801874947852 -0.4863218489643818
Ni 7.495715575173101 8.242991466962046 1.4794204571036356 0.29443219250749936 -0.273135230801936 -0.8071155621845454
Ni 3.04699224847283 0.04526298433263803 3.476605046708054 -0.382504045745767 -0.12190808506142232 -0.29579462007266477
Ni 9.31783869795142 4.759748406644453 13.35269093426811 1.3830555258283923 1.4023411135308819 1.313829344541718
Ni 1.4057445448185124 7.759591713104118 4.737663191875253 0.20178146164929767 0.5851262581288051 -1.2121499278223447
Ni 5.466387949198801 6.73078786272898 12.669852549259287 0.2586308665381739 -0.8348217698505623 -0.3062638950351048
Ni 3.7187926713130164 8.44296801412133 12.48795889879644 -0.27537748986889343 -0.904944494809577 -0.33916784485197715
Ni 3.620750743221405 1.9346395438071724 5.88802398258427 -0.0809421841720219 -0.2154167930445451 0.5480347525931464
Ni 5.674623690338322 5.5421049693775775 6.467834264687995 0.3219828484322584 -0.36768137891063774 -0.34348267017724715
Ni 0.9466206895774125 2.8173606426128517 9.510707135645822 0.40896943902614735 -0.8751487516043831 -1.5640730154574611
Ni 7.067566019965871 4.614148757535031 12.664059964954811 -1.499272474042308 0.13136357404736732 -1.5536268804234727
Ni 4.498965982544053 0.8091668911787578 10.72008167897786 -0.21298992877060738 2.4764428561968317 2.0103548177808217
Ni 0.6789856428900349 6.720048123425096 1.396475480888161 -0.591615979618207 1.0770829367814614 -2.3740306750764923
Ni 8.57567254372055 1.5519759432987512 2.4463648955575015 -0.9785443796839147 0.40192204526106257 0.5214369474999601
Ni 5.329084655797311 8.884319273092245 2.844254584945799 -1.2069511572302245 0.17343376374454 0.7626779006964607
Ni 5.378695562270276 2.9562154381456116 9.594467811784204 -1.1992892698095927 -2.7693856086429984 1.006733440523621
Ni 5.670210735174528 3.2769397290182165 5.134138877524752 1.3735992655114988 -0.16285341712553242 -0.48300589721727144
Ni 0.32255450596158863 8.230105637883769 12.27355338181634 1.5687768486910336 2.0738556665479444 -0.7964426558517316
Ni 7.304806489571422 8.92900625064561 3.861577319549534 2.5344150618362415 -0.5456917062822667 0.9899328240265145
Ni 2.1482358641667125 0.2844878901971077 11.142963559284308 -1.3598163527947937 0.4525637786773302 -0.0945093813334953
P 7.2153953727369995 0.8868107469385257 0.6589155228051012 0.5789016173753321 1.2124695159452925 -0.5991685951544842
P 3.074519798262979 3.0035687696610993 10.133921386654235 0.08292193360621203 0.908227793546539 0.45818755262201083
P 9.208834060189751 6.282357294632147 5.673211544685909 0.14979658394157427 0.7927757485231056 0.2653843832119236
P 4.5574399610723 4.605350718503216 12.764939190955944 -0.09546865992297107 -0.3328380459792074 -0.2088280840834339
P 3.5779218520527967 1.2321992764823715 1.6082564508497954 -0.37752459025330465 -0.17005893373503614 -0.8025811646493016
P 2.0783160735083723 7.028574077181782 11.929197019259224 1.0769620949328806 0.08355416787357223 1.3699570407732213
P 5.7540568832866095 7.159448391692019 10.492242197435978 0.26006219966806177 0.8125164214851427 0.9320822315666335
P 3.9606969377443026 4.284282681649431 5.845246188791243 -1.9037908192756376 -0.953757659657538 1.123779826617368
