# total energy = -340885.81251756626 ev
CRYSTAL
PRIMVEC
9.14467834620940 0.00000000000000 0.00000000000000

0.00000000000000 9.14467834620940 0.00000000000000

0.00000000000000 0.00000000000000 13.38416111793206

PRIMCOORD
 96 1
Ni 6.7496232091882815 1.6666633852246402 11.354801014069693 -0.45206601310530525 2.1614418383990452 0.1548338892551656
Ni 4.772580290025426 0.5429881493302026 6.117900586223947 -0.2295696875061595 0.25603302390401067 -0.12871816600472025
Ni 2.7580716229310163 1.9137160203525043 5.096247041865655 0.13821736374440713 -1.162465416113024 -1.0309493756481922
Ni 3.4540731057405267 4.853400958860933 4.909484357808804 0.05221884809540039 -1.0107315059394204 0.8749682601624609
Ni 3.715482886158247 3.192480431752235 3.0328106867719806 -0.08259026129840615 0.5535001465830919 -0.24975413287383438
Ni 5.5405595375333165 4.763078969034241 3.7627425847939 -0.7026395565566416 1.1538175106300386 -2.1454122957400084
Ni 5.601344215712725 3.234024706307532 0.43244636080898796 -0.5319705000414323 -0.2604491506938353 0.42540778708782867
Ni 5.711171804840858 8.063484896780666 12.924014132554621 0.9056967995945692 0.4317280728789016 0.30665444560530414
Ni 2.56803605842879 5.625659915920194 12.140518194519451 0.5371564151177458 -0.6446894624044188 -1.9062205117630526
Ni 1.2308371512314924 7.843976033380858 11.74477582992059 -0.20101887245166025 0.6921162884278145 -0.20410522468646783
Ni 1.0350953073274383 9.00834051638817 4.4913494188970295 0.3083989391002366 1.3745996817515551 1.7835632072404317
Ni 9.058471644081795 2.4188223388781034 1.4594760616742268 -0.8560369704755966 0.7696121659224486 -0.2363743691328187
Ni 1.7360532058994342 1.5620116841436777 2.9132101797003638 -0.7645846308008704 0.44709375670169454 -0.516016290705021
Ni 2.3284271916231822 7.1115330066349935 0.5794123183773523 -0.5790682248601834 0.32390243405247443 -0.36577310614433134
Ni 7.522769200064815 3.7552622377575293 4.155875972608563 1.5200027646111243 0.5320347776204644 0.03214778837713818
Ni 7.794000365222219 3.791191679696283 12.938790104121084 -0.014378894429491366 0.3950893386099454 -0.047565408483789054
Ni 8.537224967953268 0.2897939481025504 6.80203136183552 -0.9149293739364307 -0.030669404059398792 -0.30036578438311495
Ni 7.16611759277203 0.9509825542216456 0.2707464971953906 -0.16812443571648464 0.3433818829333247 1.8150468796710095
Ni 2.0083634431232102 7.141747024493391 9.491752914040442 -0.6332904765388577 -0.7127252229274178 -0.4744032431499249
Ni 0.06830160392989404 5.325970511181878 1.4363217356398859 0.5550438369211279 -0.7313677777292695 0.03624149883053758
Ni 6.525624308630944 2.524626269453665 7.258926935158494 0.9094230994062209 0.27759789455898 1.0616180083766427
Ni 3.4572280198328835 4.510484658718063 0.8408595919770394 0.5934797722998231 0.014040537253466143 -1.0239621456970818
Ni 6.475785810650234 6.267195693413538 5.304678956163807 -0.2575471465556919 0.785262470865196 -0.44377317696889373
Ni 5.389708920526014 3.0092302187182085 10.0144984029798 -0.6276551326299513 0.32127965171764666 -1.1823670401329573
P 0.511079622540461 6.021057526138531 12.675256014881178 -0.589558582868546 -0.04580471703894047 1.0459761880743277
P 4.300157052560938 6.50876152142426 13.242597357600818 -1.2046754738221703 -0.5313333806780656 -0.9645007571066551
P 2.4615188429279993 9.182263157323055 1.4336441737667207 -0.4094062694532497 -0.9752716224699138 -0.28700761790865414
P 6.698943400782943 8.439056843949063 6.028453742132439 0.35592706658818707 -0.8495048257840336 0.6904047050533464
P 5.1375261207436225 1.3285663306663267 12.899039101025242 -0.28920025468459876 0.11283054824018632 -0.702112480408578
P 4.172753391300892 6.48483904239352 8.587371641600392 -0.8292532746238492 0.23128332776315652 -0.7571207183236573
P 4.771236022281727 1.4356322268788317 3.5803035047453573 1.615661429057714 1.0269567095490313 1.9343198411024298
P 9.051713726649181 5.63726451297295 3.7756182921621275 0.29125508033109837 1.4918589551870565 0.3561548663282769
Ni 1.1167024185164025 7.675558488920172 2.502690929067183 -0.38491239807694355 -0.615749639441617 0.16994117721024926
Ni 1.8897112392150064 6.711681937973243 4.779644554188747 -0.5966653691166562 0.2930096011283599 -0.022057751130987818
Ni 5.928943179320239 5.952207241496923 9.890828513962969 0.8764016501748778 -0.29653021268710866 -0.769962350173016
Ni 9.209971533264623 3.106172955799586 10.497746196418557 -0.6701202437726975 -0.7555142930684859 0.7106675690674406
Ni 2.3509322454819945 5.639395223070107 7.060533134481155 -0.3073249893097675 -1.5919800262803743 1.3070658005656395
Ni 0.23702275171772785 0.8547156088835297 9.787555830404115 0.9094727216972337 -1.0175855527467765 0.22490622059221912
Ni 1.9256772598678746 1.5507180061608932 11.718943942013082 -1.6554590206706261 0.15415974600627647 -0.4579674661914049
Ni 4.494152262866036 7.2963926830900485 1.8431328191297318 0.8442181234637977 -0.03438490523777304 0.5505207522397938
Ni 5.467082045556251 8.075665608580723 7.962866913398657 1.071252703252929 1.0543212176049133 0.655495037660355
Ni 6.897922460886112 1.2723357023941462 4.9414861603195375 1.3790736583625087 0.06664145127863362 0.5428354677803942
Ni 0.9455323258186175 7.572607698045524 6.9481596668506675 -0.22186126311830823 1.101815920751767 0.2297473507346043
Ni 4.9668864194004945 5.030094437389975 6.948748584147907 0.19225063934072698 -0.3275019784782747 0.8756586013612663
Ni 8.269148716888221 7.776122518698863 9.743482137767815 0.6301480742551341 -1.0618481221095777 -0.9365292115943936
Ni 4.741826736133843 0.5277000757661382 10.479664423564014 0.2584465184415098 0.6729883093491119 -1.1735671824531402
Ni 8.328287352932486 7.6566747277586735 4.549169392297475 0.03336392017242641 -0.26487401923440834 0.6937468820527021
Ni 7.263334670209265 6.518948693305087 7.642757441506043 0.4794706303705032 -0.19606178555670103 -0.18104037244720433
Ni 2.6046330619001297 5.679211153383505 2.6655229038826174 -1.6096352774682925 -0.9352508591026022 -0.5162985978321302
Ni 3.5172994130870645 4.609978761108912 9.28104580372438 0.6556220501565225 -0.16305062073800305 -0.5035592958885908
Ni 1.0699914005924638 3.77444777331047 3.9557693736428217 -0.15735614145638707 0.3957028038242282 0.6876513106779254
Ni 0.7002080349326532 0.3485411919057938 0.29195849351026304 -0.11791207652815178 -0.5622051305562576 0.022709525782373792
Ni 1.2281303263870356 3.666604579423037 8.404329927236816 -0.634404535538643 1.0890257109656343 -0.1796622611527551
Ni 5.442245098672653 3.067875042121932 5.312695181361952 -1.6853059288287298 -0.09177732711431291 -0.9166859516162214
Ni 3.8970962017356596 7.092082275404723 6.389451815129852 0.8574608474063168 0.9765062662079635 -2.1572437411572976
Ni 8.318246495908117 7.502833800872531 0.4228096985755802 0.06425546754496031 0.41296981843479197 0.6638845472756308
P 0.16862512866328383 5.998104383031819 8.404864890930737 0.8802012264266261 1.0521514636471043 0.15813569993488893
P 8.52883929774257 2.0776160936200756 8.281315711670484 0.5571523986236985 0.9464295014272411 -0.6323504812230916
P 2.165441586208468 3.8317574736490227 10.649964857333732 -0.7502769559289465 -0.7181803325047179 0.7427256259442498
P 3.9466146359678693 6.688847675687401 3.8337729607967193 1.4443303134784737 0.6802573322066995 1.875723628725776
P 6.960316602486548 4.148593150628409 10.933133485842331 -0.10241938020919136 0.6144910844441676 0.3467903943942415
P 6.469274799537891 8.106922119791378 10.832698396030894 -1.496244742959578 -0.3544908483622927 -1.2445571405084568
P 2.6038740535822584 9.0016923350979 6.061873884282953 -1.2965774994398058 0.4376243837586785 -2.2678343443233717
P 7.105140876343523 4.2342056310128875 1.8022176984572014 0.335332530266287 -1.6644787076707335 1.241278726867501
Ni 2.6790707451226945 2.1480666970041837 0.6952269285381407 0.6973590248839926 -1.0310229091986052 -0.859750671881758
Ni 1.438549379329446 1.4959871051673979 7.412884913929804 0.018495230590710083 -0.7101448637947512 -0.9350058329713317
Ni 6.980937852568475 0.7661786603056145 8.996980082252128 -0.6132387000943051 -0.5170205635998192 0.687230421090423
Ni 2.9900355384867385 2.1073180094808732 9.108899059359745 0.6528827968484885 -0.8877173322980132 1.7512434120618035
Ni 6.8160227199842325 1.9875135760780693 2.6840866012956153 -0.5631415263275978 0.2656484355065877 -1.250160602738163
Ni 4.215907129277218 7.345051517540572 10.63889613844275 -0.304342766752992 0.1721566968043293 0.7906952118449931
Ni 7.495966147297573 6.320298841628948 11.887986068017268 -0.6780266431039677 -0.362575168032324 0.030137185705012618
Ni 7.82938112644926 4.452964630773354 8.979581416883669 -0.8349755218196071 -0.9614614560596989 -1.6839262748723838
Ni 3.5549023311965464 9.080519464014179 12.429603430036039 -1.3221450634962648 -0.565603100494213 1.2023188006645358
Ni 0.12878267878215446 5.438514069832997 10.567424074467 1.3504747636788934 0.6107485866825997 0.2592397037667664
Ni 8.831884799500871 2.901990573613661 6.090382419595772 0.19804719141784602 -0.27486635456042985 0.3635287901948449
Ni 3.8013148388274107 2.845275277379466 11.890114034710868 0.6498674070609325 0.6092280362730154 0.3384031987718107
Ni 1.149851878182471 3.6474281885486244 12.7347485499845 0.17329003907782414 1.1360496451236564 0.6818195344874967
Ni 3.090069176910773 8.653609291586386 7.962478264561193 0.3860166868847158 1.1135234389966824 3.1494324510975242
Ni 5.766899475793967 8.534591300537041 4.033906079330193 -0.5101297500172569 -1.3337654213440127 -1.4773175670377718
Ni 3.2914075640743126 9.07276477662195 3.4684247642232657 -0.4086241398715866 -2.2393102687417494 1.8791277693113186
Ni 3.5743987858194592 2.963872613216498 6.957769809516342 1.9108634098517028 0.4703416714860416 1.431432374469883
Ni 5.0077082643520345 4.9355841847971975 12.004441720142909 0.7426163540598953 -0.47220803527081895 -0.7566574055339936
Ni 8.544906497917268 0.11152392699518311 2.660650619162595 -1.052591122287684 0.4578067722438245 -0.5944737607819761
Ni 4.519729928710448 0.5359531481381732 1.6189080450127384 2.235243554871544 1.2480335290928313 -1.8827658802845382
Ni 6.19252024854923 5.754334687495712 0.7422250893678767 -0.3269522766223918 0.5862040645740162 -1.3958681042120284
Ni 8.099460062112064 9.156658057443057 11.709923631112499 2.188030644631167 -2.115941539974401 0.4693641380641207
Ni 0.08781909131342233 5.46574692249108 6.214387003846749 -0.8224655622780546 -0.8761555956023427 -0.7330649629260343
Ni 7.324421122780118 6.420908594800282 2.6707161668189925 -0.213591052689716 0.429259556733751 0.7514334381308929
P 8.991934963107914 1.864051271263837 3.986083982965033 -1.4186241669616213 -0.6782518717408964 0.23641884921750897
P 1.7085643022425507 3.572332088472002 1.8945012218282715 0.7997285256918549 1.5124388362209373 -0.7974595271520202
P 4.9384464691766405 1.38945160030955 8.195095110163855 -0.6316362287648863 -0.3313169813489907 0.9778028735321999
P 8.919390228340763 1.9304142033456744 12.491424200292734 -0.1446906301735766 -0.24957055610811857 -0.14390952903317797
P 6.584717221282568 8.387654605939966 1.6606663050456034 0.5975755396357515 -0.33036695873089555 0.6624023063031496
P 1.8660722452186511 3.6484249585082384 6.070948148786854 -1.5453093616967128 0.9914855132256151 0.4789435542224396
P 7.0168581498287015 4.533190895504505 6.4500947507920685 0.6169413457568731 -0.379158783422618 -0.21526612639929377
P 2.3292959360833967 0.1240621957257063 10.234225824196441 0.9461564502715125 -1.3235463147191657 -0.70635145819059
