# total energy = -381164.8705188536 ev
CRYSTAL
PRIMVEC
9.24980852725279 0.00000000000000 0.00000000000000

0.00000000000000 9.24980852725279 0.00000000000000

0.00000000000000 0.00000000000000 13.53802976460887

PRIMCOORD
 96 1
Ni 3.9400114622342395 6.561333214493828 9.663919732073332 1.6393793414999442 0.9116584164946429 0.21426853837271484
Ni 1.9608021715829822 3.391423815148183 8.003453295101126 -0.8761733362141556 -1.573777901450051 -2.128134225385851
Ni 0.7150888263767519 2.6851916804839306 3.25618051398182 -0.3436109682249953 -1.581671959486147 -1.4148852687444793
Ni 4.999697282243679 7.750673601327395 13.467632489982568 0.1794005228509362 -0.6075179955604441 -0.5849570795407926
Ni 2.135817799668827 5.396911811966762 11.490890123278804 -0.35192025942163907 -0.13486104567766452 0.0006744003592052902
Ni 0.21476853040731467 6.359807635026237 4.869290705982242 -0.5073457595142166 3.2716207864035267 3.5633908586978307
Ni 6.927338890078037 8.419869502449249 2.2029889845743074 -1.2059219446347618 -0.5261878319213841 0.06906574444941009
Ni 7.363818857210578 5.086312489758919 4.514594771345161 -0.7262476828938847 -1.9435171913309819 0.1444908554579447
Ni 1.0877589890407038 0.055411903261511596 0.2839589485251592 4.0200344638714895 -0.7867899632533161 2.2852718230735287
Ni 0.4760376984930374 4.766685354379904 3.748802194272601 -0.08525649527665961 -2.481254418652862 -1.648393629183413
Ni 5.808879786370194 3.6249352326751185 6.7563700532446385 -0.24003382026227693 -0.22157381378487648 -0.952843632483701
Ni 5.035068550242214 7.571856301916394 7.7772325766946 -0.39290724335696203 0.0994106752898546 -1.6738249247723238
Ni 3.171259871397891 4.388275685493909 9.631279007566734 1.4125913305039801 -0.6423219906135067 0.04336808257298983
Ni 1.1373749622478533 2.4564994132256235 0.7424543850518732 1.1784365947302995 0.5140164866661728 1.1718460859969755
Ni 6.187696446833578 9.093644058816729 11.362211411259553 0.661919196019144 -1.2210372030096455 -1.5283495939139224
Ni 8.439210852183804 1.599791392630367 13.363890336906115 -1.0760213282861661 2.7315726515602825 -0.8170024822809542
Ni 6.431743396329742 4.602843495055102 2.0602986625225834 0.0962901273830019 -0.7915521605286497 0.12874593391886216
Ni 4.1673532574403005 0.6259326964454041 11.956788181609708 -1.9311355298371777 0.5596301707402298 0.5769167257348192
Ni 1.54321031356472 -0.11341560288630494 5.0943746229146525 -1.1838073721239095 0.8864888592075507 1.0761401132522175
Ni 1.1331108004938457 7.651793147639023 11.838966894898169 -1.5290921285069021 -0.28539579333684395 0.6730253332346345
Ni 0.755422616676859 7.419770949292989 7.161915885553045 0.02762598924738468 1.3070765991989166 -0.7613301284193147
Ni 2.5226910434027974 3.8796194620348587 3.025709508534152 0.6536564417897194 -0.3929509521107039 0.3929429816909039
Ni 8.866653756336595 7.680606301356448 0.8111147891382543 1.160394135406292 -1.682639180629844 0.6924885841655687
Ni 8.093425258148967 0.7174697271044774 9.949152379239546 0.5461308507022142 1.6240126292358872 -0.5331580925916302
P 3.2872617207623316 2.3271130908502315 0.15716164757047563 0.09805853213733434 -0.042150408115804824 -0.5351388704670849
Ni 3.9473835596701266 5.056990596569758 1.7715732876376848 1.5598749182157134 1.0403830102572662 -0.17281284233108948
P 4.411131962487731 8.923845322768326 9.90721189718961 -0.016271740576830042 -1.0135203815384672 -0.3528263161756763
Ni 2.7180192511237835 8.777365354142596 8.290418431413817 3.520183212962105 -1.8770395193237221 -0.8459965555204592
P 4.770080034127671 7.361099413488934 5.405045168648537 1.075880688943244 0.3434219921426408 -0.0028372123384789844
P 8.648164027938744 8.381325550108796 5.6609808971087485 0.1136198769107011 0.8933763303560034 0.9755019933131652
P 5.059460295459823 1.6845843878559332 4.969052666428004 -0.9724295250354285 0.8700019172961209 -0.2753630916911903
Ni 8.142421494181455 7.880170921405711 10.530299352516721 0.5358901468108126 -0.7536240180243086 1.0932600607619558
Ni 2.7993620677501205 1.2790820296478393 9.910541828277339 -1.0242858475850876 0.61584374181732 -0.04324441251093197
Ni 4.180450986385365 0.4967424700118448 0.8170827656321492 -0.8871162083789045 -0.8578339144750194 0.6584384365593949
Ni 8.017687825520307 6.284051702780421 2.652451983025559 0.11427782220967417 -1.2829516811262551 -1.8762504477635233
Ni 2.803135989649545 1.617643523184021 4.024125521510252 -0.1672209500656088 0.18165718009559684 0.07311548903875151
Ni 8.990943434186049 4.318263884374425 1.418812412954916 -0.23463964582989913 -1.1115305769363695 1.7620309895956106
Ni 9.073645972673207 0.808353721278013 7.62442851394476 0.5926277087121729 0.9816489867511675 0.14481610000784736
Ni 7.711417413726511 4.339418196590075 8.880365672571173 -0.06361294886495496 -0.7803352087669078 -0.028496564777796083
Ni 7.935336779759074 8.077432339119294 7.83142535518566 -2.034184830320884 -0.19322380188727367 0.38570918294662604
Ni 5.316697471986822 3.4297180226570565 0.18798200974911491 -1.2959210968027295 0.16065692369484588 0.0891080078122659
Ni 4.433738494649975 5.191390315193897 12.360384154270077 -0.25228384127422354 1.8670230156279843 0.4656206118612884
Ni 4.866315042563014 3.959917050291992 4.106910383293747 0.2732761272551745 -0.31427776647851685 0.253058514656719
Ni 7.462995304773415 4.0892848730502305 13.30218393890794 0.00528413121707477 0.40432808359939404 -1.228342221311491
Ni 4.15753921054008 2.670826727763814 8.02560103675795 -0.26133335307100153 -0.5637632190719968 0.27615704834739535
Ni 2.1733535228743848 7.370765463451923 3.860992197522451 0.9206894163486595 0.4232979398336774 -1.7126778930837794
Ni 2.6846089425435777 5.483712015653541 4.766659454915888 0.20532032804049155 -1.5800107697336403 0.663746993256502
Ni 1.5951757381504328 5.791453147011084 1.9512905934232299 -0.4364401336425903 0.7508004325325844 0.09017527273451567
Ni 9.12072749833025 0.8375868163048352 1.979476610119133 -2.6896551853908903 0.794026075990439 1.010616320517795
Ni 5.1005201957332265 1.7770362245832743 9.866624662134493 0.7743543085931244 1.9192817158223847 2.159272084441236
Ni 6.106640374273129 1.9227299594799572 12.12697448463749 -0.9475589870459938 0.30085223710123027 2.2306009138932104
Ni 4.330714126719097 0.35998867510485416 6.559852320140648 0.2564842525088164 0.17986434986123218 -0.8229353028256216
Ni 4.377925149696221 5.280354974087699 6.3804189834784175 -0.5740437750623985 1.8780517626383206 -0.787339665109199
Ni 2.6402098613738696 6.803354455911625 0.07140944719547218 0.37472311624876753 0.5844819396765869 0.6047954544229585
Ni 1.7066174318864011 6.884410528472075 9.720752405932274 0.9481379994779154 1.2766848742809367 0.1612955857201093
Ni 2.0698204154717708 1.2591394423557787 7.0645098513518505 0.55589975716352 0.31489174591343194 -0.3402178833830463
P 1.0868617576087327 9.034232538326513 9.27838308567874 -4.0541113509505395 1.205380470308995 1.6167312650831251
Ni 6.693790473316792 0.48333949738373905 4.2042220694474555 -1.3184151641401876 0.44347955698787495 -2.5691478373317365
P 0.15778138474513614 4.810131705266178 6.411909031798032 0.18622268797909217 0.08005206825758471 -0.18473916145503022
Ni 2.9562388212164237 7.522730568563827 6.3752474155030034 -0.1877424670577283 -0.04463897886561344 -1.164603031281317
P 1.0248325412912191 4.703490662181684 9.338085975139133 -0.7574369640124955 0.45259874568032377 1.5876862840010268
P 4.977312745487285 5.18690415803404 8.39931827775282 0.9376388997188044 -0.5445473082651783 0.5172838445635349
P 6.8021889800309205 2.4401550014700244 8.171595390433385 0.807902576862215 -1.0642865563477413 0.847857777098914
Ni 5.655471711120274 4.227199518933637 10.721023005528066 0.7661697158998031 0.6417962000170236 -1.1597757850960027
Ni 2.4867092880381794 4.439954366013734 0.10987570114387839 -0.1504344746358893 -1.8175858440427795 -0.0837814533930299
Ni 6.531021591786925 6.630299787244109 9.204804558371956 0.5740558592472566 -1.3298825413498387 0.9618779747718273
Ni 7.158880098378066 -0.3227165714437416 13.514798188897664 -1.4719298203632973 1.0822500828046975 -1.212266655905867
Ni 7.070479677807461 7.357075746757928 4.469174511308548 -1.6924607947059562 0.5148271554929263 2.2856191791106184
Ni 8.632180358717648 1.499023977992283 4.566147654468338 -0.4838800722921086 -1.1128737212278252 0.33151572762335807
Ni 7.059629652346613 0.5205468523848125 6.368113038147546 -0.293277767188082 0.8955319432464254 0.3231064205137403
Ni 3.3011826826707504 7.6586380059860195 11.529947439995281 1.6627838364668137 0.5509233869948512 0.45096660939353944
Ni 6.281951996233437 6.758714879718914 11.601685255395239 -0.8768521074487351 -0.6623544837843497 0.7799904238329792
Ni 4.348427510144095 2.4862467976093283 2.261243354011538 -0.5264338864939191 0.3270412367917722 0.0752577321927349
Ni 1.5563820409784 1.4215198319254105 12.129668953875976 0.6582851988109824 0.6751866025520114 -1.5443567679754564
Ni 0.4128744556439809 5.552928333235402 13.252580915432798 -0.2868991173552478 2.687576962705623 -0.1215501875013713
Ni 3.353342353236581 3.1244835894238876 5.892007816051896 -0.043366797021409186 -0.280523295735891 -0.6873417498573066
Ni 0.8557044163646493 2.7393585595109746 5.696775806340111 2.273140329917317 1.1266512346278919 0.14087254197906707
Ni 5.986300364686064 0.43543011385905045 8.39588012390474 0.8323841069433471 -1.3591386100014786 -0.10542551402536682
Ni 4.338631962861029 9.083524768233467 3.576435711363216 0.2611934850590276 -0.9491157900101524 -0.29203361036833575
Ni 7.560053546172114 2.866321432039187 10.985230837798708 2.4064715692140166 1.210053193194316 -1.177036629058979
Ni 2.133792091590459 5.722310827897839 7.630750758107154 0.3719892622573722 -1.1812750926203592 -0.47953825038364506
Ni 0.6557670290297328 2.7273800574037304 10.006011877543362 -0.403614345361821 -0.42816915188304966 0.40318419980293785
Ni 0.5543650775232648 3.6076565902532405 12.32882658234785 -0.6675234295797988 -1.0701309309436602 -1.3000397469567933
Ni 6.1873819533419585 1.3808391738036652 1.4184202210712502 2.14788672542243 0.6218806920400193 0.42150922336437086
Ni 8.89530966330821 8.145399932543258 3.489048144831795 1.683967155412648 2.21346116888913 -0.40403086407394934
Ni 6.893299594514593 5.835935476457985 6.740409508544986 0.4029936810586866 0.2720461115028154 0.5798207867554916
Ni 5.19408200948981 6.422447338709834 3.5174913062061393 -0.6208136842280856 -0.45190763315057014 -0.6310379330592552
Ni 7.9846012602402965 3.1798251941402143 6.270653355056605 -0.3936922011521026 -0.06190753613807404 0.8050424817056007
P 1.4611830111036834 -0.165998914684963 2.78381128957043 1.8292285704880302 0.6404162889503615 0.27389422045514766
Ni 9.008841813782587 6.379796471361183 9.020470673125619 -2.3966376138427306 -0.968003628053591 -0.8474690263009275
P 9.001377218260929 -0.09651157771179612 12.37477500645421 -1.8277558425972458 -0.9961926888932972 -3.3096219482376483
Ni 3.744572256810329 3.1147065417579745 11.46553362302661 -0.8825350167661252 -1.2890948179095154 1.5771984970958255
P 7.4130555882660705 2.5828980474306373 2.8540737605023514 0.6002389454005276 0.13503690913389646 -0.23924243470923315
P 6.950065669751781 6.79498337914942 0.4215840754001054 -0.20198277902682635 -1.597563948126055 0.12422824855416671
P 4.087740155017867 7.34464400403041 1.7994346360525344 -0.7708426958954401 0.19732908230489887 0.7027395724696156
Ni 8.198031343346516 5.542513048777675 11.22668229100816 0.7121148430369285 -1.2070771412851278 -0.35594095054525793
