# total energy = -381171.1054293605 ev
CRYSTAL
PRIMVEC
9.24836684660285 0.00000000000000 0.00000000000000

0.00000000000000 9.24836684660285 0.00000000000000

0.00000000000000 0.00000000000000 13.53591971924783

PRIMCOORD
 96 1
Ni 4.953055199763177 6.618084875036467 8.882392056929547 -0.9187641743014887 -1.821320114274231 -0.35847040183533097
Ni 0.05762749692890494 5.824944958067893 5.088787926878354 -1.3424637204489591 -2.9990650822541447 -3.556924791357513
Ni 5.519415920090118 0.5851996430282597 13.376060542797592 1.4347539826439486 1.6333287644304901 -0.5136776152695154
Ni 2.881837264773704 7.5984764699302145 9.55099901869816 -0.913596256947304 1.09270855913386 1.1948723716888197
Ni 1.2969631825550612 2.3708742601958486 0.2358120762697019 -0.8456250311136534 0.2979227221592611 0.00821724570346972
Ni 3.3456428482155647 2.988850114345105 6.643537304671369 -0.047429654236873155 0.02288796034176703 0.4324029874587392
Ni 0.08863911970851113 2.2203293491835536 2.643578995546467 0.6829554478641529 0.25283457157137107 -0.21804188937221805
Ni 5.05027402913787 4.0486019427685545 8.370639241846689 0.9762231877499058 0.18829242602392732 -0.5396275023660577
Ni 6.082114287255685 6.200317660375734 4.323197044245903 1.9050491171627706 -1.164919276970155 2.8129866331624007
Ni 1.728325496072415 0.9606093388023782 9.846190232524961 -0.6889147507713812 0.2409285641624044 1.5492706603373059
Ni 4.05428968820857 6.054896344442737 11.987640263240406 0.672590302579745 -0.2378532676711904 -0.9222176800677279
Ni 0.9124040777341027 6.039664284703379 8.817582278523055 0.23215801705862596 1.4192126924752397 0.9907560912587581
Ni 8.566466005254757 9.296643042620698 6.9986523848461895 -0.738676909796173 -0.3085123247496493 -1.550576266522607
Ni 8.085162512264102 1.4730798271310008 5.280605523378705 0.47377923641268077 0.8448267035820739 -1.3506380287296353
Ni 8.581624078061562 6.420891203049481 10.465200978893304 0.41397511977085477 -0.943330293676627 1.67666496532428
Ni 2.9924107354742198 5.145060538104881 4.242210947873347 1.022603060566026 -0.14222417091095507 1.0774264361638088
Ni 5.56160696837849 8.1742612757911 7.318655116504651 -0.14900262728536917 0.08023718768519729 -1.5843060546748844
Ni 6.282341423477347 0.8081805355199508 10.953712648787937 -0.6220802096453351 -0.8684960221745559 -0.21560216958247386
Ni 0.47354503827581207 9.101391527613227 4.6317077556055635 -1.1086298583498069 -0.030366270996683188 -0.9911273585552479
Ni 8.282578145048749 8.29148432205482 0.9862735560317134 1.6076465291730377 0.1984493119522711 -0.2338523740419134
Ni 3.8708760824095867 1.731867620468392 11.132698136673621 0.34637387568211314 -0.19349042528509902 -0.7166428128142691
Ni 6.7067674620678535 2.643099930158186 9.522546418948233 0.7170058525806426 0.7902043882515036 -0.033558038461103494
Ni 3.428258506777602 3.7644366315654714 12.903899984997178 0.4647430943523415 -0.05918756610374967 -0.5041745608750866
Ni 0.04407216604853134 6.390001658708587 13.302831051466566 1.003024881323782 -0.6268609188634301 -0.6852982370647166
P 6.069564253821376 1.3717177295333378 4.704476678281448 -0.7829572197707871 1.937303349210786 -0.032685663158479185
Ni 5.15316210721944 4.052939426689477 5.423815554865024 -0.6734634492133176 0.0459479274850241 0.09104199161018514
P 7.788733866990353 6.16783739698495 1.344283374942671 -0.7904707545390129 0.5285681592281026 -1.4280063795074696
Ni 8.67845447604035 3.90123846985604 0.8890963443065817 0.5418761891909184 0.3201362821418228 -0.019125665085857384
P 0.27780428467683593 3.3103233362880577 5.706851640510016 -0.13713467220318964 0.8144630036885522 -0.30669609747651694
P 4.032805732668481 5.3777309442510495 6.814834625428135 0.10391781913158878 -0.7046607007517284 -0.7878528573001915
P 5.138669916805612 7.871488251050927 13.259786378943863 -1.1380309372197435 -2.7787937893307757 -0.08799317748153232
Ni 1.6432960138358355 4.7915694710996 7.088084089569675 0.664294638229856 -1.1230717448067498 -1.9409306615507282
Ni 2.7510653614862073 6.883799694934137 7.393332902040404 -0.39937099670443477 1.1776822330627783 -0.5623226299707283
Ni 4.825279767244079 5.52024827308134 0.8765944023784319 -0.9059256277759237 -0.046423324459545855 -2.137361914631706
Ni 1.0694903584207436 8.811362752005316 8.171729073024471 0.3975141460013541 -1.6595385900566386 1.386240351314277
Ni 8.18616392356557 0.15204129672318073 12.385541986510647 -0.612938395245067 0.18392617863543162 1.1620661237920762
Ni 3.4303393892556557 1.4247108699744517 -0.08735914577534355 0.14751498699624918 0.25598083050983655 1.0606939539004765
Ni 0.9171364669075265 4.5041487348641835 3.32661433399958 1.283411651481809 -1.1640307037176147 -0.3676566963202894
Ni 3.767340618668178 2.5872952862800562 4.152062494740753 1.859103760780908 0.42423742092881134 -0.43002420281391746
Ni 5.1456524335653056 1.4906794687120548 2.471009099549789 -0.3742099240577749 -0.6447172303185605 0.002001089590428812
Ni 6.424433327445458 7.5792768609327 10.243780285841824 0.9047390636669902 1.2447150062425594 0.9374434958785468
Ni 0.3972598866303446 7.052008986093471 6.648559167718407 1.9051820431962094 3.6656030079922224 2.1423346852559493
Ni 7.736961510936364 0.6023100460178069 2.9803249700416807 0.4998617924323456 -0.33767043437084426 1.1643407787588655
Ni 5.172380212950091 4.260426530667905 2.7969807269919666 0.32367874807744257 -0.12933960163880306 0.8106950520056877
Ni 1.8387787380075329 1.905681421768618 4.749415416277507 -2.359858754451484 -0.060863668254591954 0.7801153794466178
Ni 7.91981096637463 7.177657294301668 8.279732422655426 -0.8230574302257826 0.39744009823030907 0.4449859663300723
Ni 1.083187189309625 4.325988201276466 12.392079656838368 -0.9460582341307512 0.9229635570948168 0.3150336708079349
Ni 2.0542934241679656 3.303904969889082 10.679312687845197 0.22990058848301698 -0.7569479401912189 -0.6584970577114724
Ni 6.213311615405361 5.524178828873221 7.0217853241455535 0.3691291671007578 1.5589243813769862 -0.7796374113689347
Ni 0.4123458221779092 3.705015876358812 8.77974906056206 0.05146011555250492 -0.539787939203322 2.0153833813436646
Ni 8.00633868399541 5.001997555647011 3.00200961513632 -1.168358127448375 -0.18397322982328318 0.3906413301409208
Ni 5.756053875494444 1.9403905415025624 7.056721028860442 -0.5123236723447822 0.35363647078179744 -0.449893945154651
Ni 3.9689365131420704 8.94533459012573 1.5939356317830757 -0.5508688796078319 -1.0826971976444448 -0.3407940676014905
Ni 7.611109738663646 1.6180294763689727 0.8076339570557153 0.536666877075837 -0.2520778959110046 0.33421487172207603
Ni 6.874921263027772 0.3689395385223552 8.469722541921719 -0.4788556224943237 0.2826799370675777 1.919569679376449
Ni 8.481455019751316 5.145559949899614 7.217338335903177 -0.07411230573438204 -1.5562481200964038 -0.6956860080569438
P 4.787167248612695 8.77614497211007 9.383438038035322 -0.313442415061415 0.9754531423531007 0.3062371555622274
Ni 3.1222300570050954 0.7359951847745787 8.141679280368056 2.643556848370931 0.15855221864701724 -0.5027167453826373
P 1.8847153747564007 0.9635503193713614 12.096184642315656 -0.6785776305114314 0.6665253273325876 -0.6441436172032777
Ni 1.8897279894368693 7.196107785607082 4.628999833874122 0.041588364964747736 0.25274689695357117 -1.0473959512399897
P 2.360886024301189 7.6340549361216565 2.2355382880064876 1.4794749797004068 0.9094601232917434 0.40835828780470956
P 8.707004183639254 1.478425383007958 8.966923977044708 0.9905398614828941 -0.6425814149224806 0.8200055307733362
P 7.744045759728318 4.67455913726697 9.171478423984064 -0.8871190365923819 0.37219392206901064 0.47466395301047926
Ni 9.153311857532323 1.9060421080648142 11.13037032280817 0.268158346412635 0.24552492528383524 -0.024371486865828997
Ni 5.817398290947482 8.6971639216097 4.000527083668904 -1.3107337363355296 -1.0228005212888127 0.8696622745685151
Ni 2.1553503256688473 4.945184839812847 0.9272338335277024 -0.34383413997939494 0.3151347151621734 0.6640750660198821
Ni 2.1354940826449256 9.112979730924348 6.160534886741965 -0.16124647764972874 -0.8231060240755308 0.10359051769915709
Ni 3.2287249980486257 -0.007010261859400418 3.9543425906959837 -0.998819584993183 -1.2145389968798115 -2.010849240918737
Ni 7.9855206108482975 2.611109830195566 7.311007642188637 -0.08309856839339237 0.8358165296636638 -0.04414327017611752
Ni 1.1316393817652963 1.9859294984889577 7.360507674576591 0.43877598086461855 -0.5771823206913802 -0.629545921894761
Ni 7.840617203443172 7.46195208263672 3.530262441015162 0.9150574148738628 0.26184525971041356 -0.08509117334338893
Ni 4.689587732941805 6.475872742302958 2.820506721870519 -2.6916362203766613 2.8612099869451626 -0.6736326278013302
Ni 0.572176093225611 6.686115859518987 2.184264418910575 -0.4621776476180105 -0.6516327264914713 0.7389671873430822
Ni 3.504871975436273 8.650228461271366 11.599362390222002 1.0431315195366808 -0.0019298700328611925 0.3790374273534053
Ni 2.607697182931557 1.6763311792207674 2.2123378356311685 -0.6240864414420865 0.5713947674753256 0.2001989476535262
Ni 4.153219465398552 0.7633472289027802 5.745727149383353 1.7659989731044232 0.3846190352062408 1.3018364338458999
Ni 0.9755824442777993 8.235661181443554 11.805676801319462 0.37423923463381353 -0.6172717325130982 0.14576920794973605
Ni 4.151184824753343 7.289386810823326 5.424749639888505 0.09558333112396442 -0.2733324344144067 -0.25032286089311084
Ni 7.159595234392158 7.076868595431292 12.513863072657324 -0.8260327108040225 0.926152753456076 0.01765525118791798
Ni 5.577347688279148 3.0642150535169437 0.5458043759537373 -0.31942742900025634 -0.27774213344632814 -0.033827747182722384
Ni 7.95967142628758 3.8991945808442625 11.566619473220653 1.8851824601458307 -0.6472559375800143 -0.05088675954753817
Ni 1.3782008344982977 9.194439343665243 0.5247874629253897 -0.17702688041243705 -0.3425439604130617 0.9335202495647407
Ni 6.459207185745386 5.290861037067213 10.892124076457474 -1.7148021385156338 0.9280715677453437 -1.2287458845078127
Ni 6.295890280501121 8.574669306401576 1.7862406172016203 -1.7604279067745485 -1.089925339961768 -1.1021992722331146
Ni 6.804781650967492 4.875544639547299 13.293436560705644 -0.1004116057505432 0.644098108677323 0.7519779977804533
Ni 4.553581254176183 3.9200588958242193 10.678324037458959 0.8755459870428017 -0.6487073253145602 1.1687234812075935
Ni 7.35683514821199 3.9565437019394367 4.960820128334618 1.3172334851272605 -0.21766188032498 0.7966871677623698
Ni 2.8700455973980628 7.253419913235979 13.547966406074607 -0.6711754245100893 0.006875644073910739 0.8475605575734693
P 7.564562709721215 7.339411225595749 6.0306989181512645 -0.6749271782430376 -0.26535610107714946 -0.4810809122804166
Ni 8.61937591039675 8.724206145457837 10.216261771115377 -0.21817173008186297 1.066023593643506 -1.5504412836066395
P 3.35738827375836 3.001529624911382 8.862494196256064 -1.5429647727239364 -1.494445227856994 0.9432865849228851
Ni 3.056168974601801 5.231551262259384 9.743357644642806 -1.0653715618818038 0.815590432424776 -0.6271198289517715
P 1.622672156386676 6.218019033989048 11.353982878736533 0.7402730506386993 -0.5500720947381494 -0.6420216857642685
P 3.137212410847086 3.8756204944595503 2.507055533089629 -1.1373537086470606 -0.5528529999173962 -0.5921731376732575
P 6.879804400576273 2.26766248928436 12.402665337213392 0.03446332388419226 -0.1530199759748784 0.14927824954425906
Ni 6.876678452675907 2.826106607828127 2.8131699926712286 2.1861056596943125 0.10709698819051877 0.5001194169691066
