# total energy = -381175.4652342902 ev
CRYSTAL
PRIMVEC
9.15948257261044 0.00000000000000 0.00000000000000

0.00000000000000 9.15948257261044 0.00000000000000

0.00000000000000 0.00000000000000 13.40582859970309

PRIMCOORD
 96 1
Ni 3.389933740117871 1.382477375448731 11.180340394090939 -1.7901755703506266 -0.8191228710580668 -0.31980435272370084
Ni 0.6291007564759774 4.389773722008022 -0.06562219850176161 0.5176813371122697 -0.07555675149039244 -1.2192801111092226
Ni 4.138556587522536 4.62662878747855 12.177131184160249 0.4799866507749733 2.2419729031755775 1.2575358121563116
Ni 0.6457865862747966 4.080430509736234 6.108272219303136 0.12213794168404128 0.0348944978843399 1.1798026218398907
Ni 4.47915195507432 2.8708292124688235 7.222081813654584 0.7635361349316979 -0.7218927483592986 1.4938261062157563
Ni 3.6285749047324787 8.021453691406363 5.3264444148876136 -0.8978482500844279 -1.8592384865865592 -0.6503785423693961
Ni 7.451898732549159 5.713538812771882 5.315115966572754 0.2448109299359461 0.6154827589334755 0.383243752125269
Ni 4.662973615189871 7.310219852751096 13.151694657342697 -0.18747610077021906 -0.048285317368949095 -0.7964364852041445
Ni 3.9728523843659045 2.5187936509121394 13.166199614289182 0.8753768084547892 0.8962922184512176 1.0408252400010074
Ni -0.09859633654630712 1.669920264369266 7.887909348274232 0.5871029222392018 -0.4175872626021453 0.05054685970961618
Ni 8.639233327153711 1.875248390076093 0.5947270494610968 0.9528042946053332 0.21872246037901039 0.2168185584880782
Ni 3.187325980799719 3.7920075561571522 3.008817736650735 1.4007172047742134 -1.2075869910420107 2.380580303269552
Ni 1.946454209286731 0.3633072210782443 2.0095337353659466 0.6648219714882356 -0.9242763623689696 -0.21097161278899793
Ni 5.576769415749338 7.008854549989531 4.016520218567952 0.7636238095494977 1.4264259223942273 0.765669893445249
Ni 8.876445612453058 3.8404520606342643 2.0456092742832372 -0.08977160953819378 0.33057650363854035 -0.5698703604109991
Ni 6.4879272852652425 5.678659502306984 8.137365114219172 -0.4317111035980371 -0.2686604828600341 -0.8676077060323316
Ni 8.847895504596154 2.9982009801486704 11.541131505246728 0.29507291141529185 0.04550595485159905 0.5203182605144845
Ni 1.3582597029515702 5.239718768037342 10.696497127339137 -1.5851856290663604 0.32177818862062 1.1527700432021306
Ni 4.973351849016947 2.519068435395844 4.330216933009899 -0.2214419161927025 0.1274351855272386 -0.8765296911123099
Ni 0.965702589531256 3.3778432228348714 4.0145097120955135 0.1803873122442377 -0.2748902658198298 -0.7735199856172872
Ni 8.852859944268417 6.150189676343985 1.1287148206958617 -1.3279752970247967 0.7327258344190607 0.14742654104750094
Ni 1.82851670888074 8.551577076851961 11.759767443499367 -0.7214960271415122 0.1505576304773149 0.5516222128340886
Ni 6.2772500216089675 3.1552586315513986 8.774637961240522 -0.6893664935968192 0.5203262309342845 -0.8248893412281988
Ni 4.46097954121866 6.070328145896654 6.017313975455536 1.2819355811569149 -2.1521989796445387 0.5178119491528631
P 8.014171902588192 4.365116394336933 7.263707083194427 -0.3101765998259497 -0.20952588148140688 -0.20049308185517728
Ni 4.87623385299297 0.21663642315954787 4.01682889313798 -1.1555607185733905 -1.0893147029609627 -1.3650575465890749
P 7.9492861265027575 5.13255281939257 11.995777088708365 1.048388397060246 -0.03418435919119275 0.3350736201779455
Ni 8.45710617135434 3.63287986164385 9.330684514878808 1.0874092584081336 -1.0481469704734012 -0.4551533937813774
P 2.9555910662088856 6.541052285448121 11.396978649147046 0.7515349967057637 0.4849069708947261 -0.013405474772628526
P 1.085325434770635 7.3389623097465915 2.1718251152349675 0.2892856153095534 1.7148250213337695 0.5825911504117772
P 1.3496772675771984 1.628940738366128 5.926421679884025 0.023822556340894457 1.0789901811065032 -0.04259880850713309
Ni 3.991766716327567 1.619506471092272 2.019011968157195 -0.008961065848029729 0.13938952967563736 0.7682700500722576
Ni 6.297144418229176 4.162554432432732 11.166210975938853 0.11612644538263872 -1.6423929315152876 -0.2110459176703591
Ni 6.579238169200263 7.030709075926832 11.525715179762624 1.3942256835125988 -0.7931153912507115 -0.05811978696086765
Ni 9.132819535749398 6.832836769211188 12.268612434475166 0.4783933381459245 0.29150087779331735 -0.623417697509836
Ni 0.36431751202999807 8.709394965326272 0.44753782481647775 -0.9464804092698345 -0.6451234646180437 0.036385737717885724
Ni 4.929981698005578 0.6751894419794618 8.520342324589267 -1.9849006393737754 0.5501535987083622 0.8734754776670183
Ni 2.903217143614799 6.050983318243854 9.11065450334551 -0.519381607632828 1.267549487638572 0.3370042615417551
Ni 8.33504690369278 2.0184294250517416 5.483211710685894 0.7125619578766761 0.17534383628305933 0.6956122173962149
Ni 6.161968771212119 3.8212721036716863 5.947000289868659 1.103587667940209 -0.03519377429231358 0.6223044098409992
Ni 2.3739272711031028 5.244325987880789 4.653927709986317 -0.734076177799368 0.5697135231181608 1.4390166145750443
Ni 6.623734936594819 7.836835156288068 9.245879611569633 0.3570645226267399 -1.0636869750905293 -0.656446860050663
Ni 3.1777634807668007 3.403709602234259 5.51265120432172 -1.1726053327605033 -0.346275659541352 0.31896488754154095
Ni 6.360729547758408 5.870257563311373 0.09110937531363725 0.7938579258436909 0.08150859819845317 0.4927154111955514
Ni 7.181089464375539 5.382011333182347 2.709559114930904 -0.5501016624245042 1.2468569922862267 -0.05172468206780124
Ni 2.9392139109800945 6.7278232990221 3.268850873321742 1.8518830746627524 3.243575707340853 -0.5990981469278649
Ni 8.266460696560125 -0.24174989307358538 11.390047668519738 1.091680374979662 0.27235361544090514 -0.00028796355406402016
Ni 1.6152839495260123 1.3892645521962332 13.087976715313008 0.207902486945371 0.12530939743348743 -1.0916662339122747
Ni 2.336666495112766 3.3746832012722687 11.789984577224079 -1.590305466791429 -0.45067967428073996 -0.017168284249170433
Ni 6.935954226462714 0.4683042041983093 7.795596416921969 1.7458487234087934 0.9702667130561549 -1.6879551935261188
Ni 4.179984928182391 3.7831869742302366 9.876932253828192 -0.9220179053520958 -2.09327700849735 0.5279186985695618
Ni 5.116120707267037 4.833468227845752 4.023638968592457 -0.3197465029025719 0.1445661887805704 1.1631593568562548
Ni 1.7850366440758905 2.818949901945405 1.458098065364222 -0.1342465520221172 -0.3326902075474335 0.1222091612416089
Ni 5.240927819765642 8.67296770226984 10.751327623217543 -1.2520166821102954 1.0857251858374914 1.4654359851088374
Ni 5.027603465583014 5.910623403967572 10.270460272424263 -0.3594106542614133 1.4140072370149002 -0.4756057480984583
Ni 6.033085688871898 1.1280819004350624 1.0293683225090413 -1.0724755199164369 0.8786171697689578 0.8164836336630068
P 4.251062514633967 8.457903046357082 1.8319872369099282 0.19932143014457931 -0.05323494806474057 0.31790764992162024
Ni 1.7040301782797904 8.821204771745652 6.833031866194618 -1.307701377267109 0.007832351560225222 -0.2682334226249445
P 4.427538269551817 5.000225771523251 8.097616622703029 1.5354988033641943 0.2334083445259593 -1.079130049118477
Ni 7.974245717105921 5.729925127483463 9.895311671994909 0.059541607009058736 1.7917074336141208 1.212810701334795
P 7.778306061258999 0.2816907337283201 1.8468402542024378 1.0903624274991868 0.8810088099295859 -0.15953952226095106
P 1.5324272682063016 3.3038346018904465 9.782782846176504 -0.08722904562199815 -0.9719512998474292 -0.7766423332963528
P 0.49041519565373515 7.140164895269142 5.501738596525533 -0.007336642870729301 -0.22557393608320508 -0.1502907499691734
Ni 3.809337297596119 0.2786085677694341 13.255777524080306 -0.1617840953207536 -0.821479029995069 0.5461509053068723
Ni 4.930989241112496 6.1815334264518835 1.917020211340579 -1.4785504110036085 -1.039370509832352 -0.20666990008985053
Ni 7.336846469222066 1.515106686250125 9.944149118283718 0.3112065837523608 -0.1763913037109672 0.9923262639593555
Ni 1.4099008669224447 8.673654663479102 4.239418980111126 -0.11161518777584649 -0.2632789068331466 -0.010615056511684944
Ni 1.817094833841421 5.298028035479447 1.9771989292201535 -1.3133524049052994 -0.8314507964958003 -1.0562148350832004
Ni 6.685671359221823 7.732334617135229 1.8495752757635773 -1.8758233875284338 -1.6946061231837333 0.5737902642906956
Ni 1.036422956154016 1.2108195084785012 10.308560057038177 -0.7706223523545179 -0.45878456277606144 0.09363983424434842
Ni 8.76064227153717 7.55046392685398 7.379305251695814 -1.0528034954088061 0.001622880315403657 0.4399620307529197
Ni 3.7575404224178124 0.8687357249733169 6.09030864165509 -0.316777392971919 2.034637858697902 1.1080945546716272
Ni 2.298608844119687 6.399620711685391 6.778630950059072 -1.0351862965476752 0.11872840178186005 0.2564603412494164
Ni 0.7713896578278654 7.337789895949451 9.63574750084276 -0.08219251163935523 1.1793403374914915 0.5961043544068637
Ni 6.825463385565116 1.1670921376383177 3.791918709174088 1.0375738229432454 0.3898190913499415 -2.467670252210524
Ni -0.07741686449063974 1.5539703717287379 2.9024559905949374 0.875404319258615 -0.2748900087095137 1.2219885111793214
Ni 5.681343230764498 3.636085680620403 2.224670751192747 -0.665612585710331 -0.9218374139101737 -2.0994209166115585
Ni 7.512479551723222 3.342963912369974 3.751514398690172 -0.5100662437691731 0.876455900451581 1.2224765065593335
Ni 0.6244056055977458 5.434266182500161 8.36043790593536 -0.12555442356475796 -0.9039157964347464 -1.4455837262696005
Ni 6.968030735193825 8.579229555395429 13.212543849362511 0.04298267420911307 -0.3044931762879272 -0.7961842599840223
Ni 7.023866942282589 1.7459439715275238 12.51726399783113 -1.6958158272211181 -0.4397517145143265 -2.931025979297036
Ni 2.9760716697276646 8.513198843961227 9.864049441283843 0.8546642584977862 -0.5903324849200929 -2.0636805257871558
Ni 7.267042050878322 3.8239649916119913 0.10698550683380689 0.29331324841170775 -0.9751348397817335 1.1415703178315693
Ni 7.258615326711382 8.980112638671992 5.445165967020442 0.920278554063486 -0.5979776601701766 0.5060702352359027
Ni 2.615004858139891 1.5914143373748775 4.0420183867591755 -0.3113137987541864 -0.26376458822031346 -0.2036727651347396
Ni 2.2682451586703345 7.089677826129827 13.50637272968434 -0.15035862709263137 -0.7647602371467862 0.633036965767155
Ni 2.3798259780199604 1.5640000053839538 8.34734076149372 0.5522251365254103 -0.09601784755822172 -0.34802503813229096
Ni 6.184812521290757 7.624490866763985 6.763951046991295 -1.408689938567045 -1.075392950673548 0.3894393394130196
P 8.463014037753986 8.917590009146418 9.265049493101142 1.5218233627596307 0.580123405597575 -0.8245530409347025
Ni 2.5971072287679347 3.918903030731912 7.944562581227878 -1.9405223703687162 0.47797707654411226 -0.5228266287586351
P 3.4932069085768296 4.36847792452092 1.0785309304369006 1.6105467335389683 0.015984034133082147 -2.6512534456842403
Ni 8.293472011308282 8.024302290554099 3.4909179538275708 0.5990639512558198 -0.2374588604462491 0.43457994050539994
P 5.865064136569358 1.477452052499812 6.024566453928777 0.9272002208839838 0.05053323286286136 0.4742250657008477
P 5.285910039748076 1.7079687558795555 10.721566631735783 2.4864454759354984 1.5836121139316535 -0.4903993614678651
P 3.6182063702140277 8.35135994254204 7.597257892532307 0.4158947053910708 -0.7276900717673661 0.7837280364985406
Ni 0.1941553885994 5.828169739890627 3.768431963403582 -0.13309572624712562 -0.3582048068787702 0.010383657227169213
