# total energy = -340874.18334558944 ev
CRYSTAL
PRIMVEC
9.20965579135521 0.00000000000000 0.00000000000000

0.00000000000000 9.20965579135521 0.00000000000000

0.00000000000000 0.00000000000000 13.47926217692185

PRIMCOORD
 96 1
Ni 8.04330803628674 3.9039730380073525 9.762746144825202 -1.2116832725985711 -1.120742582452941 -0.6952358078934027
Ni 0.5319156357043265 4.163178796805929 7.5288953511809815 -1.0956825541605193 0.00047899651894756215 0.796695395292486
Ni 8.786158862532725 8.569418826023018 11.826340797016885 -0.0490965004163348 -0.9899328240265145 -0.8012071671199105
Ni 3.702106595402768 1.142955107121643 8.840441494010241 1.8544760322009095 4.481623328865566 0.8552301583035852
Ni 4.857780237003034 7.212127402521226 2.8853842000717145 0.39008005832081205 1.9724184477463647 0.0721909203419531
Ni 3.741910727203353 3.272070933603487 10.446819106661724 0.5746780662122877 0.27653165807799474 -1.0147177442806783
Ni 5.160041136053284 2.6620509710687075 3.038993888902883 -0.32543378309533627 1.0209105033549515 0.28833096470576797
Ni 7.837730102447627 7.9643997065164 0.45942275207287797 -1.3631199632467297 0.01125011899252256 -0.9081750859317328
Ni 7.410107370433574 6.80861554904811 4.948978852263397 -1.7138256335349773 0.9818209935526575 -2.180685774230322
Ni 6.051996287577258 2.024825685688272 9.760184939583706 0.02232745985260671 0.07180705463997311 -1.262199021959936
Ni 5.739337687276924 7.328694014321318 6.835319866625383 0.18400125484774116 -0.61923476977674 -1.2403474733024833
Ni 6.835084099440261 8.521289165497832 2.4782428212995207 -1.1553840837862102 3.2580139942533695 0.23542100408061392
Ni 6.6505778577713786 4.840373987788989 6.1213910430417195 0.03877429255472032 -0.31224299543667516 1.1920482719764631
Ni 4.500860031558413 4.940381638696565 13.149667010412115 1.1426208705832708 -2.3546175606572026 -1.672768458483351
Ni 0.8101899865651692 3.2515886593960603 1.9111168300422108 0.6509390428585564 0.3270034415753013 -0.2424496287926212
Ni 0.9698596288264125 1.3409166557226528 0.12903372267895638 -0.09648501700262738 0.06748940110122571 -1.0867603119702252
Ni 8.36441189083537 3.0941956440161458 0.15829095680762295 1.383149113983463 -2.149373080159969 1.1917446246931154
Ni 2.47102429318631 0.6535337436387595 6.384088182304341 -0.04653696721927469 -0.11208775653689085 -1.7920190513172685
Ni 0.05883496427460762 1.1482967074095511 2.694464354195074 -0.6069358978047289 -0.25571240733979833 1.0141068501695567
Ni 1.476059143006729 1.9612698519178338 8.130313495321095 -0.0757254158577728 -0.4614986192731149 -0.07945891475827606
Ni 8.222481887323383 0.9919812217428873 5.2863644570689114 0.6647769771829132 -0.11938403308798795 -0.18091850215735936
Ni 6.215237434306864 5.020321449901812 3.939785705041076 -1.1220391897771773 0.4326241023306097 -1.5200547008949823
Ni 6.954735945889404 0.7756666713250786 7.592935612839599 1.0512261236193574 0.21071013159749521 0.5986322630350399
Ni 6.717900440710359 2.5486340615073475 11.916247297586914 -0.14971919373641956 -0.4633552128658794 0.6027863944127296
P 1.4603198414687375 4.100230800309633 4.490252350159081 1.5879287390291363 0.027882328232564885 -0.9835832276594029
P 4.070152064895309 6.444281570790098 10.91773090418144 -0.019107410253412255 -0.9494351210227842 0.33384000488116056
P 2.728176298770743 8.819534654676483 8.19183307422316 -2.4200891599974512 -3.2473981664107363 0.25048664016448474
P 7.99266413976397 0.7843347992405599 13.217508096965249 -0.6908947573158876 1.6427030065565387 -0.2836497571800147
P 4.553705035786028 4.3886035386113225 1.8803842090754013 0.39787435755425027 -0.23875701043238237 0.19274583380959062
P 8.198232863947414 6.235388160910214 12.367438459423012 -0.9388707152433766 1.794851378559741 -0.1441653537977259
P 7.070031625207201 1.6845933763155292 2.762844205604834 0.8340221567674024 0.25433301049376844 0.65423751110417
P 7.821060625687085 7.678476736622613 6.680942092511435 1.7472751714426749 2.0584717278927065 2.3216575607914147
Ni 8.86518691782676 7.795770911220541 9.261007787850854 -1.0124649436907596 -1.9020630379512533 -0.8074868294810351
Ni 3.7664176209380487 8.65341088572254 10.333229055573792 0.7891466364109505 -0.7826756839746263 0.8103502670717593
Ni 0.9176537747022123 0.2121720472979792 9.912325688335699 1.6056927478807768 1.0996767629215771 -0.7556122520989309
Ni 5.785901706338413 4.649246003694234 10.648495830359531 -0.13709302033197682 0.42933668982858963 -0.3314769039656227
Ni 6.243888673092523 9.204581148533642 4.898215230216931 -0.791518736187553 -0.1381507721725298 -0.35604533733360616
Ni 6.487741935891199 2.634873277190058 5.083379962266133 -0.5675057168335645 -0.3356369488805832 -1.2948101231267377
Ni 1.6366386992480504 6.859084462113172 4.851738702884297 0.6630034302222582 1.5502322529196269 0.445271101670659
Ni 7.701473246827625 5.962238983429063 8.020214824697206 0.08940676999960731 -0.5145978130909395 0.8600201234930608
Ni 0.7606448019636873 8.455476966088536 1.3073336463263476 -0.7076881747241426 1.0312771913012562 -0.6606752963097138
Ni 5.1495237092795065 2.728701249143865 7.068929229423643 -0.6392880888831893 -0.36501925869744234 1.2111698232972623
Ni 2.8785607661866948 5.135221114025849 9.251424220161894 0.2535107717027892 0.31609707907544266 -0.9714921008228236
Ni 2.2462994852117464 1.708381916908058 11.293761145138838 0.6085209829036616 -0.10052730539280107 0.7579416715630559
Ni 0.7980792893606878 2.45697035863571 5.6721136476536 1.1202234767246773 -0.5916740865496519 1.079002265291361
Ni 0.7386014911203973 5.496626421781179 3.049305940355246 0.04745433682722149 0.4796907168011093 -0.7155390382271289
Ni 1.9139506410915026 7.180261993907154 10.12288512492607 -0.7149741668625945 -0.5863938119873191 0.18000370365257387
Ni 2.2757519640405914 5.156283596540411 6.370797728208686 0.10781818262725949 -2.58132766722738 -1.7459988758334122
Ni 3.3506661350810876 5.733627700762263 3.3939303345164427 -2.047977513229602 -1.6350030668091196 -0.9617144526107695
Ni 4.5397063591694415 5.202663422488524 7.271172346945082 0.27859342570302986 -1.3793711349982696 0.5236121007744079
Ni 5.1621040989230975 6.735140916122366 8.99175982051101 -0.3767123787646544 -0.5602708896480222 0.8231970411274404
Ni 4.005647636590983 8.287013944594715 4.89874110155562 -0.4096212136775333 -0.029061436142330595 -0.2214599139148315
Ni 4.851978153931685 0.24144954266911714 6.948627181284285 -0.9568280710527457 -0.006367594089240647 0.274070855242328
Ni 2.3949249083949566 8.628554025072429 3.081911805285091 -0.3071946343794903 -0.39611880831572427 0.7398526752718291
Ni 2.3780067709313575 4.827148922248582 11.800824525020888 1.4118439108149943 2.364390837993883 -1.1087797536641097
Ni 6.997827924763752 7.057791992823356 10.484574090076 1.076966722918571 -0.7418110845497805 -0.7979881459619805
P 7.545378792897012 6.67434797905257 2.77453125864855 0.7859759519924528 -2.979956386449152 -0.019601062060379145
P 1.4844675586323497 3.36639622696341 12.80365472114163 -0.6872057385000745 -1.9680036065081201 1.8578097245598326
P 4.511810312148625 1.586860510358148 5.246424943329996 -0.8065931140221722 -0.548319630823417 -1.196571099547481
P 0.9426543059807562 0.08993136664033498 4.857076619309937 0.6040863441710758 0.327990488078919 0.2800021331250984
P 1.7095054948996526 8.787291650179988 11.817511500127198 1.4069233335849254 -0.5424415747760852 0.7424955122113148
P 6.2171990909643196 4.201886979581926 8.326207476224457 0.22912360110767635 0.14889052718753712 1.5297207632298364
P 8.09697269986888 3.168600452164439 6.3333521892248825 0.34415012855791693 0.04956341275042432 0.2878054312196011
P 2.052031008533928 6.908199555794921 1.699047930887722 -1.0887603731193896 -1.6007816837324045 1.9740235874499554
Ni 6.844818705482191 4.517603185564304 13.122775736824766 -0.42153313462377084 1.59647380038567 -0.7062984934654675
Ni 3.2463575749761775 7.062010015119669 6.939568563968445 0.08548403790643343 2.979077326278308 1.325432733108601
Ni 9.140739815437469 7.972531832471957 3.446027514703751 -0.10589782567609504 -0.38521347425713015 0.5195656986191762
Ni 8.745894247948701 5.8910483451091835 0.9838850134444389 -0.28479106987330954 -1.5803858936848716 1.024211028483094
Ni 3.54080868601928 6.8008425996636355 0.33751546095044455 1.0556005985379693 1.504334461946248 -1.2926467969268318
Ni 4.399056497795418 0.5763899838945632 2.60781899269737 -0.09970275260897668 -1.0757631895287731 -0.11454701671066078
Ni 7.145173205808998 3.939172341973533 2.06758427502741 0.4537135760110573 -1.113256815598857 -0.360469948763863
Ni 2.6355547917095494 4.746057904084735 0.9851209492351928 -2.272299579183577 -0.3206695289374735 0.31389544343843356
Ni 9.001489821725105 5.369137158357883 5.3773899308027 1.0391514518430103 -0.9527217621938561 1.3027975122075885
Ni 6.0393974786223295 1.1924662159971504 0.8067907026578125 0.40778390335847836 -0.40154280754477295 -0.5802658447127103
Ni 3.6225351704242743 0.11930464243042851 12.866427734180219 0.31687509489204785 0.7601507633992328 -0.060804532881882374
Ni 8.972543873958044 2.004978877721993 11.490450840291983 0.2726107257570337 -0.6822627926725023 -0.7514388374475317
Ni 0.04913811782092057 9.176841665659193 7.344229782469029 0.8378816397228086 0.2892496198652954 -0.36581655778775707
Ni 6.024579142651219 5.9094676564467985 1.4143111646440776 0.03225628893054445 0.6371389037506704 -0.9853788861072448
Ni 1.294242120793138 3.465584218516463 9.824588982641242 -0.46753171284107226 0.3059257949693957 1.0760940905056307
Ni 2.454778460586534 2.0221272565773116 3.9556244708602906 0.9119391809598553 -0.5310433602414725 -0.05669950957457332
Ni 6.2348632105370925 9.047335487644427 11.462764773420416 -0.511233524604397 1.2441812452262766 0.6819252068274256
Ni 5.964311155954545 6.727994223323371 12.444095028382328 -1.3726903805439843 0.6204082212595509 1.027977694614378
Ni 4.076663291453156 3.858081323809686 5.033439683436461 -0.33075185287414005 -0.12754779984570294 -0.041009095422510015
Ni 1.2251697032770845 6.835682727058733 13.073738004250634 0.07236087026091409 0.07178494315278605 -1.595046066800208
Ni 8.628526396105421 3.4471833264901863 3.9408107397170142 -1.1396062521266632 -0.6321998145778402 -0.3203224300107
Ni 9.091422109331006 4.417521857411376 11.833066608551814 0.12741435959163216 0.7793332498649546 -0.7490083736291682
Ni 3.863432133753263 2.4133810583552453 0.7145191625120336 -0.5098862665478832 0.41779732173042244 0.06962084562193172
Ni 1.0183208369556758 6.688346655669156 7.423825152552261 -1.8542513177846132 0.8138798774915724 0.9951886731088151
P 3.0390850644940035 3.4708521415590208 7.52765573152796 -0.28684049620317054 -0.3284039214672538 1.2667624729609022
P 8.661699575824464 1.6413908815731548 9.333459228031794 -0.5961611757867281 0.6479316234908002 -1.1953413409054383
P 6.0043363194911805 8.743785236800544 9.266062967847464 -0.13494614919230308 0.9609171535204548 0.07008518685285994
P 2.1614232985680197 1.2570995794808388 1.8447446835682513 1.2589992840757156 0.01858650475293573 0.8794568920614338
P 4.228060820992676 6.09884580596448 5.2551197792469155 1.3205543219703773 0.5962856171797343 -0.03863133921895283
P 4.626921798353045 2.2793989876854392 12.035592462502285 -0.30005288112838646 -0.940791072194541 0.9486087684667469
P 0.22853944735258327 5.497519758381054 9.445849260986082 1.3528239806373605 1.4121107913231357 -0.18741490851498047
P 5.0558983497504135 8.262212341878618 0.6944890823979448 1.5281917281798199 0.40751136642338204 0.9566614635678944
