# total energy = -340857.5950659809 ev
CRYSTAL
PRIMVEC
9.36178324716460 0.00000000000000 0.00000000000000
0.00000000000000 9.36178324716460 0.00000000000000
0.00000000000000 0.00000000000000 13.70191608578117
PRIMCOORD
 96 1
Ni 5.694444938616275 1.1895081484231118 2.2197105801890795 0.7142370315862537 -1.0469580923716229 0.10822750225053619
Ni 3.2143775560304095 4.1758045851395575 13.25969991137786 0.22334247564952503 -0.6770527092264726 0.6944205110809589
Ni 9.167600900429084 1.7649956732134906 2.7460281482885414 2.231710087796989 0.7111807612584332 -0.7596460558486724
Ni 1.1331595765251208 2.913115378978184 10.011250146106258 1.2239420353612662 1.4610864498908902 0.5229181600311769
Ni 6.960682260535971 6.440990962446377 5.470119766643311 2.432020364217399 -0.15784259417450236 0.7095766499961069
Ni 0.5981889123955354 8.331902617056773 9.486329356030916 -0.23084444045352503 -0.37976659220994596 0.05854710430627336
Ni 3.8461668438037617 6.0940432843371335 1.3485339477684515 0.15503932039775237 -0.8813841909911337 0.36319840343861964
Ni 0.19253911014122405 1.2835659822591499 8.868318740482097 -3.0658839396509068 -0.819803184954543 0.3180277204392523
Ni 3.3860445709653586 8.685815461720612 11.551152981140499 -0.1280476223002569 0.9469378085222273 1.2047680335359767
Ni 4.002892453065145 2.0079994746350134 10.045065842493155 0.21537822649712585 -0.5887980505534376 0.9208992183666205
Ni 3.7321777739532984 2.4007918041123353 1.4299177997743684 -0.7285179669853001 -0.5948393716515111 -2.358481157377667
Ni 0.6000547157481305 8.579830716338131 13.05117087586668 0.6313873459788739 -1.535146305120782 0.3175682643043305
Ni 3.0846606907340877 0.033660290789039024 9.356175295468331 -3.5564370530878167 0.2555990216903856 -0.0937827875801159
Ni 1.3532644567201138 8.891344045779174 6.840530328934312 0.9578359434919697 -2.287107847841003 -2.282228922482147
Ni 7.339675321866152 1.4900681917500753 5.566307406112642 -0.16775034020651755 0.8948012357279881 -1.6607539505209785
Ni 6.58053769989636 2.594337305926434 11.489851089855362 0.6923536012496012 1.3190972778088765 -1.7391700258370368
Ni 0.10221194683207567 4.961155199519113 10.559902119917142 0.06849264555475947 0.6431984796811892 -0.20340665595754645
Ni 4.923352319751031 5.659263358089171 9.28626805324639 -0.3187571424061091 -0.7396233328698423 -1.9711717198234568
Ni 9.081912500598165 6.180227858667239 1.344028121608873 0.8580887107983028 1.4287877377581846 -0.9746812971840828
Ni 5.0402903512475925 4.365577288403251 12.021129466768372 0.45793198496777904 -0.8593256685291975 -0.22248655540713297
Ni 0.5366941683805276 8.726314534993698 2.2701331434458627 -0.0945579751832436 -0.10863682187381292 -0.5841556666854197
Ni 0.0027027467531068185 4.28555276728944 2.6773547890664595 0.9543230452427048 -2.5163530621282084 -0.9821367250208634
Ni 6.1922483880437165 4.937273291077217 3.782304504867172 1.7822848547486403 0.30665727381878155 -1.6847168890944793
Ni 2.720618396860476 1.775377890564358 5.654205186732386 -0.9873352385026675 -0.12807898975882456 1.6334444640727481
P 1.2640373029138752 3.17349464965418 4.355400094100159 -0.7516429830385378 0.28482886508978045 0.6052268855334222
P 8.031417467993839 6.524601046450523 10.07673113732415 -0.7202675540510498 0.5054058621790264 0.44552049867730376
P 3.0536919125585515 7.327692239621688 10.098462644210146 -1.2826187232668684 -2.923249677785727 -0.6534222142917263
P 5.1337583927544115 4.0654478870944475 1.9156782515461221 1.4116065979932078 2.4123905058016133 -3.690188410641071
P 3.2780283186711205 4.7880277464356205 6.883157335484092 -0.4675977901923173 -0.42635960947813667 1.6564103288403025
P 1.825220023274925 1.1054580606178017 7.852266643725901 4.789938192892428 2.8688613328428336 -0.6718968760571461
P 1.887279282805043 6.713297144668815 0.5752310119360832 -0.6322802901067884 0.16760121622316296 -2.043672200986029
P 4.784404736413271 0.4039141276854648 4.165560922177141 -0.33245752271133716 -0.2622088136974194 0.36016758703209584
Ni 7.491064714815547 0.8461731823749137 9.842250303149003 -0.7475474728129254 -0.4920698071917526 0.18490936848430736
Ni 8.524053213203352 5.762046373684458 12.7672120823398 -1.179511315851717 0.21182676170044165 -0.9794105843389518
Ni 7.247452397498797 4.912080733014832 1.0398900048179764 -2.5873851862753696 1.431082190219316 1.0869138068289539
Ni 9.085114230385356 5.797031356768491 4.151981655930583 -2.604742960827527 0.06521397480348769 -0.9123251035443642
Ni 1.5858954025737726 6.538699891653775 11.728374341931415 -0.35409207026197725 0.4824502818241175 -0.3651521847308808
Ni 4.27419692450621 5.017138661879968 4.951022941774439 -0.4402895892956675 -2.9043381855932044 1.2441485922161282
Ni 6.192763286108908 8.00893046521946 9.923530239363581 0.39243518881655 0.7937494252902846 0.00788171674092191
Ni 7.210155054012904 3.0281061596100205 2.667968665427163 -0.7038752287359555 -0.025240776844659755 0.27475579712449455
Ni 0.4210424458686454 0.22560773624444266 4.536580552923252 0.35568075490533585 -0.4863920400806849 0.7291484014804475
Ni 2.839513041004766 4.393540934234667 2.838187412531472 -1.1375861363728408 -0.45396760100339234 0.0823848301558194
Ni 7.40331672272386 8.178041713394457 1.185520028863626 -0.03326004760471046 0.21064791090099202 -0.4360603817056684
Ni 3.498629373365298 2.754283368541017 7.955359534338604 -0.38650108272030215 0.36709799560334194 -0.8446523827877388
Ni 4.827169361173201 6.593035680206016 6.59691052219116 0.9445909055566055 -2.002225760915784 -0.28365181406254375
Ni 4.938668196744737 0.5633715052272653 8.436982078022817 2.937861771271947 0.2743050827403211 -1.0680653066638832
Ni 5.056888792512775 8.36228160290309 12.945625198107061 1.707528487672356 0.5762369260589754 1.315645057594218
Ni 4.44124858042044 2.177017104979975 12.383476341740053 -1.3849663696978598 -1.7196882629633417 1.221593846844064
Ni 2.6066106034440057 4.89309503708376 9.187435710078574 0.10960149977992736 -0.6215809014114134 0.5255427421382175
Ni 2.3922913051451684 1.558221972015464 3.4476759970122175 -0.17096576182002168 -0.11729578310039153 -1.8908504570648856
Ni 0.04697181004169779 2.1480517483671853 6.142678683218551 2.2353649109407567 0.4090974799635793 0.30892061593166154
Ni 6.889429730096428 0.7150735817289768 12.644894770329435 -0.058379211269841386 1.3325973691778403 1.9662033200745879
Ni 1.567424604707892 6.525921057854014 2.679505190622361 0.5162991120527625 0.4031474330277315 1.0291688867090019
Ni 8.544780200773074 3.2404407599121186 0.44715807573517385 1.9667561072542643 -0.26002877532696506 0.21145935105869387
Ni 4.125176062656697 7.663518119522789 8.330394433814911 -0.00637967827409869 0.5521480034305717 -0.20620504463829004
Ni 3.69902770033795 6.517888648037023 12.697551991189151 -0.13337109139569933 -0.5438253424974892 0.15960071451618965
P 7.691781342410318 0.3534372660872613 7.289665613239823 -0.20455413929842836 -0.14003539078975238 1.3585421140680602
P 5.822589024368011 2.6777039835724894 9.113514135304737 -0.7395816809986295 -0.10267726185626831 0.03951811269928033
P 5.511066333143964 0.6306499587818277 11.03576997558911 -0.793776164763162 -1.246601424631995 -0.6385100730665841
P 7.591217069386855 6.730532187178237 2.774884908218491 -1.0870665303567342 -0.13349090480301526 1.2406400648422375
P 6.689789707547059 5.161825018198866 7.352379261401884 -0.1584930832743077 0.7419725498283093 0.17857211341236987
P 4.30112141242424 0.17440065557196716 0.925137013474429 -1.230497577091597 0.5422860230348274 -0.7004258367347743
P 3.445276572028423 6.414291157320431 3.7504061016393893 -2.142425959418175 0.8642344186847244 -2.435870334091108
P 8.663890165926444 3.407567310090376 11.822944265297744 -0.0522944385283422 0.019905994895307654 0.38344789771627513
Ni 8.194733772489675 4.2068482575791215 5.820546283316651 -2.5866886744289777 -0.646019751180068 0.39883132215088085
Ni 3.9081699326358588 8.815026790734745 6.006508740897925 -1.010332213618473 0.5137341795390635 0.9982215463978679
Ni 5.042686967696485 7.8957277851412915 2.215312414534041 0.17301338837766975 1.5510889444929674 -1.306153573164015
Ni 4.992947814598956 1.7695923086682028 6.3513312942653775 0.4136825282311004 -0.153717002041903 -1.023069458679483
Ni 9.28401467207745 1.400925293990868 13.046758667537135 -0.4245544379485979 -0.11094592962296376 -1.1626119689932173
Ni 1.5793140691223209 6.751465133974033 8.343123650164754 0.8290105624854239 -0.19825493655327792 -1.5279518442548716
Ni 2.658568499113361 6.62238486992195 5.871846045640861 -1.3696839896174926 1.352849177448341 -0.04456544531520067
Ni 8.753884985938969 5.655996095820953 8.1223175724228 -0.33925963323483505 -0.7243466092164299 0.10576001454665011
Ni 0.9094681972614921 4.989699275896746 5.893042994717357 1.8858964554937199 -0.7216446369042345 1.5378788735605966
Ni 7.553348657137748 8.132730683657579 12.433762222964985 1.155403624170236 -3.2414404061654047 -1.4012144561256064
Ni 6.377714671125806 2.8571880873153503 0.06050426737323885 -1.5896066409521914 -0.12316201207318145 1.578267047569656
Ni 6.16468729888145 8.883798448678364 5.840099303297735 0.24585634048132493 -0.07148798073765752 -1.2647492991856155
Ni 7.739479626813085 0.15164028873388855 3.354544043515224 -1.584003435832801 -1.0181221419765367 0.029834566862929263
Ni 8.738512938247244 7.876629747814176 7.150426878450654 1.1822618820136608 -0.5218694070516884 -0.9057299668253498
Ni 7.561446599435765 2.5631157596098038 7.931709798115195 0.36845322407965575 -0.13934967757663744 -0.75372686215076
Ni 5.25463773489544 7.10467584491261 4.262255034106961 0.745006965779259 1.9847648851268593 0.4408428906959763
Ni 4.557737246332834 2.94504842080308 3.3867298534812136 0.7135124947154035 -2.1610482025050524 5.575681974269417
Ni 2.6264575834113995 8.55083727437633 4.036927215174323 0.03213339019943498 -0.4619177090884045 -0.2544309695242134
Ni 5.602231376031925 6.235715146528908 11.222129372769732 1.7832456760000126 2.003823187309891 1.6139547307792528
Ni 2.141573394528772 1.1483443885567775 0.09721930795631582 0.8101857164694369 -0.16992549348096542 0.9809455329262395
Ni 1.0540618719286556 4.637256231164455 13.431604715601097 -0.38971778988538686 0.37075641829153566 0.45600185782460173
Ni 1.943300192297912 1.1737241822792321 11.468860100004942 -0.7597658692559883 0.11414103952149374 -0.39652427128425904
Ni 6.62729980599878 7.503188223805063 7.559113643111297 -0.4949679546751541 -0.361001652897617 2.779514212436568
Ni 7.067350416077707 4.229569304928585 9.860638717324452 0.4663338358782292 1.51983435735406 -0.5233645035399761
P 6.299871445451807 6.5333355899927765 13.45493895973729 0.2616585976209042 -0.3086308526053846 -0.507566617275771
P 6.044229236975577 3.225012541522371 5.0893432856509655 0.6758869710531457 0.3192153129894502 0.06311209796913647
P 0.2517729835608897 3.5602486290942523 7.959086460152293 -0.16138917387518012 0.5754859068255638 0.23324559369584988
P 1.5560125912266407 3.135261127867937 1.3861542727679657 -0.15829896498563062 -0.7178234633859315 -0.9302783455886752
P 0.5575260079198878 7.252938402338841 5.1577432808093455 1.4114818994898852 3.0761480405810766 2.0694230846978874
P 9.316312823439482 0.08366625470216708 11.090179722227077 -0.48709009458897407 1.0552516998389827 1.352571241196606
P 7.767527528691534 1.0071218919491698 1.072872502517563 0.04290348423174547 0.8999696673028049 0.5836057077192207
P 3.1590775038288097 3.626267922834846 11.007885904913223 -1.004060007456516 1.2112055616312043 1.0735039611809511
