# total energy = -340869.0333520048 ev
CRYSTAL
PRIMVEC
9.29434156724870 0.00000000000000 0.00000000000000
0.00000000000000 9.29434156724870 0.00000000000000
0.00000000000000 0.00000000000000 13.60320837010964
PRIMCOORD
 96 1
Ni 2.336755453132132 6.326955667761299 2.1399886672899684 1.1287052889434432 0.6436653920152785 0.6202776092189576
Ni 8.027662155709516 6.169667526810786 7.941688567539194 0.538004622050654 1.1197766189952458 -0.585545862164727
Ni 4.027758648570018 1.5100702497495544 11.335444864920293 -0.40216244340664287 0.6174491386312269 -1.0656906357841196
Ni 8.902287572471678 1.6282106243652825 12.51963133691818 -0.3913594392538679 -0.20338891534573358 -1.348324035884478
Ni 2.175823930319502 8.064253978135927 12.108093696343278 0.5038500876561323 -0.15493184828561057 -0.3633637253718904
Ni 8.209487358180406 1.5190950553314813 7.317138561640512 -2.140351593387649 0.19970889539098508 0.44265346154215374
Ni 2.599776022815909 3.506392562969414 1.2837539640241575 1.0114017925335679 0.733506164228511 -0.4241476894284824
Ni -0.018171367037307068 3.2494040209093966 0.4985865840550376 -1.7310067732999543 0.48924776436192513 1.1355876178855733
Ni 5.254806905760093 3.219866603670093 10.015103725640465 -0.38724644552675885 -0.621024514687311 -0.011849957360050558
Ni 1.2532675945192364 1.567007385686613 7.671120992569604 1.5139416460187087 0.8055088798190578 0.5377246289163901
Ni 5.905094802099015 3.1057599732588512 7.248197783675586 -0.16939378934721147 -0.8617371061841677 -0.32151336499500754
Ni 0.08387027869226715 6.638632115119006 12.285574723604084 0.606558202750336 0.3062700656826919 0.8737032774071082
Ni 7.876880053798497 3.4846902756019587 5.671041906521511 -1.100796221238001 0.3355752424047124 -1.180128894831058
Ni 0.7950398294944779 4.731135823471211 1.9566178158301242 -1.3891680664840333 0.19382801113017586 1.4419260749123552
Ni 1.7728398722132368 3.160122576604567 10.032175572080098 1.1492134361991242 -0.29052462992297706 0.29794869030119014
Ni 4.02474728192888 1.4929779557586549 5.499600342357653 0.7992374449880494 0.5743757044805204 -0.8934470356929387
Ni 1.3509139461605584 4.88739229251689 4.751206024473903 -0.8950277499164974 1.4413169805734467 -1.128123191187728
Ni 8.894629035088046 0.9365722027596329 9.541534720560579 0.8774817706129339 0.6884051581248144 1.1557563795239645
Ni 3.8312019148454155 3.7088233205125305 12.851263664878314 -0.06584826595337691 0.24488652036888794 -1.2105018506959606
Ni 8.031798137670338 8.215017491363977 1.2846871159092508 1.6070708591752259 -0.13698349133730603 1.5110990343635913
Ni 4.330466056394709 5.549102934540867 0.8844978662875221 1.0446780380881946 -0.09974697558335079 0.8338938587196542
Ni 3.89777728290241 8.305851090696798 4.469497322366252 -1.5386419769788662 1.7751868102512782 0.860686039211834
Ni 7.797116015174299 8.657967217855704 12.610867381237304 -0.36687225274578106 0.17155248756142713 -1.5247850164911159
Ni 0.16560192940883775 8.761459710291087 7.243871267714323 0.6229286736885595 -1.7806259789889787 -0.4633382435850149
P 5.308797735446409 0.4981432439662035 3.51792591131814 0.49282442596959 0.41275384576924395 1.587324272675918
P 2.721392481147024 2.323641137296809 3.0064452873209735 -1.7759661116194643 -0.2938292688161778 1.7343620629254324
P 2.929297605824801 6.294248880075612 4.312027012322634 -0.003486158776387544 0.8611611790760394 -0.7227337562033552
P 0.21649867281480023 2.02901980656406 5.771052738636614 0.3529381591631922 -0.017175997558654288 -1.1592456236241455
P 7.901463587026299 5.091235789965726 11.843388062548271 -1.1689386825421935 0.19883086366140595 -0.10361879983393123
P 3.934527109134067 8.858195216466878 10.3161427991686 -0.5891045260502628 -1.23864154635497 1.2666974240509217
P 6.194920252625507 5.032700027293249 5.930644946841256 0.6903183159871272 0.159741353859112 0.7712743841162201
P 3.5132239039608826 4.785061592767132 10.497785832546384 0.03235733328478299 0.45166594945340927 -0.09466596151601761
Ni 1.5730951793592822 6.398206089585243 10.28535901073616 2.031918917104843 1.1575440675520063 0.29709534116195935
Ni 6.748175223861118 1.1988864024905508 11.205969111429468 -1.3001508186133608 -1.2662359110334709 0.23481242396233754
Ni 4.699284115202145 2.2962693016235085 2.565945549244688 0.400581214962452 -1.2893344447241473 -1.6143285691789038
Ni 6.998035006002146 3.2360108748295233 12.875055320211596 0.3286394345168276 0.9075107128748565 1.2908267129989575
Ni 2.268971820682088 5.832766236662811 13.390780669964958 -0.9440815700203546 -0.7821465509440336 -0.47511261051212367
Ni 6.34209615004035 0.6106586831152148 0.8225111146216677 -2.503691664610456 0.1070504512232995 -0.4266432021568265
Ni 2.956511437692856 6.854130716790022 6.3512836065982645 0.27318176776915537 0.5981805202096021 -0.2114549801833197
Ni 5.895140562368589 7.93408672563862 10.997282332632803 -0.8422028928059817 0.4572305880253803 -0.09353210502189054
Ni 7.372708499945128 1.2049834905047054 3.0513899344399475 0.2940426703785646 0.8448315886780805 -0.5545895229925287
Ni 5.935533770462363 3.3842927988810794 4.09399477316281 1.0794874324578958 0.8290655840930754 2.083483933666328
Ni 4.067538430125782 6.671422551878057 12.205981700863209 0.9576521096159378 -0.6377706237973984 -0.8665193580641593
Ni 7.267022542919288 4.316812668753256 8.982348100589249 -1.2052925385808788 -0.4406670272397443 -0.7996940729094937
Ni 2.0962643672079744 2.9129953308601255 5.492962323669072 0.8016604526072452 -0.3317592110927319 0.26339152115161085
Ni 1.83017666483415 0.766821279311895 4.19078139821677 -0.3444188088382713 0.8361991098140631 0.6017751795393959
Ni 2.9585190154536143 0.5055145861979503 0.08738353977359398 -1.4770080062171531 1.4981656141313748 0.5170850982891675
Ni 0.5845229948594183 9.209298260403921 -0.00799499254538977 0.5886586967620959 -1.845849466874163 0.22084104938391
Ni 7.9256567579117325 3.032232437771083 10.800811106849864 1.024994186506022 1.0658145629564935 -1.0971581102647814
Ni 3.552538968442397 1.02285157476481 8.807886804876917 0.9159596149731581 1.8252063367025146 -0.9563902121843786
Ni 5.638440144894606 0.6914748411955137 7.185105934807167 -0.885949441764313 -0.9589176065919228 1.3070349473277036
Ni 7.964618637416818 7.114344395345332 10.53267864934934 0.548291605798959 -0.6173259827898013 -0.4581515571777529
Ni 6.815856618554826 6.3444290297530825 2.533761103550459 -0.5773389008739026 -1.6022294719225245 0.27303032979295555
Ni 2.2849023219873636 8.660021267323888 2.2913516655437993 0.07496488354266444 0.13251954202868146 -0.5261940025689713
Ni 4.89385185984896 5.008395324309996 8.145057124138146 0.5204905244262906 0.6642046496192109 0.9425736180162606
Ni 0.3699370975222295 4.257524064420495 6.8456245354629575 -0.5592231651097982 0.07519602571686405 1.1391897334145349
P 6.22009862370835 1.4224339038875686 9.09634319890267 0.4504364479216823 0.5013098377327818 -0.11355842754514636
P 3.79296499397616 7.788788285203746 0.5050954113969772 -0.2184391248106367 -0.5637552486521968 1.3562988265598384
P 7.30307529353957 8.612861778629041 6.413000822361053 0.2865301640516033 -0.5506295099035162 -0.44533640769095556
P 9.213174000803162 3.106113158235281 8.940327453301453 -0.4337754423262336 -0.4861063905194661 -1.0367978640091695
P 3.3984666696456918 2.8918971756891945 7.436955635460132 0.5725625625311817 0.1244298230420115 -0.6659972227432595
P 1.154320035070016 6.528614994961161 7.536013797573024 -1.1027667147008104 0.3762588361670036 0.2880314311874781
P 1.6438808841089783 2.5807598001376157 13.17844772100373 2.283708849461783 -1.5548962340541996 -2.0645043072400315
P 0.36142255128782863 8.674464673991565 10.94354988563977 -1.3784491374046324 -1.481013013611488 0.5326276740094569
Ni 6.729949020209049 1.101351582947049 5.265734263043997 0.17283212560479913 0.5239648561281363 -0.5743476794560625
Ni 7.5092051989937145 3.409183045377887 2.0455683815780876 -1.2086020625700862 -0.4669871531915119 -0.2876521934711885
Ni 1.0170797887026302 7.937246801743518 5.022712327933477 0.40139291223046997 -0.733916255182736 -0.15558285160604818
Ni 8.600175002502027 6.236475253404905 5.534152056828109 -0.6826114342611729 -0.31602483107661056 -0.15221599201634428
Ni 9.098807128830341 6.799554343590151 3.081711794100584 0.7782461874483629 -0.3300085469502123 -0.21221834071190546
Ni 6.204614250794354 7.45749148297122 0.2897919908971469 -1.7097532632378167 -1.4009794572966645 -0.45152119634542887
Ni 0.5827737997919429 4.173335919249441 11.971870250934348 1.1094826932684052 -0.2514466900849089 0.28757300349382087
Ni 7.897931737262002 5.247724617548529 0.7068690589971053 0.20902914435064646 1.3357361719171383 -1.6985332261522814
Ni 5.200016762706068 6.487561888621952 4.532970239235557 0.9115301184468946 -1.4752108051074142 0.11364661638357848
Ni 3.513316847375733 4.457436055421179 3.446277691678637 0.597596365571358 -1.0333798394665559 -0.6222406464825994
Ni 3.3635199456621234 6.730432325966268 8.614204810973622 -0.277084188147355 0.8716813618810728 1.5769894664088133
Ni 1.7700143924017993 0.9333749492887959 11.23992319974244 -0.25159401429605055 1.8882035063603417 0.9565658185302944
Ni 2.2228811812580145 4.597799200527522 8.08450913653417 0.9716450814609202 0.5765477724311747 0.813406794509896
Ni 1.1728436576496042 1.4760157825485452 1.6002811282028828 0.29164126002592355 -0.19330659140906709 0.7798333294298248
Ni 7.354872658635429 8.335044617301158 3.8468377855256164 -0.9986432073163188 -1.0973226608671036 1.5472204626764967
Ni 4.836087527519736 9.078145807709205 12.720985809717336 1.3326102246936469 -0.1527726358507627 -0.8595832930659584
Ni 7.640366946029916 8.5595680245541 8.650171124218094 -2.2199372635317767 0.2732056790285553 -0.3168784373261575
Ni 5.2912871960886845 7.437871128096404 7.245422493308168 0.4648989032039155 0.2189165786676875 -0.9246154908759431
Ni 1.8503267971736117 8.874739144310164 9.26666851265418 -0.4433291474529397 -1.4440274375260742 -0.3732478172548217
Ni 0.045422376271302425 2.789854600525472 3.298954943668332 0.8845276217161218 -0.0376427500534384 1.9395880314799043
Ni 4.152005405541385 4.4878471407600715 5.894133985185764 -1.1354204961800896 -0.38177205267574893 -0.28669651442613847
Ni 5.736532624927206 5.421909871318756 10.896129225949194 0.8429364285378967 -0.049188031688876574 -0.48403716669526314
Ni 9.297594504511343 5.023647338686867 9.881465966032662 -1.0263753831242648 -0.41974647503699325 -0.6152323334855663
Ni 5.146044521702722 8.035962002655612 2.4663975753355367 -0.35363158568579095 -1.0614755692615074 -1.4583713649525722
P 5.300897545184165 2.053296626522858 12.898439883387834 -0.5103405804764823 -0.9590657021340127 0.6130134714573766
P 8.064765166917601 4.686680988148496 3.7465007220243898 1.2177729304360772 0.7868717243338449 0.12820317404151468
P 5.520467068425608 4.175724565011084 2.166692239810498 -0.5204802400136456 2.8953331538811167 -1.3530540943702956
P 0.4844350197099894 6.572809588722296 0.796123549711628 -0.8099576596190309 0.9531411091194616 1.267234013280682
P 6.148253364029365 6.91075184511659 9.113265406444395 -0.01695539690741596 -1.4836406810423224 0.20153823529023998
P 3.401849809946228 9.22687386015204 6.753244357707032 0.35972715706056757 -1.5387085685507436 0.48277989724939435
P -0.0335061010533947 9.231892804553937 3.5158040131571164 0.33782135812641173 -0.6619541630221374 -0.42070549651615285
P 8.202507307725176 1.2812900340964863 1.070354954094602 2.7639135297848334 0.8470908170259024 -0.8728846381605547
