# total energy = -340876.34396184987 ev
CRYSTAL
PRIMVEC
9.18669871137661 0.00000000000000 0.00000000000000

0.00000000000000 9.18669871137661 0.00000000000000

0.00000000000000 0.00000000000000 13.44566216983693

PRIMCOORD
 96 1
Ni 4.424874580392231 5.004656334869206 3.064508206813134 -1.8005265745676475 0.9237158618798093 1.230315542987778
Ni 1.8863232591824906 4.535666169164273 2.7662969363780596 -0.7398053669736614 0.6879567577334862 0.0765121734251263
Ni 4.449678667430748 5.090845943978601 5.744712913090173 -0.5348820172612724 -0.06769046136843826 -2.0685604795872763
Ni 6.502979365876972 3.0106282177461337 11.95535865849031 -0.44273727950521174 -0.1963428071322296 -1.421658840022887
Ni 8.047061344121351 7.184117969352449 6.110623723752263 0.09545888973095817 1.5935489134293912 1.6056346409493314
Ni 3.532000940596853 0.9539100673079359 3.538898314133341 0.1184877465259637 -0.8911759802705749 -0.10757932714357603
Ni 1.4669137074578815 8.073840571424046 -0.05879211697051695 -0.27016997752602506 -0.584173921517865 0.9808925682011173
Ni 0.20019103047819786 2.9276080197583276 0.8112737054580001 0.8042032736337569 0.4541383222533017 -0.4629173539975124
Ni 6.3775166189565935 8.573211150401711 0.6140591654244243 0.37477068165725136 0.9461276539161061 0.7232760018600705
Ni 6.4239278218153295 5.519726982272362 2.1868431470519276 0.8777247398616754 0.1331486909722481 2.7662912859883906
Ni 6.535739134165621 7.674908171554567 8.180691066366634 1.1955845672644958 -0.4163685597036958 -1.6882254164683699
Ni 0.6860975835433994 5.420859728676614 10.107978734628182 -0.14624203382109655 0.9641428595466041 1.0378404463410709
Ni 5.92768990716364 0.5335781710134502 2.6459723101542147 -1.023882955719714 1.632820457335504 -0.2608582132067959
Ni 0.4773647604250486 3.6266606860949553 8.562749337690798 -0.3293531727544005 -0.825369623298727 -0.004114793499321945
Ni 3.699639822181614 2.941259454328415 2.264599366568226 0.26460842427784753 -0.005829719307899638 -1.3336556352390256
Ni 3.631290782342145 4.763138020705278 10.132987685052237 -0.5129703047898455 -0.3792482578126307 -0.5804658765386583
Ni 7.385894624061332 1.7350091415486353 0.2224154924647089 -0.7244111439057782 -0.8415989406733957 -0.3229894353199018
Ni 2.616821995864616 0.3961368873932481 8.208308120609297 2.0252186222665314 -0.506392908682644 -0.057786571991165
Ni 7.132525468312334 7.753757608240341 2.8539362065743714 0.9420753382236032 -0.5998648498905603 -0.1664064245841134
Ni 7.016414780875367 4.07314343948716 0.5823650542085417 0.17707367448997247 -0.909211497616047 -1.131002312507736
Ni 6.567176017812215 3.4802798257720937 7.59706835307825 1.2956477885366848 -0.3626348176256658 -1.2293408377793344
Ni 3.1877293992011437 7.348385332439753 4.367487109684006 0.3547762408131954 0.6818997529061288 -0.906939927973051
Ni 4.588278393782638 7.365086751045687 2.164052784412982 -0.3217990145562264 0.25243862168453296 0.07970856887523692
Ni 8.08902618471096 7.224980406073679 10.084932981759728 0.7645069834853995 1.6430210520175896 -0.5247444146066382
P 5.393501739343021 7.997251062668448 4.266618074397262 -0.48565721879718937 0.8284364351495087 -1.2988138449694924
P 0.9729908409297875 7.434648435140372 11.31248081860669 -0.04275641713091991 0.24484589693893963 -0.8339226550750606
P 8.226597000785697 5.890741004175154 3.493479274756146 -0.6953237396215187 0.23808081030096415 0.9207156416009046
P 1.2969505910506227 2.4030199522915043 2.920720751590633 -0.6325073185159301 -0.3647444077695009 0.889948535621377
P 8.767390405117684 2.7822468830137166 6.607077525828175 0.534147453088093 -0.07195206485826963 0.8020342910068962
P 5.573358930468976 5.950619907625913 0.3834592429068951 -1.3045959988689082 0.9797124318500868 0.5474125456281154
P 8.562729126953212 8.56176452356838 8.12752672114419 0.5301694422769515 -1.0100820452808799 0.3410329230851739
P 2.3421305119613973 7.332152435477878 2.2390116541132703 1.3920916678887314 0.26828175936437665 -0.4548032095308103
Ni 3.984500981770624 7.633044384652893 13.153582552438403 -0.6227749217195145 0.1833461377622455 1.0446145318401105
Ni 5.254773399206487 8.268047386236729 9.890992581215235 0.6236832924663968 0.9234078437210871 2.22724176761299
Ni 7.629911720326918 6.396983233932378 0.3222069279701134 2.5325222156889025 0.6736400840004979 -0.25273301299650025
Ni 1.551100616206388 7.708917330894045 8.927570605862973 -1.7488348026203107 -0.4349152123576317 0.7477351633436994
Ni 8.705168893446618 0.04393722484411635 12.346775419987116 -0.13010399060865332 -0.4082284470950647 -0.6258707870360188
Ni 0.8173102853072628 3.404416066229845 4.851396474407663 0.9746663847857472 -0.6612036580093581 -1.0961903470348735
Ni 9.207001507730329 5.750653032600952 7.636114579426327 -0.4611396932717994 0.519143523480093 0.10858282870742589
Ni 0.6710562014292648 6.876464609784713 4.704973355269846 -0.32533479562362677 -0.3861082181572576 -1.742512974167341
Ni 6.503861288971675 0.9272043335964663 8.774692912075801 0.10995014136859774 -0.3194369420819531 -0.08331325550735974
Ni 2.551183032201578 3.2395607544127403 13.238276566966364 -0.06568731489548044 0.6100639019107493 0.013972403019692065
Ni 7.753739234842535 0.7804725413755041 6.714333154192393 -0.1074217185197892 -0.16955962550111445 -0.17593930377521314
Ni 6.42989917610238 6.116228528753076 4.791630567353411 -0.2807094436047681 0.5684233435518274 -1.7266649513914907
Ni 6.1490893507296605 7.380915433255822 12.237368266739782 0.09362800716980649 0.44403800059450627 -2.6587422978621182
Ni 5.639971684215749 2.8794880909036054 9.692682068002513 0.44497851013090456 1.3072205809759487 0.08622888649225793
Ni 3.483513543786004 0.10811825939122365 5.829218600290619 0.4432003351845593 -0.06911510963010677 0.46560904189706265
Ni 8.368660112624076 1.0838742966908608 2.277426754246701 0.9829574211499459 -0.14354006150890117 1.0990157322988103
Ni 2.102431164180294 6.736927840144701 6.593725577642331 0.8069782652757327 1.5275034438635435 0.3301368449979605
Ni 8.452323379535102 8.950371073870713 4.461298004203457 -0.2889382592724637 0.7066674467691121 0.8038793146354348
Ni 0.6059813010788807 1.2529463033045136 8.193693001324268 -2.053437507902909 0.22031371612553025 -0.1316998743408635
Ni 3.259716371806261 3.0949529269781877 4.5192752609812645 0.6556693584546901 0.6517857071295678 1.0874380547635403
Ni 2.1600776997975877 1.3708392103286933 1.347698834461538 0.4884599783533072 -1.3172059743234346 -0.7841383845630817
Ni 1.9113294535968768 1.7935743470562442 6.178900188670395 -0.19176932882893424 -0.528914743934244 0.5660098490143285
Ni 5.217824496218 0.6059601716714033 12.15270089363864 0.20054141859460944 -0.19444636144046512 -0.6468566452590666
Ni 0.3552505652548693 6.577207893014459 1.989474270476779 0.07161165079971538 0.633429058999251 -0.43573025205975924
P 6.684977057847363 5.67192302300092 6.873409113729523 -0.4984055196017932 -0.11724513236811421 1.1269528250287106
P 2.3008271136928156 5.458828355243352 4.8728152629003665 0.5879832679616261 -2.3474542101395444 -1.1282656303028633
P 0.763373338707063 2.0678983630033363 12.206980504107925 -0.7712036787792848 -1.5218336471722758 1.2923585762624517
P 1.3555341699560381 8.783099660242078 5.384302179061402 0.41748004760031976 1.0411617974048197 0.4578903330965663
P 6.804045862331147 2.676994873680277 2.226601342564999 -0.6639575666054114 -0.3982829058465786 0.14061594588357074
P 6.893809097313868 0.39093813448395304 10.873184819766422 0.3974231289494446 -0.6446763497782961 0.14050358867542254
P 2.5465437492554845 2.6222788950130895 8.708419147518557 -0.1472751030713012 -0.46214242350470086 -0.17452391148492524
P 4.230943366546643 0.4318226192825512 0.8063569842050319 0.11028309922798425 -0.575708307249015 1.0700972494922474
Ni 4.837881002981342 2.410727592671251 0.14645159790441584 0.0609027490226435 0.8890381079919656 0.5689907860195232
Ni 3.8396910469602017 1.2636028740321725 10.1876301701282 -0.2821189223577851 -0.714435520750305 -0.6882673469953694
Ni 4.363994326761028 4.475245250478227 7.840636219767473 -0.5690578918120328 -1.0021072546055194 1.392202739545299
Ni 2.469504092253633 5.847287918363233 12.360032745174259 -2.0423683945729407 0.266406910939167 -1.0823223308035295
Ni 6.070846236171495 3.8741411678470303 4.067500969020843 1.4102297722503392 -1.4405189101521836 -0.9828406930664233
Ni -0.5100932939374263 3.9463761813225333 12.053861200139602 1.5437142492954512 -0.08847114555921538 0.49569737664201086
Ni 8.57365211194906 3.8694192046108093 2.869008823464777 -0.6626383335733556 -0.4495059656876129 0.2085321501095699
Ni 8.365555008394809 4.804441418973861 5.369081656318656 -1.1156129745358594 0.060051713876257864 1.266066218224826
Ni 5.0085331218063365 7.381108353932787 6.270721244207424 -0.07935169975645044 -0.07311548903875151 0.5055305606823488
Ni 1.4869958312601772 0.6118956978327315 10.56845191178 -0.5026257283307278 -0.44029601705357074 -0.5936247825181197
Ni 7.808115305650306 2.1118842773516397 4.79908006149398 -0.005946447391422017 0.9261820640321146 -1.5695173264014841
Ni 5.823191207140259 0.853217416640132 5.005228666210873 -0.6036392293313282 0.13797388027503335 0.7850634674805125
Ni 1.2412057021062823 9.099416076875489 3.1994892924670713 0.5899946419647001 -0.1623512806781333 -0.7322077571320615
Ni 4.5013354753631845 1.95342290797113 7.647529971483387 -0.49828647752542565 0.13217964219075945 -0.7611432092194892
Ni 4.585908225465625 4.836576491737095 12.369659486954875 0.9270822072488808 -2.248624347053824 0.5541696618462908
Ni 7.213212244778739 5.599642076030902 11.350102187954887 -0.5895105032394299 -1.366693025309969 0.8671019700405067
Ni 1.768274178276957 3.3776460256260536 10.967963073680377 0.9713319210958756 -0.1189266338355952 -1.9989674018794865
Ni 6.189758866773924 5.456531680517563 9.126902679993727 0.3159726376824365 -0.34910618701161167 0.09065452636377937
Ni 3.345299658788047 5.192046619095748 1.025499255850547 0.2820032227155272 0.9155096719199329 -0.06595316696235738
Ni 4.06804482159591 6.718710616219746 8.626118268054865 -0.9589147783784453 0.4640645802280782 -0.2891426619737859
Ni 3.125811048593883 8.04848528245134 10.85945621692555 -1.2455058775749712 0.32251352412474776 0.13763552309900814
Ni 2.2196718155823496 4.246606688176521 6.634331705464163 -0.14128623247771796 -0.7783068654829693 0.910432771617658
Ni 8.587615894281855 1.6383742557863545 10.296540322964876 -1.126717311979137 1.4457457057687617 0.5057897278810063
Ni 2.75144388159144 0.7547112003112788 12.513017923338596 0.4483098884969827 0.464380054585968 0.27049085120055355
P 8.642111392175368 8.476613011435042 1.0411396107331672 -0.6262952761679471 0.27449662992583695 -0.2468379876683039
P 7.859781300281646 4.045188314724862 9.945703047863082 -0.11759197418457167 -0.3571118309249075 -0.2458753666447185
P 0.9263407838995696 5.133058825438595 0.46283599610971005 0.4640234425774976 -0.983659589423293 -0.628542163220595
P 4.461933723767556 6.464321736892499 11.129432168281777 0.7759437645674314 1.4063299229753006 -1.659835038251135
P 4.233175734380109 2.937263240305543 11.344508406992755 -0.23384337518084888 0.08112730359963446 1.7701343354290353
P 5.280505342834221 3.0037657536654776 5.77007187674244 -0.6968203787717032 -1.1707032306417837 1.0239343777829397
P 2.097314172891237 5.552652111141267 8.396332287060156 0.5636511189741648 0.06427629348056672 1.1535606574242263
P 4.619696904031426 8.876252787120062 7.769952839736712 0.42102431330815226 0.14389487374515864 0.7465575980958304
