# total energy = -340855.20000242355 ev
CRYSTAL
PRIMVEC
9.49163295503300 0.00000000000000 0.00000000000000
0.00000000000000 9.49163295503300 0.00000000000000
0.00000000000000 0.00000000000000 13.89196425864969
PRIMCOORD
 96 1
Ni 0.993593637846794 6.309563060714516 7.086652549009 -0.12013402388013504 -0.6883431945386275 0.06368776796694839
Ni 0.8565411009493511 5.162518191573896 12.315587493589355 1.042723742575301 0.7701274149959705 -0.791346986496379
Ni 9.171840935799809 8.053603172923602 8.414168481207174 0.28289873794660314 0.3353114472203645 -0.17362171138563
Ni 5.380664393641442 6.431141388273287 7.396470841265329 1.526312765989552 1.8335683355139647 -0.3877930620588483
Ni 0.4214332526171567 2.9493541165580193 9.430879940476572 -0.26287678629872147 -0.8223503768564289 0.8640863231426344
Ni 0.0958009505594641 3.5486653180872785 4.643486273100247 1.9588923882354718 -3.110198445297566 -1.0555376065105178
Ni 6.172769645398958 2.1858756300372315 11.77510638278084 0.08307851378873433 -0.39571463089877007 -0.35196396817538095
Ni 8.60956608637722 0.7548676770304826 11.563490424242096 -0.5462408939175173 -0.6690648059249896 -0.37204634074755283
Ni 8.677023122364428 5.1942677040794845 5.734380539526201 -0.8632041776479973 2.041878599420716 -0.12616788877904078
Ni 9.28375678092788 5.211713325599745 3.186830978466786 -0.4588712089525968 -0.18522561417314554 -0.7041688487169743
Ni 1.239284558984959 6.741346939157486 4.620050481970934 -1.0033087311127882 -0.007466483580374238 0.1131082273816052
Ni 7.503667446447876 5.747459060686574 1.3069779366347671 -0.050769774353699657 -2.26923045333995 1.039368710060139
Ni 3.1413983277764275 8.849875251583942 5.237632127931287 0.2088414538198726 1.4471945224001463 -1.3109844188937552
Ni 2.5431122226150613 2.883112009599423 11.57879947916594 -0.2695189742055874 -0.8960837019848373 -0.2096863183186711
Ni 5.34784232660278 7.717400039153659 11.792124880814479 0.48903333435827395 -0.8623605987007793 -1.0484300489314589
Ni 4.130464456665025 4.8129033803240135 12.203327102182076 0.5189527476255256 -0.5746245872665329 -0.9541672363911308
Ni 6.943233973834279 6.8166630472985466 9.334093758407965 0.8066993005827332 -1.404405195148762 0.5553940211716951
Ni 6.367775246124614 1.858404798660456 7.097668538310641 0.24405219739305065 1.0861990401501165 0.778132287578318
Ni 1.9893134014936633 1.2660129976144772 0.9767801590867343 -0.011321338550090179 0.5711140030101132 -0.7518147327297117
Ni 1.8899929534044315 1.4853931119767103 4.162949570730908 0.24244037282124054 1.8520643374356232 0.47531187100712335
Ni 4.922436825560036 5.115097992925787 9.941603832553765 1.217946479899464 -0.11041962480584853 -0.28141238320906375
Ni 5.041395462400856 9.10303608792148 13.558445652412386 -0.048904181899870613 -0.11980492267549045 0.7692781796217978
Ni 6.974907553275578 8.888401790077271 8.3142576535431 -1.0328653617239822 -0.14808500056710627 -0.8159532150808334
Ni 2.1486589369028777 3.4823377864313585 7.961998473329374 0.7780276436796536 -0.2406539703447791 -0.5500438126033753
P 7.184758068069618 0.23461513454839789 13.522813112831752 -0.06122182292495908 1.0250939453086798 -0.8943803461404856
P 2.7527444298492707 6.9981620542139025 3.248149775369583 -0.34891412560546364 1.3246614021602152 -1.1949019393751743
P 4.965936979764255 1.683559426503371 4.2334230476969745 -1.0609441222380698 -0.09259673769181473 2.450479342253535
P 1.423355798453085 3.185221197503872 2.6701881040283113 0.15010383076934794 0.22304525612408038 0.11096264179351212
P 4.335920345363372 2.0599975927131307 7.891191840043742 -0.12975714879219588 -0.13568354157895987 0.7903637966475032
P 0.18012556761503962 3.046662338443608 11.642966715142856 0.03960784419960921 -0.7417511778461227 -0.3878923066408739
P 9.032807495087742 0.5068930689838438 1.594311499391996 0.3840081410951193 -0.9725192565357573 1.6775052018373884
P 8.27212904031259 3.1647002868799308 6.2240443962230065 -0.6093619907477184 -1.9847281183516525 0.9595544688449733
Ni 2.341842144085612 8.74673916701422 10.77823338572009 -1.7636608118895496 -0.3448705516637093 -0.342086818270985
Ni 4.480819615291718 6.797679781226446 4.384845917010998 1.298933401266492 -0.8882634346094702 -0.6775926408903428
Ni 6.031771436648429 5.11932176962683 5.504288168119481 0.5664232824026633 0.2065557431094894 -0.3834394130758429
Ni 4.863531750938307 7.908960177087229 9.431198859346583 -0.9510523449112329 -0.23697729282414026 -0.019994955064688145
Ni 8.502073342243946 5.024376964367218 10.464538710531837 -2.308581701444063 -3.6323136498114734 -0.3726824316696549
Ni 8.163364417352488 0.328957221110221 6.590959607007696 1.3320445819981641 1.2732408815963943 -0.32644216975519263
Ni 2.6835978831816436 1.2514528325371757 9.350277941897735 -2.003747596876949 -0.628682288342885 -1.763799394349943
Ni 9.14821626117308 1.379162755037234 13.588647079569796 0.15672210741681397 0.2756312577509124 -0.13255399481104269
Ni 4.725808155585216 4.260632712121421 7.4608184182699295 -0.5373657029150746 -1.514845903000533 -0.4296534497380601
Ni 6.618857414827255 4.8248153797842575 11.780996890243014 -0.6351218733206416 -0.4071712094751439 0.15120477714301056
Ni 1.2604793755544597 1.452713419433589 6.682951565229794 -0.48014425939876015 1.9530701251267395 1.060289005152574
Ni 7.421925502741409 7.846913371930567 0.5531011860932481 0.2702715361008958 0.880146976149923 -1.418050039625706
Ni 1.6659334639554255 8.728515231585002 7.024124518057411 -1.3660325089078345 -1.3085354431326301 1.316728520466384
Ni 0.7040228971829678 5.62091660904995 9.440284250488691 3.1961707356943276 -1.7827533097446264 -2.663602711278213
Ni 8.523894606593828 3.848866687751481 13.297054621069291 -1.8444528436369525 1.2325241206033224 -0.6643499169478235
Ni 3.612581974952042 2.206747731083506 5.930548865298773 -0.45351508684700603 0.5309965661639371 -0.3097677944233052
Ni 9.12504718493208 2.8803309611198604 1.3460872613965094 1.2482075927768503 1.0963158168691443 3.3227443445522193
Ni 6.980782874124894 2.1328458762648177 1.7527904487050192 -1.0769800926550097 0.34307180789207364 0.12277506104740792
Ni 7.73479820250874 6.916752317663698 3.647654508183552 -0.6350581099622418 -0.8175326437528114 -0.738765098634605
Ni 7.618573155982302 1.2501240039121286 9.611919552352983 1.0729565733179134 2.90340204693218 -1.9146326470861477
Ni 1.3615462841223245 3.3300825009000734 13.501738840001808 0.6171362353764984 -1.1747712300635704 1.9553504365204843
Ni 5.272583168259937 9.121601722139994 4.062733112483073 0.6338214093416632 -1.7752264052399618 -0.06614805658198285
Ni 5.977393870984896 7.1689070408994136 2.1964303259733193 -2.1466621089867095 0.057108829197850035 0.45057297349954656
Ni -0.07534268471356102 7.56854275824928 2.083113515809128 -0.4627281208048418 1.280150464232034 0.007570613258406317
P 3.283260275133237 8.885032260349474 1.0889038709782943 0.07815819366898152 0.2782393847977208 0.03228688505816375
P 6.757122033263402 3.40857830610821 9.949216122248679 -0.3535423684060944 0.9260877045460955 0.06586343546202851
P 0.690876985428038 9.528175823239213 5.275820764288533 -1.172743143889948 -0.9130858929697887 -1.9404259540001678
P 6.293180502094293 3.4326775623867425 13.605136893643326 -0.644256231521742 0.6235681070447712 0.4589843374916934
P 8.88883840519693 6.240112781789736 13.801736139555734 1.5076514421346228 0.8619921596177671 -0.33820445249744335
P 2.689046080544336 0.505683834935051 12.501587432890407 0.09811483929656652 0.3245135852739121 0.7707794467576726
P 2.7087412190941413 5.379164715621746 13.548721474366953 -1.0112115308996328 1.025412247880047 0.7000201166559235
P 8.144504542509855 6.253942091123261 7.472196038790243 -0.074880037138342 0.9849222581858006 1.3135642638057894
Ni 3.576551735947195 3.6141386027699545 0.5790570057936316 -1.3311076720061916 1.0770780516854548 0.5305571646336734
Ni 1.7740906224012198 9.246207880637265 2.781879946616731 -0.0018321681127323286 -2.3929352252904788 -0.3389760405561453
Ni 2.9690112885756794 4.884925891801565 2.860132766019145 -1.1707371692035127 -0.4493576130352067 -0.164040238344782
Ni 6.97170887294243 9.23845321644681 2.505068808243267 0.8543456988161029 0.5949036492305432 -0.5555410882725206
Ni 8.178408655714627 4.103232961484597 8.166488113784652 -0.8991386867610772 0.07966640278339183 0.06598890529629925
Ni 3.82111315275407 6.659623978717092 1.233469035423771 -0.976469499432757 0.26616599857295453 0.19093397741183246
Ni 8.77658086127956 6.667587458834339 11.751490250623842 -2.213983617051503 2.9924146668171625 0.9125143367370349
Ni 2.8127695171692535 6.495893308845223 10.60902889107633 -0.18069995838865008 -0.8937578820651382 1.456025490428215
Ni 5.152817742611052 4.649428984544118 1.9140067849856393 1.5409215170416624 0.10169921421371518 0.050953865340047734
Ni 3.1833703290618423 6.839585341080608 6.219696279129192 -0.09934999725524825 -0.9817438604578189 1.0621697671150545
Ni 4.277603751989878 2.648877489535771 9.99717164900002 2.5320108232701233 1.757033022160387 -0.1497551891806776
Ni 5.751341138598319 9.202271111313387 6.352670261311043 -1.0344447903959604 0.1673109386762538 0.9328003406795806
Ni 6.708619788449185 2.4864566650228763 4.788059980015456 2.2944023246198872 1.5086701132071243 -0.5007215693294796
Ni 2.7866105765218987 7.740151483541071 13.070351711819745 0.44412079011629957 -0.11859701841031833 0.1409519890667508
Ni 0.2818920095376614 8.496378362422318 13.298124328112454 -0.18919719722638384 -0.405745532772211 0.13466178518266486
Ni 1.0449148976727187 5.784447954628063 1.2565488903142312 1.4619130595572436 -0.9016933348621309 -1.0137150140477769
Ni 5.664549646116675 6.0058972449921555 13.625849535254595 0.04770373383386623 0.09724426376615511 0.5140460543525276
Ni 4.76655573620898 1.8470528055493396 0.3497790165014048 1.4071323642719378 -0.5027509410546824 -0.7553489711352153
Ni 4.227525896091676 0.4052073059420285 10.837468769171474 2.3173563623128994 0.17538394549237538 1.355282212369866
Ni 4.300687403533553 0.9898064762654099 2.5556772464281847 -2.168694663306717 -0.46456234580010314 -4.053532338518619
Ni 4.546947822653881 3.720027260920133 4.15221073711392 0.0632941320729555 0.7853930829057894 0.12759125148912864
Ni 3.3829888634430185 6.03828269691116 8.461136878122765 -1.7045100125610064 -0.13063826584556856 -0.6986417482511581
Ni 8.636864022988899 1.06286357574389 3.788922279312305 0.9313682362187444 -0.0735093820430605 -0.11598323493655509
Ni 8.584100034941494 7.7580527034470625 5.4915209725226894 1.4700935384855067 0.39346877228738686 1.8718276361054795
P 7.15324584638993 4.287465558714335 2.8346553246237787 0.183095198093704 -1.2670347527856824 1.0811697052563252
P 6.403587177569633 7.542383817601925 5.254704728273231 -0.2479304494015343 -1.0523116433740523 0.09223575480797018
P 2.5889663018122206 4.687205684027599 6.264831841705522 0.6076424369534502 0.7007968469209479 -0.3091427592447966
P 6.490255278821809 9.22413034219541 10.318603903439259 -1.7630280634015572 -1.5756231821889057 2.1459190601730977
P 0.590324523370727 7.4037775003764805 10.299349176662327 1.3770275744667573 2.3980530061330185 0.9138358837619359
P 3.5733815305131538 8.595176770694566 7.886203986883298 0.8980770782657823 -0.7108403471998791 -0.6495056528461395
P 2.6726445386580413 4.244439986161918 9.892287205625054 0.29608644028147074 1.3936736676638708 0.5965900357940306
P 0.43811100102480083 0.7789954082081229 8.784458916699483 0.004252090408134612 -0.2787224950817265 -0.3826143460713862
