# total energy = -340893.3020709683 ev
CRYSTAL
PRIMVEC
9.04545169448365 0.00000000000000 0.00000000000000
0.00000000000000 9.04545169448365 0.00000000000000
0.00000000000000 0.00000000000000 13.23893288314700
PRIMCOORD
 96 1
Ni 6.516370362287152 1.908689756312195 11.401964323214749 -0.6643447747415011 0.2653033934623431 0.5708939165795072
Ni 4.4517551138474865 0.18693058606907187 6.227911820031912 1.9625994047734137 0.7853156927006346 -0.7370558292529823
Ni 3.1452120152353475 1.5483822886295449 4.820441383210011 -1.2238327634769115 0.6832680940085651 -0.18542024668245485
Ni 3.283399377065685 4.238580959481081 4.845661006402992 0.5753028442804802 0.08828936856571247 -0.22830136231669715
Ni 5.016281738959182 4.613840558413686 2.6245784432938883 0.4762045580247218 -0.30154000719687424 -0.17458510374016384
Ni 7.259598926282146 6.0685210154532285 2.651241720538589 0.8475297043355339 -1.5675532606965776 0.0961399749583828
Ni 5.304162276866646 4.55355262448692 11.578214040209442 -1.612963827620893 -0.16027382932381432 -0.13666750275878398
Ni 5.505296935350602 8.000403309288037 12.497631716674405 0.1935747574687892 -1.6452041757118376 -1.038510732935218
Ni 1.8085475632884553 6.458325700320452 0.5448165863980542 1.4592802499200868 0.7934740601417108 -0.04974184730981756
Ni 2.550355991405505 1.4316055103858019 0.2882622559587334 1.3321034602605575 1.3083312975416241 0.9721153362291194
Ni 0.4608349969382396 9.218219574608705 4.9640569204566205 1.2545332778845621 -0.6781847659483868 0.6375867899213664
Ni 8.77796840699436 2.313726981424381 1.3725197169569907 0.2443455602637534 -0.5160476581635887 -0.22209883305041106
Ni 7.146530783133674 0.5382468750085553 4.662235532771522 -1.889671606265436 0.04472125416677459 0.09646779061144677
Ni 0.8976724111746472 7.423194961240809 2.685967208662348 0.8650941955818584 0.47367819205844225 -0.5130780340123035
Ni 7.568473957009419 3.694533236456437 3.735218772541838 1.1594338283755516 0.564803487411053 -0.1320112349336952
Ni 7.509162931839455 4.161242349567526 12.38130087918724 2.2713012198260496 -1.5804972224517555 1.1012479640634387
Ni 7.78163002047292 8.885545961111545 7.106632201324586 0.5201056302830462 0.09734170857596784 -1.169822113588411
Ni 6.85990756297802 0.3882678626655496 0.2498534600037697 1.9124703493275064 1.6303236590555792 0.30066686056330155
Ni 1.8154311518433344 6.38818726976259 9.123729884197246 0.23775170909631957 1.0675351451920259 0.23045903208964824
Ni 0.19086264381520315 4.84637197888711 1.4644115537114726 -1.053047493098812 -0.5661975395451023 -0.43194893064045614
Ni 6.204845014284478 1.7411227681661579 6.734962742073232 0.3779737619755813 0.8323455403959278 0.5045067474035247
Ni 3.603201313146826 4.482663421458553 0.5888254213468754 -0.6607231188285136 0.2731419156701554 -0.8506785343771607
Ni 6.002000765476118 5.419148055722918 4.741722437404899 -0.42674450362138117 0.3354772833742674 0.4039455034489946
Ni 5.24040088958236 3.1449858789490506 9.258409419954544 0.07074364637246526 -1.0524489402828647 0.14569695995090393
P 0.38313095078602816 5.6788520123577815 12.426062295696857 -1.5400224022661606 -1.419065111153782 -0.06318665996081377
P 3.9934220887808363 6.249249135461747 12.435872087796417 0.08757460188687498 -0.8624277044932889 2.023857994473579
P 2.5464121745724864 8.56909988751905 1.4612601184256384 0.004867869615262584 -0.584901800822825 0.8581974684620253
P 6.270162219218489 7.664138651564479 5.862397790493561 0.35452607247560236 0.044997390646296695 -0.07425885861457533
P 4.649850500643611 1.368811986406866 12.497459853096817 0.09858895071950761 -0.9761447691034865 0.3192793334581663
P 4.067938517841406 6.164113346396673 8.12898259258619 -1.4725047190301608 0.11511934427436304 -0.9744272721917476
P 4.966016165241098 0.9721056220818596 3.6959000041708157 -0.07533666505978638 -1.3074609791215288 -0.5071644967413459
P 0.16364849857708352 5.684252146874553 3.684672789828745 0.28735985904175027 -1.8948837465939947 -0.10265309348655223
Ni 1.6593518870411823 1.0152071982500575 2.9478203645621788 -0.4172777017815265 -0.15901758831921 -1.52563682296845
Ni 1.7450123122904655 6.6270595517037805 4.8954923984513865 0.05506454507431162 0.26686019642650166 -0.6289378559971168
Ni 5.975289547338723 5.643873251593371 8.983860068396858 0.15236434466875048 0.3442424311614071 1.1655252859852703
Ni 8.521520812882171 2.459747704212045 10.286835640956378 0.9754503141396232 0.1179059058805647 -0.16754799438772433
Ni 2.225081557195978 5.36910861829113 6.83380419917819 0.5413737956332031 -0.4128412632767277 0.9449948258632435
Ni 0.5829929142507045 0.10396480080730314 9.064988722468751 0.12082179397577901 -0.7868069325341805 1.289695941828624
Ni 1.4575026378925282 0.9042204134806616 11.435948988864599 -0.07087040175831666 1.3266974587536378 -0.8627092402894497
Ni 4.166977165788016 6.969972616244469 1.6087950497863468 -0.26395459274393246 -0.4187887391094142 -0.038796146931591245
Ni 5.592413678283637 7.843835590107484 7.996937092291677 -0.08371640448304937 0.31944696938428213 0.18494510681824924
Ni 5.3734504349880305 2.860235067243936 4.464988609321583 -0.18507263353504902 0.7999573538732094 1.2389292527987181
Ni 0.7797712833154359 7.512717794260043 7.05338524680796 -0.05937628507578806 0.2257202318530822 -0.3336317455250964
Ni 4.8293032119974155 4.4669605177380936 6.926635858338522 0.19480991542747095 -0.2696156476844518 -0.0951282458644168
Ni 8.063911423931671 7.35417816666298 8.964584211352907 -0.43019929493920106 -0.36512981613337764 0.6047031518194682
Ni 4.620226647138711 0.4154304488303936 10.51428080407841 0.20858948571006655 -0.6754771372092367 -0.6614327433010286
Ni 8.170765341932706 7.289023779855105 4.6543325218380165 -0.43211553812530745 -0.2802898395688463 0.7923381467650548
Ni 7.059540676520964 5.843687274165353 6.881147187532174 0.7488983304138651 0.3005470471559856 0.4996165091907589
Ni 2.2907967619938705 5.146961376084462 2.6161716007145137 0.7614514844885274 0.638929677102506 0.6114594967066953
Ni 2.2605487723387907 5.181406455213212 11.451597619876347 0.09882189266592013 -0.014604637287052266 0.1730450129465536
Ni 1.1463391079479306 3.3169218201463444 3.742037233846264 -0.8936082438611515 0.22900327347972818 0.3205083207692609
Ni 3.5750518682285826 2.630182100468327 2.6860468086351243 0.5956703521932386 0.09691207723771696 -0.3566500607971406
Ni 1.1630460567795489 3.6250189420487557 8.309072103722208 -0.7916231229759011 -0.2741022227008957 -0.6803915437917185
Ni 3.434015189190903 2.4125937657934053 6.9272844172076224 0.8962958179956435 1.1679166690355822 1.0048670767388435
Ni 3.909471253855958 7.037786365779198 5.917749621563038 0.7021191652767973 -1.5881819926905227 0.24355314626944508
Ni 1.0856441287058303 7.470855444940753 11.465405501517639 0.24999247413688558 -0.5500186157923946 -0.17386339508279092
P 9.101533250879482 5.6843606922919765 8.0833609536435 -0.16049005909967845 -0.701690819490127 -1.5300071841220038
P 8.54077857902322 1.7255103189602168 8.143121537750622 -0.4970528622286407 -0.43274854372361604 -0.44377883339584867
P 1.6022479520254775 3.2694874727326972 10.400134443116873 0.7119634050607286 -0.49545080784884354 -0.21794367323145694
P 4.014742217852913 6.141508763218431 3.8273096092282612 -0.7889741153888283 0.040849172805878034 -0.06802290500719253
P 6.96077339211791 4.215677876404927 10.262966503665163 -0.36196298836962176 -0.8818757859155715 0.6570215016072105
P 6.312874840974256 7.781440065992431 10.252507248151355 -0.05663574621617343 0.560166502859674 0.1716059665071819
P 2.3727847339536914 8.769691818915891 6.054243674881583 -0.4925750289629453 -1.0800330205487205 -1.638628836487165
P 7.067871537308143 3.7610896682393538 1.3107890335236503 0.061546810364545616 1.0082496200578313 1.0579310464433587
Ni 5.245285433366374 2.758265693026917 0.8112132725621632 -0.7639889061984004 0.18709197795792296 -1.5200762981615368
Ni 1.3433580860212817 1.254260389220285 7.18280937527172 0.21501467251012005 0.7239989960690241 -0.8661051533448761
Ni 6.816670305038044 0.779574092473785 9.13343384451482 -0.5029026361411983 -0.03602166951024764 0.9018308888812597
Ni 2.800055678734593 1.5672963276154215 9.332322517403275 -0.47251065411290244 1.5937818553758036 0.221658917299515
Ni 6.548933987513911 1.8842941737464804 2.470424955105841 0.9231340212344101 -1.0100357654239767 0.4448846648655177
Ni 3.926259611750643 6.7063429336794895 10.36497205968799 0.7811998707600482 1.3731308105155127 -0.48073355624332686
Ni 8.229180867408932 7.117576293036212 0.28642331567856666 0.024827343456324983 0.31105591710710945 0.7027501139925768
Ni 7.482849713565943 3.5909447264295316 8.256063044578768 0.3683501228428882 0.5772149737015284 -1.2186638176814624
Ni 3.215187627667074 8.426498345380194 12.459185834368489 -0.4947877203435479 -0.5037449295368356 -0.27018720391720563
Ni 9.044139861417317 4.966730755905795 10.184697116797206 0.04970328076239827 0.0953871559527583 0.6936934031069473
Ni 8.585164609297584 2.359270829484586 5.842896701708458 -0.06744312124432257 -0.24293710995200096 0.15532394151770668
Ni 3.4023651545607825 2.9139107761593794 11.513330112399977 0.8788226009115445 -0.22126245319204474 0.15493724760224928
Ni 1.0873537190302351 3.185247183361359 12.57850800265079 -0.7978901869315356 0.7878633988231527 0.31489920211259964
Ni 3.1728096876150267 8.616968416602386 8.12657288431941 -0.26501954367333713 -1.5330138321588114 0.15222730487025396
Ni 5.720189725492864 7.684563280942819 3.6842621263328295 -0.345585832563179 0.7533393969043543 -0.008706526635062425
Ni 3.3607018051734334 8.451192427843822 3.7626635767919807 -0.3576417352864486 -1.031360752153998 -0.48063713987477874
Ni 3.310372913295185 4.457960293543475 9.307379685024722 0.13558763943104393 -0.4598438572785113 -0.135333871549025
Ni 7.185218178993354 6.255689496895484 11.55067697235449 0.19522463436738635 0.9044482718994487 -1.5719061383486348
Ni 0.7676648510922426 8.97574720298967 0.30713830404851206 -1.3178531209891304 -0.6118320495547656 0.43458971069741287
Ni 4.721318612564898 0.3137577654209962 1.3227245067144031 -0.5695826539672514 0.23752056692211995 0.8552579262177271
Ni 6.031470846306337 5.574946911530062 0.4958010940706185 -0.45690200104136797 0.21135393582908116 -0.06497434798885585
Ni 8.269433126369789 8.74656259955344 11.28694417164296 -1.7077125786587042 0.14388896020788766 -0.44975099181888345
Ni 9.02536150420322 4.776812457222168 5.857420078559593 -0.15456649452639187 0.5062370998310701 -0.24367141701486422
Ni 8.110748771549495 8.71336579272505 2.2648372208721264 -0.43639873888169356 0.9700350566613231 0.7156310837203029
P 8.678757895470165 1.6051244055871745 3.582667233805918 -0.6155881741630882 0.08810476335873213 -0.5636729733510357
P 1.8393563709335512 3.111626253994525 1.5926832916602618 -0.06455448684261786 0.8115350314084798 -0.6987265946554806
P 4.756921509479489 1.1710060540572014 8.278343800595033 0.14511743329835008 0.01159644658834777 0.20241215325476108
P 8.57531411266649 1.5447279262429863 12.361641495001727 -0.8853778855315592 0.03832846326655334 1.0650712570325656
P 6.376183955685949 7.532599696551271 1.4870233732508769 -0.8279980620605095 1.8214424987847084 -1.1544188916594635
P 1.6241650808933774 3.278523878733123 5.960141129792262 0.7267235940890387 -0.1524939282680793 0.39148568041908705
P 6.826529847120591 3.678197151134346 5.978595659844384 -0.5102012266851407 1.6918000211935056 -0.43473549224665775
P 2.4572421141598744 8.51043108940217 10.140916227224974 0.10699877204975765 -0.38397651652623543 0.5485633714031068
