# total energy = -381177.63064288354 ev
CRYSTAL
PRIMVEC
9.16137002375015 0.00000000000000 0.00000000000000

0.00000000000000 9.16137002375015 0.00000000000000

0.00000000000000 0.00000000000000 13.40859107523146

PRIMCOORD
 96 1
Ni 1.044386999942887 0.9922221600962672 0.7932252974758983 0.687798377778751 -0.004511771827424488 -1.0461654212669982
Ni 6.477344992461507 8.8720995835024 8.326078276724306 -0.5176674531551988 -0.10229853836061092 -0.0866045246641218
Ni 0.2835773773579781 6.601948783601984 3.1058051494981362 -0.7302164377336456 -0.326758672554347 1.3814370163883627
Ni 2.3508074999372344 6.972352127444394 7.289379498347854 0.6047764282595649 -0.016495940772494173 0.9329913736444642
Ni 0.744272433893807 4.5107653434493225 12.294966917109374 -1.4780302768340803 -0.7548848870146032 -0.46041824172474255
Ni 3.0440483554331443 5.95901300987597 9.626617177283892 -1.1587699695393077 -0.44875288957167236 0.06209496955853176
Ni 4.523426356562781 2.0125605642194535 5.107775170187084 -0.31699902206442176 0.7522554198115561 -1.682552534453309
Ni 2.8607659904925975 0.6632080528992841 12.565230991821567 0.6733076403617436 -0.7836691582361472 0.035182204328087795
Ni 3.7241426452142847 5.547841570263021 1.5662039676140675 -0.7563352463078845 0.8089243332585101 -0.7470098551419005
Ni 7.98537975843839 6.843039392208174 12.259058928036874 0.5725913588865881 -0.0808136290139576 -0.0021998358647962114
Ni 3.72002002878805 4.908112275979633 6.706977475813716 0.999783491568349 0.19419979264729778 -0.9400302827691166
Ni 1.880343674745197 4.3763039183652275 7.732143921840515 0.23420435806469342 0.3414895510066183 2.276446768582731
Ni 6.4431089533840895 2.448696736635712 3.4816750827217327 1.376282468770617 1.6545534781372213 0.8895659554709777
Ni 1.6033130122720791 5.492131280289839 5.497870878492141 -0.5730456728151874 0.5759417634160597 -0.29953840338581317
Ni 2.7423552853613087 2.530617705709908 9.691032600875314 0.2768185931907942 -1.7355735667350303 -1.295668614472291
Ni 0.2020311083100774 3.4294946685463916 1.0594446274054623 0.7762965199211598 -0.4323117132965135 1.278101295012489
Ni 8.898411037671613 4.305678918298914 7.496005949767707 -1.5904990708594735 -0.2319965517800972 -0.5002901382190158
Ni 4.913847293497017 0.6600098186895097 10.844251177648887 -0.5043141717767443 1.3085698959149914 -0.32396851140371946
Ni 1.4803399449624242 2.367646097695943 11.708194005026444 0.18102494582823664 -0.7139575526726221 -0.1834086155690648
Ni 0.5744352953246862 3.020091373311804 5.327608652362627 1.1451981443921437 0.5977069230072931 -0.13504487955369646
Ni 8.061428289447662 7.816728101126058 9.788834804560347 -0.3325709083607499 1.1628148290326425 1.2939259207495717
Ni 1.370421829669178 6.569590825340962 11.483010282866635 -0.3559468640825289 1.410841951913041 -0.29223775595934187
Ni 3.8883876836354645 2.831119797703054 12.018052604033176 -0.09391237117944472 0.09828376077426298 -0.48351214742972853
Ni 5.966048941910077 5.329352061042432 7.053454986192229 0.473963584509345 -0.5105629808999336 -1.4526946262827691
P 7.857679424293321 5.140527067351058 0.4294117269565785 0.14251444845786423 0.14644026587483167 0.38781363088413856
Ni 6.7139923366972 6.733991607049355 3.8636858821464513 -0.86510139467071 -0.8630684234010813 -0.28065030823205855
P 6.77619803788416 6.199764647798226 10.319734354287014 1.9875326776799838 -0.8362070802338631 1.8162426997513235
Ni 8.015126726296131 4.797168087264747 3.411614423037321 -0.390243837592186 -2.0949839638861274 -0.3831522208527272
P 4.121297188978038 2.1413694241146892 0.8506047890332127 1.057572120442043 -0.26880909262275643 -0.6953160263120347
P 1.7678878600073578 7.742905782986953 -0.07480075243759754 0.3366018838970138 0.3231125911613274 0.3923680830240404
P 2.354114754448058 0.41017926325970305 10.325848652515612 -0.3070349688731744 -0.09483925386908829 -0.2458350003250863
Ni 2.9900054347701293 2.5396599777381157 6.898827553824963 -0.20781095567282923 -0.42013882537940545 -0.10957938829274033
Ni 8.02231840161745 0.7602095528606457 4.324445068271133 -0.897594225092093 -0.9976785294102044 0.9769821774031174
Ni 1.2327814092519642 4.3269974259074635 3.2176599783747286 -0.8644899863389562 0.9845419920282464 -0.4542596783225144
Ni 5.239149213636422 6.391997671068618 9.01173993095483 -0.6263042750290116 0.5796600928079114 -0.6500982921248158
Ni 4.434515262303658 3.647443656946652 2.5154116640559883 0.2898900816627717 -1.5944935367308475 0.36083144586833993
Ni 1.0287393802628682 9.458198218765396 3.1212383931239907 -0.16405952161849166 0.27438195872484356 0.5894156295327785
Ni 1.9956303527623838 0.3604944062277093 8.039241283978653 0.04226327954458528 1.2240207111180017 -0.28940722848908224
Ni 1.6860035364125057 0.7199425840201387 5.659497597414171 -0.3215367620337753 1.9956100553714795 -0.1279668896609925
Ni 7.254155863602107 4.379748593423592 11.903449364205759 -0.31037920275505904 0.11216900339678745 0.03405683247439296
Ni 6.30319651324753 1.1741486423010747 6.22619886432324 1.4737221363770299 -0.061183513487855924 0.6619811596053309
Ni 7.14426523241837 2.9212493541503743 0.9771077321407082 -1.0876190604260947 1.7992556782750242 1.5393243477578715
Ni 4.077707391297985 0.23708800612480777 6.524432601144974 -0.5407929834290687 -0.772525997135134 0.5112147555513196
Ni 8.166271005851721 1.0964968715704901 1.8028256600142192 -0.6158511980164877 -1.0636872322008457 0.7360381866217452
Ni 5.725636274671757 2.9222021366133264 10.438091923473255 1.0602514670464191 -0.47891861452177514 0.0848381767923184
Ni 2.611530924102136 7.92660957093996 5.128035539579568 0.7989515383165144 -0.8617134520350838 -1.7479032919449768
Ni 4.395881765704923 3.953937284812592 8.92579070756371 0.11977946875419371 1.2460874611100539 -0.7713828846696263
Ni 1.1125750756328043 7.6405732819179795 9.295438238394645 0.9132435015935755 0.589532871836933 -0.22306659628031905
Ni 6.178895047311643 5.132300157238261 1.8246810238951632 0.86929203571329 1.5251971643278701 1.262247101589052
Ni 6.4934690033730025 7.644970739439295 1.2564589695933042 -0.7750893869869361 -0.6043298276404496 0.11458018394144137
Ni 3.640765018336152 7.878191731356296 11.067115240966203 -1.7065334707489384 -1.0561551854898585 0.7753580672672904
Ni 7.441157744696101 3.6569256747269914 5.606614506172402 -0.791086790856457 -2.030696100441335 0.5017158149219488
Ni 3.934222016925355 8.384934581099197 8.860396849673796 -0.20569699465361993 0.20097953457329257 -0.4888788110582806
Ni 6.96533451814996 7.723373742496439 5.970134912856968 -0.8482151604383326 1.0151520036046193 1.051963258895698
Ni 2.9710505605792865 5.3773942844628175 12.596714039263244 0.10909113580241213 -0.5017649229923294 -0.6014249952888286
Ni 8.58531206215386 0.3106538059085022 6.954901550180636 0.5750261935803258 -0.02253263388487732 0.28661423912497735
P 0.6086117854981696 2.368186618516271 7.3517024650687155 0.4818602136486024 -2.21111015215845 1.1201723117717677
Ni 4.662596725742619 1.6054750955533932 8.475195145135173 0.5355618169371164 -0.7142378029172023 0.48118787017192616
P 7.856451800735286 8.121591005161177 2.89538405869218 0.766037561197313 1.8639993983103125 0.6048998412113067
Ni 5.388873480867421 8.7886028588164 4.450096920120856 0.11313830928859224 1.0659909406333576 0.4753944034186007
P 4.725370431859415 7.377596160773402 7.040622655462836 0.7610776460888763 -0.2706392038529597 -0.09575893746988025
P -0.38954969066282596 2.5405761147217234 3.5068963338804515 -0.12883875074298454 1.1699005322348304 -1.8626817079401532
P 0.2470748153831148 7.060741023622859 6.8660032818392835 1.4640023379861045 0.8679679175852278 -0.6918902884599374
Ni 7.123304018233427 4.4968950295175025 9.000677576877768 -2.2746061158295663 -0.8986149530471234 0.430565162919052
Ni 4.444748512410555 7.381691293090129 2.8567267425318716 0.06663836595484007 0.4348414216969027 -0.8657421135785026
Ni 8.821217335432832 7.695275821209192 1.0457978508976427 0.7216245822995766 2.066268598229306 -1.2606530176290547
Ni 5.268639663138752 9.222384559184787 13.491857743891526 -0.06388342891752223 -0.07717191849631226 -0.9032838192777024
Ni 2.069067893368373 7.587483143717916 2.2359495740283757 0.8998801929127922 -0.7739527022793316 -1.279078057103462
Ni 0.7748448411737779 5.731279678490781 0.8784058819377705 1.346055037344643 -0.4056432028663917 0.13291703457741622
Ni -0.07636734667956664 5.542390555210555 9.756077410574473 1.1230966845074142 0.03205111489827383 0.8361155489613213
Ni 0.6468806595774284 8.986964838507129 11.723358820516102 -0.5706725445973204 -0.0831294216313278 0.3248948798727308
Ni 4.59247560101729 6.823763870073069 13.04547274703965 0.5164916876795428 0.4717076985956328 1.7402149221617838
Ni 3.3077309020550985 0.23017850099443887 1.4850415599622984 -0.7122950773685346 -0.1501205429398963 0.3365149806101624
Ni 5.251654483462667 4.171428204721049 0.06851422045608184 -1.208507188863435 0.06497460509917197 -0.8160866553349042
Ni 7.3759471142029085 0.935320892044396 10.65775133962191 -1.1843557884282119 -0.046268286938920315 0.8835724568917042
Ni 6.11513191325255 2.060923435584101 12.678452697077702 -0.4366221677464094 -0.6247204754816597 -1.4846953475590818
Ni 7.506597409435196 2.10720667599596 8.334444439658611 -0.4205196057575919 0.2953068818029688 -0.24931370290230612
Ni 2.618979117778866 3.609735458701361 0.5794227450634463 -0.9980091732767458 -0.4420549087262064 0.5061951908495412
Ni 5.3547748623375435 0.9454716898227687 2.367608536079615 -0.29495001268418236 -0.7587842220690093 -0.5853913388647337
Ni 3.097990501027963 3.8266950191593248 4.561991142887744 0.23416039220063542 -0.01939640224874079 0.6507079006843567
Ni 8.593639747334855 2.254347436933185 12.63876381067385 -0.9888359914179099 -1.2215629936061285 -0.4755543260352327
Ni 8.188661393731092 5.7377750897045585 5.566924703631567 0.8178044093569593 0.8019435310653027 -0.22678389723090622
Ni 0.11295510939390542 0.9271397887807796 9.546648496121763 1.4863562802012724 0.18578071534566712 -1.0023103717552608
Ni 8.581226091206972 3.3188069981869153 10.258805748055204 1.2297128764067724 -1.7246610335875845 0.36604075798342117
Ni 7.84474357008478 6.417301374555863 7.9479821306305425 -1.1126407792814128 1.0514786059497954 0.21045739215674078
Ni 4.996015619556788 5.199663709642932 11.20310569867594 -0.12144014428606827 0.05691933889486327 -0.24150371993958408
Ni 5.882598024073257 7.82162943398836 11.4794968975345 1.5008544738174474 0.34165615849146963 -0.4007825323399807
Ni 0.26804793934884474 8.132795360470698 4.9883173204835325 -0.9731813155997885 -1.1491967240285759 0.24974461979213763
P 2.8684890252644104 5.83663543160566 3.5654109191604557 -0.18808776621228898 0.518013780751024 0.35070438473666693
Ni 2.201825303662958 2.3689470122126655 2.793920971620649 0.6860682824615216 -1.3629050190224463 -0.6232382345091783
P 2.056241975597866 4.23629070316047 10.562684720969928 -0.7348187123923473 1.6517592032215358 0.7949964103235083
Ni 5.540265117408585 4.4901705840578225 4.690311701770717 -0.3161533862346749 -0.7595624949959306 -0.8443243100243587
P 3.2967280968819703 0.45708272840946407 3.7469233074486725 0.1396103874371918 -0.058132642476674073 0.41031978240645467
P 5.473542860892439 3.094087757477794 7.181466806911726 0.5790677106395511 0.46112786619725743 -1.2012440795431183
P 7.636661376997974 9.200488885276563 12.717967517454666 -0.5157866911927181 -0.1828720263393044 0.3058406914547571
Ni 4.556984454272328 6.499616282533009 5.041898508106809 -0.0689245908858555 0.37764028989556253 0.6657941055935179
