# total energy = -381164.40373327816 ev
CRYSTAL
PRIMVEC
9.24284869128330 0.00000000000000 0.00000000000000

0.00000000000000 9.24284869128330 0.00000000000000

0.00000000000000 0.00000000000000 13.52784334115588

PRIMCOORD
 96 1
Ni 2.1391834208519596 6.202007027644894 6.567375917941106 0.3253329958514139 0.3727554509994354 -0.1868505513710782
Ni 3.387309999440055 5.295634784855839 12.911961283197058 0.5199143402078464 1.6779209492185683 0.25393731771724654
Ni 3.95251020590689 5.439915655222925 10.600756429759388 -0.0220369251953814 1.4040210723364657 -0.905342244468628
Ni 7.321926049995844 8.841376456234537 12.302477663660667 -0.0881322741625579 0.5294631602385462 0.5778783183171402
Ni 6.704697847417777 8.653654196327073 5.615191494884628 -0.6192679370075206 -1.2818067688885342 -3.3426796500235656
Ni 6.441655612326369 7.595662261193257 2.3165888128860255 -2.05896229437588 2.580859212231394 -1.4195883306471035
Ni 2.554982218695247 3.1084532499861806 10.993212412861352 1.6492855448700627 -0.23836363164870564 0.22326637099595095
Ni 7.411045598495488 6.891172322732061 0.2995967779623116 0.003479473908168201 -0.16208440016999184 -0.6031358073323484
Ni 8.491257342236764 2.484764296070087 7.5456418118497215 -0.905798101059124 0.8396747270674894 -1.840949201359068
Ni 0.30340021025930425 0.9041909304631992 3.3183528013964496 0.7277630910971467 -2.8903992069146094 0.08095452546719606
Ni 3.2023698370329425 5.640152732457553 4.072909403445374 0.04509509256642556 0.29708839918342383 1.0935475100953875
Ni 4.880982100268509 2.894185528214894 8.44871990331278 -0.5627273216083147 -0.5155673760930606 2.9239238210346157
Ni 0.9675599020991211 2.3924005076281722 1.9134730522187604 0.32034479860820314 1.813060702478916 -0.2867258250021772
Ni 7.259971234232195 3.068690514283477 11.19437192641005 -0.4686367729797929 0.6889895698733747 -0.36560521310789934
Ni 6.377094313190296 1.4220954794240526 7.0532013114386 -0.9298420293822051 1.5329634385368502 -0.7550314398947965
Ni 8.686540252494023 7.890721724660809 6.815057462548015 2.5542117848471944 -1.2170733332658912 0.9925805460620066
Ni 8.949674916073814 1.9722668136796848 -0.10811360286251143 -0.5605534538854475 -0.6533044577669395 -0.19968035614589483
Ni 8.978189104740212 1.2449193100411784 10.722710274472487 0.028284962987622255 -0.943016361980634 4.01959609078249
Ni 0.5827967420853399 8.519457274042656 12.118337007678077 -0.8798844665171556 0.22511370861733487 2.851233849569057
Ni 5.62979149890973 4.95689361777811 4.84146614862979 0.49891871179278596 -0.31136162127298633 -0.806672818220172
Ni 6.071507244895831 3.840246563915947 7.010575141165767 2.4631834200837646 1.0629770935076983 -1.3689653662839132
Ni 0.4156971265060658 3.3853690011839954 11.506026000682025 -1.3705800190692008 0.8328582183662883 3.0894681547287504
Ni 2.3520647152974887 0.4715988005654618 8.459758637680455 0.07908661902052185 1.5289394049791216 -0.3858433945316452
Ni 3.3554221709476497 -0.07813072551569593 10.978277817708301 -0.6315871206945057 2.135919011537592 0.17334043269978533
P 0.03559790801613033 4.393902452183648 1.8749590253941217 -0.1016087113824379 0.28138538662587026 -0.5337247637283776
Ni 0.5347653538118231 6.008923915411172 0.19625156081551956 0.11301335367495376 0.52896282356336 1.7027472642336288
P 2.7699708826759273 2.9964114363673584 8.866365422353976 -0.3172903280525955 -0.5836789841593174 -1.106636739179178
Ni 2.2846473758703576 3.576159886905801 0.3263871753203512 -0.7186616430165107 -1.5846840068395933 -1.5881351986129875
P 6.592711490891986 1.6480461621270495 12.621315280049833 -0.7029753426295055 -0.1749982800181825 0.5074856275261905
P 8.295225761223598 8.690098749296798 1.313743411061511 0.3392408641817577 0.8813098861097726 -0.07910358830138634
P 4.132200430173803 7.636450953117021 1.1752291540846893 -0.32662651785185687 0.18557862663719008 1.1075317401896216
Ni 1.8277826006381548 7.63081281532561 4.300826040096294 -0.5633389870503847 0.5801401177681235 2.2912010440737705
Ni 2.6798900778970918 1.5373445615897923 4.888205386635702 0.29231128950975466 -0.2105005866898504 -1.4549885645232685
Ni 4.98061076789739 0.6166560702349714 2.8437694849410753 -0.6941276624308884 0.3304708312986115 -2.055075557726964
Ni 4.904421964922637 0.6193337235434496 5.0001483017719535 -0.18781317239466366 0.18778643292178623 0.8731260647473995
Ni 0.04413737605790807 0.6583154385193103 8.600042900209827 0.52708334715246 -1.3884479004885573 -2.907988123640966
Ni 8.297351616456426 1.0847777110674353 5.515612738639476 -0.2942478444108352 1.4660553638603913 0.6093090260225958
Ni 2.8832604808879303 7.462241738211266 8.927822048565236 2.1438938022129532 0.23967489426096142 -1.5604981536220093
Ni 3.8272326327515103 7.948655901179765 3.4342867786611126 1.0293290664359498 0.020461867398777665 -0.8937051744503318
Ni 1.2947197795823608 0.23999796436756424 0.9594234222666966 -0.6718012310195463 0.4800663549729733 -0.01562150858734084
Ni 7.293874003771366 1.0355410553053939 9.388729645879346 -3.175704754530492 0.33217855801833757 -0.3664577909161818
Ni 6.9461025733785435 8.686355395517255 7.654973622189131 -0.941413022049256 -1.1990385872513674 4.628294222693965
Ni 4.739067399204048 7.034371779785056 5.580939345659366 -0.19420570618456875 -0.009949912123860283 -0.10324753253744152
Ni 0.01719447169403522 5.065820591338399 7.101657870758683 -0.11187101254039443 -0.2620689456854454 1.316404561468062
Ni 4.92839791480939 3.470246082066824 0.46091406730829637 -0.012076728658875975 -0.43705359885687306 1.4871003574561485
Ni 4.8455819892175205 7.583581857761497 12.268266182970295 0.2310457578310537 -1.4563923868493305 0.537728485571132
Ni 1.2040012182336772 0.5145808205185726 6.278055339317304 -0.5076375797230226 -0.5992992071950777 0.3542221680819384
Ni 8.923166425605347 8.296297931688851 4.724098605510294 -0.4169339452888626 0.9122196883147515 -1.753614483397141
Ni 0.11819015666611149 6.1519385154874 5.028759540351154 -0.05529363036598219 -1.7428410469307212 -0.15444848089128882
Ni 5.169636269491066 5.807097068176342 0.9313325560770973 0.49368471708735623 0.06513247083327492 1.172943175715896
Ni 2.2380172034807386 5.120066871170842 8.992241932114084 0.30736227030560614 -0.8885020329828376 -0.713971436629693
Ni 8.283394914710474 5.435460602082826 12.011290953856397 -0.4397260034827136 -0.8751369245298412 1.2355479950313109
Ni 5.5608860608196204 3.3516603314704296 2.9940498884891524 1.304832026139114 -1.1933351091086866 0.19100339719718717
Ni 4.686863788964887 0.2944300254616581 8.529603149212544 1.0287307707303186 -1.2814010488096834 0.7999092742440933
Ni 5.153683112396024 1.675682280153801 10.398312160222154 0.1173502904874108 0.1946415081704067 1.2243482696607495
Ni 5.203317210658116 6.772004272658848 8.093100369971289 0.3705833830487811 2.3328125489669693 1.000602645035535
P 6.678928784856379 6.813976049233925 4.140372032831814 0.022232843256271388 -0.25982437262564284 3.1256026956677783
Ni 0.21508941103301846 5.396954893822142 10.147627614027659 -0.2787744313655844 -0.4494334605784647 -0.39096117537418473
P 4.754050057171059 7.883281231345915 10.19655833149315 1.1444088157216292 -1.2259858052641726 -2.0575332752388373
Ni 8.031028170027392 3.0495485743391955 3.1309919368785657 -0.1754194267160011 -0.010668792567755818 -0.3865519905628956
P 5.785884730092264 2.5655005806733215 5.150185618395581 0.40127232749220565 0.9863312227181852 0.0656117244625386
P 1.490455589432699 5.192161092110194 12.060519291054485 -0.3381026368122564 -0.06079810512397917 -1.4280089506106308
P 7.8819410182643495 4.17725007541206 8.737945280593548 -0.11125420489200195 0.4204990369323017 0.38395569059062906
Ni 6.519877842045565 1.4807413553035633 1.421397644336755 1.318168852457336 1.8650365813255751 -1.7908247738988514
Ni 0.4556373249064662 2.834116253614273 9.439133673449676 1.611417566179696 1.756690036998671 -2.5400666036950645
Ni 4.182268942331299 5.029311338426805 7.391911052830277 -1.4138930800345393 0.30954693666175076 1.1583994735737664
Ni 5.808492738350937 4.82517377898238 9.474116932018052 1.428740686570333 -0.5665842334605597 -0.3513139932962078
Ni 1.0800268867645086 8.712882371683401 10.09398951364878 1.5945878962168667 -0.5830212959706604 -1.1629870929444486
Ni 7.32958837168286 5.447531762665748 2.5980363328692975 -1.2338924617057587 -3.0394419434092947 0.04788911037179494
Ni 4.195227416402705 1.5573645721737197 12.676590288957987 -0.863819442634493 0.3986251196773457 -0.31351774838404073
Ni 7.277190661618094 0.7204615812539147 3.3487636226444817 -0.07535337723033475 -1.1805317866964316 1.1349379001167164
Ni 8.136627718005865 8.025584132061587 10.296785935726756 2.26893889024146 2.1113138113944023 -1.7617286278638433
Ni 8.745666756513128 7.045028784495706 2.7066647624121063 1.9512027329006973 1.3282604323653835 -0.14825109383132531
Ni 1.7204176685315518 7.4443937971043574 2.125643571588619 0.9610480226713641 0.916219553502764 -1.4662453683840102
Ni 7.938257696236589 4.024475026962504 5.485486597135665 -0.18394803301230256 -0.846260350704807 -0.9103288990499419
Ni 7.512550564438559 6.459725381805398 8.679491655969876 0.553028349152996 -0.880005565476052 -0.15599551366343456
Ni 3.821779351936867 1.7833707119697468 6.933493478993228 -0.8706706612283713 -0.625863073726535 -0.7155128129748838
Ni 0.7494101838157157 6.910545333897302 8.621213645474132 -1.1687185961115871 1.204762634219338 -1.216791283249098
Ni 5.280069827412009 -0.04532046070922051 0.2941666042697643 0.3856824434737487 -0.21920017134637734 0.7643282918156902
Ni 0.6300045925273573 2.618110876261371 4.590862939505071 -0.09218896073043478 1.7871555525773801 0.8973011193317062
Ni 7.408078644018369 3.827648560949237 0.7078792911302302 0.33079144786282383 -0.08174076881391729 -0.2806361671646715
Ni 1.5966374368879892 2.9648193790377815 6.760431301628315 0.16767423555294347 -0.18470650844488187 1.4276219995848574
Ni 4.723493198911381 3.76317044745271 11.8073863142027 2.009699700695326 -1.061708768318236 -1.2268787493920872
Ni 3.4159628308390277 8.727735629766675 6.449588749484349 -0.6047242348653908 -0.6772601972515885 0.35720876151408804
Ni 2.700131916853141 8.10765138689755 13.210547817781336 0.06770537376677373 -0.03953353931824804 0.27527438863212594
Ni 3.441574764970174 2.4971959277577063 2.1766844314439115 0.17342913575884972 0.026411400113993223 -0.697795855311095
Ni 3.7676902005346773 3.791102336642289 5.671007210449827 -0.18833562055703695 -1.10929243163447 -1.4147690548815892
Ni 2.1893998185908687 5.248163513221927 1.899863881589132 -2.70249013237203 0.5394534386820388 -0.3942352181397662
P 1.72686917702074 4.400658974684503 5.14898127519194 -0.7531586483521159 1.1669676748587516 0.2384968147924602
Ni 6.729320796723217 6.723701144629484 11.01170550481718 -3.330393119346729 -1.4999952111409456 0.4345087209478323
P 2.7055020120282385 0.7109571597934101 2.7969359698770124 -1.4394935542114626 -2.2056884669222465 0.7745916214149111
Ni 2.418779598212904 7.089625530140882 11.076044051296247 -1.4759494830456514 -1.9536637928466807 1.5083541246286023
P 6.256225578930823 5.081570405758996 12.75990810124178 0.231954128577936 0.0032938402599233594 -1.2277596093351437
P 3.9601078276520374 4.537157366329674 2.405710209955437 2.1864504446282407 0.42292821519908447 0.03751548044695474
P 1.6164078905532806 1.5048836764694073 12.323405322000525 0.12412797553087654 -0.728793332133874 0.22134087183846396
Ni 6.952766667391014 6.25720532090769 6.362875114537334 0.3860192579878771 -0.1946692760845486 -0.37918912243992114
