# total energy = -340886.428779355 ev
CRYSTAL
PRIMVEC
9.10764442562888 0.00000000000000 0.00000000000000

0.00000000000000 9.10764442562888 0.00000000000000

0.00000000000000 0.00000000000000 13.32995823172052

PRIMCOORD
 96 1
Ni 6.683918212311874 2.0914521809024116 11.1142663484758 0.6238162184998353 -0.12087527292153379 2.15670766614817
Ni 4.760620473489795 0.8936539271893458 5.682600996885513 0.8123778390247494 -1.3222137119506714 0.9529063674008361
Ni 2.889673475775756 1.8815938342407093 4.690478859438045 -0.15072938016848877 -0.19594197214938514 -0.8699132142370567
Ni 3.7326861667467583 4.479768037242641 4.476586736987067 -0.553192385534686 1.4462699537033479 0.6847225670669046
Ni 3.872761740553589 3.2314924849138666 2.4995803072484555 -0.08098357893291859 -1.5952658961204977 -0.8106505719209974
Ni 5.370131372441323 5.15173005515343 2.487383349612428 -0.9260699639342825 -0.15737928138483864 -0.20425203467697728
Ni 5.637914338700648 3.1942513261819987 0.5124944472411825 -0.10148735531322522 -0.6302555463672759 -0.4866931162608715
Ni 5.656284457840335 8.02115723700379 12.29050134285564 0.6523318094410249 1.278980869403965 0.4505971418692627
Ni 2.1143761223375086 6.688043975311516 0.22477120391471314 -0.45944790739167324 -1.5877374489539364 0.054788151484473385
Ni 0.9702282706155934 0.378460884855903 13.197965191538046 -1.0520478481897042 -1.0649524720665144 2.0708623882475754
Ni 8.0060658699168 -0.20952864992751474 6.842907631640463 0.2793436736054931 1.2019778723853494 0.7419069866976965
Ni 8.913005118270776 2.443152984421564 1.0919446544562463 0.12704000697134893 -0.16476734631879364 0.6395696246793502
Ni 7.232225739613084 0.5826661165200828 4.441582415766705 0.330185953068341 0.984727111455859 1.516891729785968
Ni 0.6264310810723559 7.221979639448411 2.4016722171326688 0.9132360453944078 1.5831912243441508 -0.12733542672458067
Ni 7.8937777197565655 3.7380323541215703 3.980751993231415 -0.987354778886693 0.24792299320236658 -1.868325536489492
Ni 7.957203356687044 3.879947672135746 12.744347112754227 -0.7053600408115981 0.8207233827759671 -0.925183190453955
Ni 8.313512628369152 7.456146289523014 9.229862805878824 1.3666349183785238 -0.5126903116555815 -0.2386531378646664
Ni 7.0649820619918335 0.768188836835111 -0.004184962689482349 -0.4243263810981918 0.43242252784276497 -0.33777327849729566
Ni 1.9869966050902832 6.932830138979019 9.405405369251229 0.07845258498094876 -0.38868163531138866 -2.365414908383023
Ni 0.08320653021728355 5.305703894605855 1.2543503512708518 -0.5415337182498351 -1.654822158417576 -1.1056872307817154
Ni 6.672296857813987 2.2226478012331916 6.688239789670219 0.6997558072509432 -0.04936929446174723 0.6149577396679409
Ni 3.9438286912957667 4.666538504866612 -0.047733165300494 -0.8183921635396293 0.17373406859377818 0.7049424936582053
Ni 5.9247049592210175 5.658078663824727 4.863408439577344 0.3733771437438344 1.4871713199034 -0.6526531973361857
Ni 6.028495676978016 3.0406326848686174 9.205709332423964 -1.299553294238678 0.39485973909764255 -1.7650499789275926
P 0.3977927712643801 5.905688197315383 12.273812494907418 0.28801034814155557 0.09032645360039927 1.4288219334302297
P 4.184707675433806 6.556611556221376 12.29565991275188 -1.0706356384942206 -0.5100374474137668 0.7876978197795659
P 2.2888421621192796 8.350917724703654 1.504326050826204 -0.5899020822508937 1.4306479308953748 -0.263847634852423
P 6.63641273812615 7.986739448095077 5.665578809145268 -1.8314957692556522 -1.8181445447597269 -0.7421198740394509
P 4.841988170264192 1.319005520221092 12.387143470373301 0.41731035479167483 0.311107082060019 0.17817616352553187
P 3.988592764459653 6.2027795638679715 7.936977099579748 1.0437740382166862 1.3438888829312599 0.0782533244859491
P 4.69646622499205 1.325116749741533 3.5220946546954948 0.7997393243251323 0.6212484577726591 -0.9301744730209593
P 0.20248388683651453 5.406990010100376 3.416095333125222 0.9877067629094732 0.3361097747519437 1.8865536294617444
Ni 0.8213920534768522 9.012214690798592 4.255522344420818 -0.22046566832236228 0.35441500081903476 0.5505477488229873
Ni 1.8406914023833312 6.733864535247938 4.561751410791378 0.7477318209095897 0.5398288197435864 -1.439641906863869
Ni 6.1337618331587285 5.631283973438531 8.86231652230056 -0.5933635584369329 -0.00604260664965411 2.0268412454716187
Ni 9.021923439932408 2.6016168926572623 10.243566417948703 0.0915919505763842 0.30150066931850655 -0.5635557310468811
Ni 2.450940020546716 5.764446845000928 6.428225644246864 -0.19421856170037516 -0.5830351799277314 2.208312534808655
Ni 0.8021530650432015 9.544082919613368 9.319626840201499 -1.8785770390141712 -1.5936525288867907 -0.93314306873098
Ni 1.8286966344572195 1.4735258183489646 11.429972829807568 0.5411789060135777 0.8623204894914633 -0.5433987964830319
Ni 4.293125076642942 7.410653604791863 1.5276133872804747 0.4414779531768139 -0.7878340882471141 -0.7408525772912531
Ni 5.969933522259036 8.031430660102236 8.060785509382914 -1.6080080262775143 0.2599128185743911 -0.6938792938655082
Ni 5.551801559094434 3.098074599302927 4.582599720024226 0.41467780226483425 -0.48013423209643113 -0.048041576789259195
Ni 0.9818951633364353 8.063990489514422 7.140978980751024 -0.12058319560241168 -1.4784069434472087 0.2802206768938077
Ni 5.202523389036441 4.495897675812985 6.975566850456987 0.015199333448257692 0.6971651637056315 -0.5612291397962335
Ni 1.0726073034610146 7.776024982841837 11.334756959432829 1.094278217613825 -0.40917975526474054 0.7328531040255444
Ni 5.033367106051117 0.6461627930783701 10.068503827446232 -0.4250491181968292 0.038286811395340514 0.1346692413818326
Ni 8.651287843308937 7.181459728663847 4.970794855418799 -1.3335193667714775 -0.39242310463169194 0.08486183094140223
Ni 7.5274136084461905 6.364167026017323 7.2779843675662885 1.2128749789138273 -0.7649957501963599 -2.555306817683586
Ni 2.5474992684986026 5.331341914129015 2.4928488471313797 -0.7171940573320488 -0.13155280724003796 -0.6617253348407829
Ni 2.503072178184577 5.608405570226387 11.33634351112055 0.367937717895818 0.04141224439819965 0.4437659778800422
Ni 1.3139416698285953 3.4237184316477394 3.8670339428704206 -0.1490172825733885 0.8719207315853887 -1.3330007752638462
Ni 1.7454527628971137 1.205852143824729 2.4807848611063776 -0.6504057960629057 0.8480526667185394 -0.955417049637832
Ni 1.2386760949300488 3.6623205046380733 8.050548516862829 1.907013439977993 0.04174803047106358 -0.24509272284242306
Ni 3.624141258513351 3.0877283150477535 7.727376499259965 0.13614993969241712 -0.3313822873692873 -0.6020346038483696
Ni 4.384647797136104 7.375215759688977 5.802877462116357 0.0029637106140142505 0.03171147217066797 -0.1880988219558825
Ni 8.323412638039374 7.454889434569481 0.13570936898999061 1.3721535342039077 1.2124954840872215 -0.37998642153023593
P 0.5684654770740744 5.881088449275575 7.833469629569524 -0.6411207712165539 0.1159698652001164 0.264785316175344
P -0.18709561053586302 1.6709977683671502 7.618977313340012 -0.3157684920914304 0.6580031487941893 1.1647616683463682
P 2.147118104641511 3.608867738534544 10.27850425336355 -0.851591018889101 -1.0891910328989047 0.11447939669751896
P 4.0399052340843395 6.662096295872267 3.6405851108220784 0.11661392654201852 -1.7490435761970073 0.4288229834169647
P 7.3151326283233296 4.368718526746758 10.452980311554374 0.7314071156076372 -1.0950186953242755 -1.1227043341650018
P 6.471983322683465 7.968560589491798 10.258389109520264 0.6910577652563131 0.2585943568732837 -0.5539650020346524
P 2.4344369685481477 8.885017326443183 5.792053937284625 0.8319850717327155 -0.9053872387739504 -2.6078709649335474
P 7.148599346980164 4.189179528927899 1.7235370377182206 0.6678293908559918 -0.14005698805630717 -0.6274967526752161
Ni 2.968317986817497 1.8682966731381103 0.2975030320880932 0.3995417179543442 0.5851532547119986 -0.5842975915799227
Ni 1.9092901814413965 1.4938449734310868 6.808649226512089 -0.8083291228766725 0.8959191513825152 1.508101385187848
Ni 7.373886043578718 0.5878765999904915 9.087859143712118 -0.10786394826353037 1.796268313511926 -0.3532171238561917
Ni 2.6401422292764356 1.6172535576367142 9.187353785515626 1.8806483197209032 1.9949569951685124 -0.6462285247567645
Ni 6.778419132586236 1.993180695767451 2.3923013616131725 -0.34119361703275436 0.30424017973685663 0.29369351456926196
Ni 4.323517286642512 7.394305382751338 10.054694816717628 0.4503788552108695 -1.2882388976671233 0.05949738403468463
Ni 7.531384541487789 6.367864729721196 11.375959943561703 0.78031978214794 0.48842398290904915 -0.08424682306522266
Ni 8.167808530205194 3.896969859875991 8.273798744130875 -2.113656086374334 0.5548558892800379 -0.6430226162249572
Ni 3.154296089362066 8.600230387732793 12.71554054367792 1.3434579660414283 0.9330854760201671 -0.8449945966185061
Ni 0.4110498587307795 5.044715231211281 10.30156480946751 -0.7387751259369341 0.006197387059963521 -1.3088756000808683
Ni 9.02806199238662 2.3415481013663624 5.497581018551897 -0.058786474010589077 -1.033142269534453 0.9925203822480326
Ni 4.166975091415477 2.9812053039135087 10.89949351679289 0.13150087095617996 -1.058567394475777 1.4452687661323431
Ni 1.421138646662561 3.9638472941063916 12.778871461104655 -0.029290778544317296 -0.7197075677825218 -0.024578717780628638
Ni 3.240700313595187 8.504527258372445 7.694384967494176 1.776023961440593 0.03574013371408683 1.7594891970103634
Ni 5.771487054269632 8.32826701260628 3.4955686398247274 -1.6306964690139656 -1.0834181349708696 -0.17208959101181975
Ni 3.2274395830709515 8.673127975037728 3.4555387203191503 0.17823915555298336 0.3410249526653739 1.0837318095565465
Ni 3.7736068138933176 4.763744395584446 9.49627598239169 0.8668692852044103 0.8426350952473939 -0.6855196090469032
Ni 5.634954354208632 5.075717653398437 11.528547599507405 -1.4088274925861737 -1.1151992840372085 0.2125060471556534
Ni 8.278429981405308 -0.031078926401718318 1.8995859861298765 1.028057655922694 0.6977722011620111 1.227058469503061
Ni 4.8573891972672705 0.7568816960756064 1.2745611253823432 0.3294966403108003 -0.4316398840404695 0.6068705917844323
Ni 6.598005800886657 6.074279806336074 0.3989485313629553 -1.6774314111766595 -1.366949364295149 0.3171427467311377
Ni 8.377694199800668 8.971467088899258 11.212481366214298 -2.010975739194272 1.1480404989369455 0.6933866704998058
Ni 0.12111345776874054 4.763052214595544 5.639145692249327 0.9601633060735658 1.2530024430623323 1.3985867886947718
Ni 7.441656026979017 6.481182043720194 2.7615671684901826 -0.28892720352887014 -0.2108284023429143 0.09467341771518534
P 8.73860283200114 1.601925391790362 3.4277722442551135 1.3520223106716716 0.9146954035487538 -0.9120299409014486
P 1.8376858796683602 3.2429681170983016 1.5237608536185572 0.7547722726961388 1.091243030331927 0.07531249669007029
P 5.039004738052836 1.3113824216985746 7.936937025943548 0.059853224712206596 0.1727241392720251 0.010770094032310485
P 8.768740027952168 1.8222484220869182 12.200324732233 -0.36722269410666436 -0.041602506032134806 0.9967588458094123
P 6.446909977124934 8.120148226061426 1.4288382493996412 0.13176698013337307 -0.3011844236296684 -1.2448667013290753
P 2.3736343332598255 3.669898064937637 5.9294591496974265 -0.6123280153545777 -1.255585116187844 0.32463288446059574
P 7.086029828641222 4.312579005488936 5.984444732385592 0.8552245018766303 -0.9029248932763869 0.9609333514703711
P 2.8073039380963687 8.9076225003176 10.109919930458533 -0.9698527654471878 -0.8551666520555015 1.1099231232399338
