# total energy = -340890.9289227792 ev
CRYSTAL
PRIMVEC
9.07681220240182 0.00000000000000 0.00000000000000

0.00000000000000 9.07681220240182 0.00000000000000

0.00000000000000 0.00000000000000 13.28483215645393

PRIMCOORD
 96 1
Ni 6.824392086119727 2.0775370562964475 11.225935230910402 -1.4794207294237038 -1.1196776315235362 1.190560374577027
Ni 4.931304928116739 0.28623999201091105 6.1244137535240695 -1.3430864416346222 0.3810053497130535 -0.5069040439911077
Ni 3.001093608703375 1.9217154233057572 4.8275751196576255 -0.5257759411949461 -2.2500237985045124 -0.6685948082671067
Ni 3.263277325656604 4.6567495162974115 4.49663636655493 0.5128715744284522 -0.7282256325558619 0.7755233892005611
Ni 3.6554772988548754 2.8952761334656825 2.507644519787666 -0.1543932021733212 -0.1778648029327001 0.3345951378796302
Ni 5.064543452650457 4.758201044924251 2.6729877286510906 0.391999386830712 -0.023819985237733172 -0.8273835684049623
Ni 5.805483622804243 4.819614755462784 11.475637423571355 -2.2497810863660868 -0.01818412710819449 -0.24327623845897456
Ni 5.654263933538506 8.02106991403722 12.338633485775343 0.6022585469337176 0.031397026254042705 -0.07618332933079783
Ni 2.178834279117913 6.74143910051351 0.16433114431641804 -2.5011156763531637 0.10391704780064039 -0.4879331593155597
Ni 2.946405815916697 1.7253204403139961 0.15306500516175828 -0.2664966424394959 -0.09311147254470416 0.12155404415611323
Ni 8.258110861526697 9.056017104299436 6.521112194789574 -0.26151358740260766 -0.6858348262944769 0.5496319218769372
Ni 8.544084902943641 2.5231631454021692 1.1873368806051654 0.2725449055161048 0.5681739465451827 0.7988422664321597
Ni 6.950450852297551 0.798706817598263 4.646728715760235 -0.7693581409301137 -0.09771220454150913 -0.5206828429427549
Ni 0.8447761773142443 7.669824516947412 2.2198687311726872 -0.28411975483789775 -0.870517937700591 0.35972150063361275
Ni 7.892905327456655 3.9033014990963166 3.5276812308447907 -0.7547195650813324 -0.3742824291669231 -0.16558598556534707
Ni 7.762008620439778 4.32264114041611 12.679242674468897 0.11375048895129442 -1.3454518565430054 -0.7438466269225705
Ni 8.254471059882306 7.452834247344368 8.839767502562184 0.2895195856972304 -0.01919405642994759 -0.09255637137218252
Ni 6.83657316793213 0.9488173204277286 0.27994340747047636 -0.7693278019128106 -0.5305394240218605 -1.0019918120735776
Ni 1.9080275906879463 6.459159321613442 8.984119675807605 0.9151407186162884 -0.1869942760377941 0.7252218127325317
Ni 0.19577231368301978 4.964389908151169 1.0504104473230276 0.7417792028705805 0.06026228722516719 2.880513572369781
Ni 6.542856605810282 2.142336417741111 6.892648805285958 -0.16296963098842257 -0.2799409408698598 -0.4794837429966259
Ni 3.293357880892297 4.674240533177068 0.47200602805608277 0.4582004081378173 -0.662501293774859 -0.23995874404996737
Ni 6.158444537377317 5.690716410854905 4.597255551513962 -0.30685730564472957 1.1284965153667468 0.5759075677440146
Ni 5.5564794369923005 2.8799453978612513 9.21366862260561 -0.23454400079229928 0.4349805183779283 -0.1839215506497413
P 0.29673187909508053 5.802442890757183 12.481099497470378 0.7633235047002596 0.20238669933346434 -1.0354935433754489
P 4.106467783900337 6.070118079019281 12.299548732955518 0.903686968253392 0.9534771523026416 0.5083932269421244
P 2.4488785153330945 8.859622121307675 1.117720454989234 0.857307352547588 -1.3713626628714963 -0.20343648075421736
P 6.4297595272838075 7.853657192019378 5.703403978781414 0.4287239959452552 -0.20849872576847317 -0.5922932081908896
P 4.899127629290387 1.336025046981573 12.463470513047094 0.5866064422187575 -0.07295968018717756 0.045292039068580064
P 4.483037486695511 5.883453438578113 8.318271064316876 -0.7185546851250012 0.7167793383921333 -0.5811575032890443
P 4.505838438642422 1.1741401035209242 3.5229385965325855 2.1262897159779444 -0.39072309122144966 0.162346652692443
P 0.3755077157817236 5.603796858369389 3.4710745999842363 -0.9700602534723035 1.0221806283166266 -0.650912303385679
Ni 0.8564335270695853 -0.04638977118243252 4.566408913338651 -0.8116288766738666 0.9732193679265754 -0.3535922478074233
Ni 1.84541574095475 6.717086013700787 4.609955826977385 0.41590010470770955 0.18565575973202866 0.15818917888064368
Ni 6.615226028530314 5.609388174611147 9.024373522023433 -1.0042225011763093 0.05891451494802111 0.4356742020108432
Ni 8.828851728353843 2.348951891135826 9.950657656460635 1.0629410980634404 0.2049251494846019 0.22423130601238156
Ni 2.39692284298273 5.214401620104077 6.774839045927145 0.3762464948718295 -0.749713884336625 1.6045172395154366
Ni 0.7323789209991969 9.17656624554423 9.012284116013047 -0.13595556429342395 0.3897995509659158 -0.11405902133064871
Ni 1.519839568429378 1.078189123015036 11.396459484109535 -0.2359002577098776 0.40188167894143045 0.10437264728082025
Ni 4.102546601081441 6.908107523940728 1.373850845965793 1.1510294063619404 1.2011949714727377 0.4031307208571831
Ni 5.757685130386873 7.8039979531254495 7.89084489111432 -0.24667909349293646 0.005103125554520244 0.6197582463803778
Ni 5.071886593623805 3.073944102463687 4.80259936353616 0.401286982780225 -0.5165711347672265 -0.45341070005865786
Ni 1.0525925129472462 7.502348257245004 6.949202790636444 0.28419868770494927 1.3758512947704693 -1.1591304382025198
Ni 5.582638809409099 4.538233580958713 6.919125866125583 -1.3313899791333006 0.31843112652525807 0.8592158824242105
Ni 0.6961197797801191 7.290159621232692 11.070755328533822 1.0774812006611445 0.5102703893601792 -0.2556748692336435
Ni 4.602415719181883 0.576115247260173 10.418111663258209 0.6535158024467971 -0.6067991151165485 0.3269522766223918
Ni 8.165209689879951 7.43251126509551 4.347992676557718 0.12321034881261361 0.01111539318687118 0.390565739707979
Ni 7.5276544093262086 6.238184331506939 6.721673434526411 -1.0969562786666205 0.45540433344991893 -0.6301329047464825
Ni 2.379495363787639 5.613681506725355 2.4576675924709104 -0.9292609600677545 -0.7044352150044836 -0.08237197464001297
Ni 2.3866206612710488 5.329168832053415 11.267078604710145 -0.7691653081930173 -0.09111295405743663 0.22450204317526498
Ni 1.135082581137343 3.5388765708652206 3.8759430798036476 0.8548861447006051 -0.6975384878846502 -1.8152062880670092
Ni 1.3175809648334353 1.3015603915108647 2.204165846272944 0.5492246591361896 0.30485261650987494 1.1786682511251314
Ni 1.371597073526136 3.2266251584744285 8.303444999464137 -0.5211219873627024 0.6401008145924718 -1.2813449987607675
Ni 3.8225632556378093 2.6967571764470195 7.147292414443686 -0.08113604535038285 0.21138453195670046 0.14527272792929175
Ni 3.9674291764470024 6.693785837089434 5.984524648778766 1.23342683492325 0.9778517244922643 0.09154464227821653
Ni 0.5301148713160059 0.07734442342150459 0.17301493043409694 0.6949424450227 -0.3749290616119866 -0.018432752783890834
P 0.2226387697609101 5.813089991327933 7.766206646027137 0.4883525062411654 -2.298756230713209 1.635547883568996
P 8.650737444892766 1.751234738804613 7.736846789670658 0.5786465639417325 0.21486837674024284 0.6425729302820482
P 1.9894012109921075 3.2050949602188266 10.689945846815718 -0.5529699851112347 -0.016840211485790353 -1.163059855163913
P 4.069162086248345 6.5071847343328315 3.6201031468136735 -0.09819428638425023 -0.2505635161490072 0.3833131719106237
P 7.3043648321391075 3.884358192283736 10.358436162233142 0.8591014683335334 1.442598932609664 -1.7288874129641065
P 6.597471784100314 8.032570234943563 10.07135111901751 -0.6885596814248076 -0.061205110754410715 0.8511716719634954
P 2.6292983090626887 8.528717860090888 5.6363027377930655 0.8344792989094789 0.24282346719227216 0.846686125388316
P 6.866835259409438 3.937784308191186 1.4303776008800366 0.2832797754351057 1.470357590780171 0.5389150496800654
Ni 5.117842493188777 3.1750597890435373 0.5035443193119488 0.3998559067606533 -0.5948314012317111 -0.41307754765724986
Ni 1.760865236422317 0.9780900393882328 6.886404866255592 -0.4276749858554505 1.1069239314022936 0.021998358647962114
Ni 7.084787671093044 0.8746452428284553 8.975338767800663 -0.731069015541928 -1.0030634478712015 0.46413220024122004
Ni 2.714774648427361 1.6373389008150296 9.323374604138708 0.5745094018449073 -0.5009491119592533 -0.3730171893012543
Ni 6.305035052481857 2.049226479416505 2.424627996496884 0.30356835048081265 0.06869087760849459 1.112005202579943
Ni 4.388783870048728 7.106916938945976 10.325236814366495 0.00824964160330192 -0.5943176948200861 -0.8743136572975975
Ni 8.003624281217968 7.475027052881867 0.056767290434384284 0.3157265831099014 -0.4212765385282745 0.13385008791464692
Ni 7.924955550913877 3.9956308315819746 7.861020301979304 0.7062445002990805 -0.7009423713598767 -0.150305919477825
Ni 3.27375196679782 8.442451838075188 12.277642754679771 0.19448724198072956 0.7780890930452083 -0.10848564100792929
Ni 0.2581890119564793 4.978613272681747 10.002681404901605 -0.7166291859675142 -0.7551882771876348 -0.060802218889037224
Ni 8.947721659363692 2.149125873177532 5.52169437005514 -0.27187333337037695 0.9711506583230048 0.6152454461116889
Ni 3.9625367747354634 3.273352587066266 11.679918340898896 -0.2152021059305778 -0.5323463953236122 -0.5850743218449472
Ni 1.1992647193605135 3.3204612417654955 12.761967832091885 -0.9220325606401153 0.19839480456525188 -1.4977591227215754
Ni 3.114354069847304 8.38495931035555 8.117842346036419 1.1467228085667864 0.07419612369743996 -0.22303985680744165
Ni 5.651894885585423 8.0589474508503 3.26816155823727 -0.19366423185880197 0.46439470987398734 1.5306067653792157
Ni 2.9196292202784058 8.649575612946427 3.32588463698376 1.171029760743267 -0.28156227852336674 -0.1877388675133025
Ni 3.4786156154609458 4.227897375916965 9.318698230554691 0.12372199834170951 0.2687949515553693 -0.5505917146870453
Ni 7.554095162917511 6.313694331206919 11.173406811717742 0.04799889647678185 0.7506690491610427 0.33087937959093977
Ni 8.082538085448238 0.11572481562385993 2.093649305421034 -0.7407116808380146 -0.938251593602139 0.9674505837635984
Ni 4.6811661407947 0.5086137188590624 1.3672483728582363 -0.4593715456277831 -1.1065369803765202 0.11713226093933377
Ni 6.118724407711839 5.837506615825222 0.38849663386931477 -0.7147185992083627 -1.3997959785115248 -0.7489245556661103
Ni 8.299083591259324 -0.06791361566957782 11.366250038142294 -1.3674440445433804 -0.12435731793286324 -1.1842238908360379
Ni 9.415740243872689 5.043485248623055 5.6984489470665185 -1.1044780409649624 -0.9476170939774389 -0.7603698213885745
Ni 7.46337242617015 6.076780459086571 2.4953427163745894 -0.09031179831237995 0.22167974323512143 -0.8507687800981217
P 8.588316208213266 1.7170696181325704 3.4246839211205957 -0.4237694801534572 -0.16767012178788543 -0.05358307543277869
P 1.8867969272310101 3.274550726260929 1.4672693959011447 -0.8320087258817993 0.8116643578974925 0.6100461612989365
P 4.676391737640213 0.9842531947910801 8.271322161510268 0.8123243600789946 0.6621323404712145 -0.9079269744766687
P 8.57271316824641 1.6974364736018508 12.486852380967175 0.7205442047512043 1.0980297142364572 -0.83590111895767
P 6.2622651139572385 7.697100337250144 1.3105609583701627 0.7860019201343819 1.530189475336139 -0.43138097395212804
P 1.8734903207205917 3.2370907228035635 5.888541899430596 -0.08187086663387835 1.2089046814121696 2.1324189688041337
P 6.911084718303223 3.8216283439934893 5.4755160885941905 1.7601070331000204 0.08026958358502949 0.5707679325246041
P 2.3979939068082614 8.411581600188466 10.23621507220307 0.5908202231897889 0.45075732159621074 -0.14525318754526598
