# total energy = -340860.50909267017 ev
CRYSTAL
PRIMVEC
9.37293279359596 0.00000000000000 0.00000000000000

0.00000000000000 9.37293279359596 0.00000000000000

0.00000000000000 0.00000000000000 13.71823457399371

PRIMCOORD
 96 1
Ni 0.7466093952161776 6.320993383051946 5.8898281655316005 0.6221668558218705 0.25278134973593236 -1.1990534996497026
Ni 2.887153853234153 8.92225404101891 10.337553766770416 -0.5739753837183083 0.09151944546723594 -0.3004393179335277
Ni 2.651762019716999 4.002485987875141 0.40901510280473935 -1.302852276704924 -0.47018894795826116 1.351121396123957
Ni 1.0759751899512318 5.480372534886801 12.342981775188573 2.115242457024847 -0.3115120308079216 1.0761642816219337
Ni 4.93399616508448 3.2896838238572204 6.19020254192422 -0.23532664459459468 -0.8201903930906325 -3.278441665980102
Ni 5.781403016573128 4.938101509636542 11.906591147650476 -0.34692743419273797 0.7148687516329818 -1.131472310165619
Ni 3.409151224908811 5.487739660041872 12.711275234292641 0.32929043783726514 0.5919484232569612 -2.8121052589987117
Ni 7.8377682281149985 8.904642300349215 2.7258269344439463 -0.05842394846484776 0.34736606439205336 -1.0692899230996036
Ni 7.55862354444024 1.2590660586270337 4.581190540085043 1.1307698847819556 -0.9573633747309254 0.49212817123351366
Ni 1.5026123436517107 1.979244720732794 9.331321632247144 0.4471361799038557 -1.00879495103834 0.10901091738377999
Ni 6.669657109061528 8.531562084480901 6.39618211241769 1.8921334375423673 1.3307235491938953 0.3998636200701372
Ni 4.008044137006131 5.791853836608631 1.160368139294431 -0.30412885096997305 0.5049780306129884 2.221824196141845
Ni 0.5215109164640365 3.6746301726088935 2.5052790145503137 1.8224182324344163 0.7855949145039502 -1.54305219023142
Ni 1.270857208048256 6.683575914220921 10.526138111341114 0.2698249354817805 0.4828701429703555 -1.5364732514623216
Ni 1.1570791771863969 8.82261039277009 13.230084871533151 0.6589318312560458 -0.4765007491089019 0.07274113641846829
Ni 0.3870355754654972 0.522997463600925 10.886036234565541 0.7092945999793139 -1.3760801229518236 0.33973682998156973
Ni 8.872689972545599 0.7194382004171461 7.8445392347460725 0.22697930107116393 1.0240984141646299 -0.32013602503150673
Ni 7.717644721769699 8.614821846252537 9.21434649401837 -0.5748405599320809 -1.5462429292545758 1.2575440396864277
Ni 6.877979912746814 6.2297572554953655 5.092346240427803 -1.034150141973677 1.984730432344498 -0.6614545976778996
Ni 1.725988077361228 1.900633933613722 13.894101857790721 -0.3321623600684215 -0.14241828919963215 -1.5823057364154038
Ni 9.00096793039842 7.897201994792241 7.16181012551193 -0.8389519899688519 0.1523869703765698 1.1258364520360804
Ni 4.665724083419751 2.5232497385449952 2.645644306499804 -0.8319619318042639 -0.4796446940545223 0.246060228962015
Ni 2.2586705923905703 4.214782915053749 8.68803194951111 -1.2803453538516596 -0.41688406588753363 -1.754619527622888
Ni 1.6595902216379055 2.456289506855637 6.971922005993305 -0.09463048029239186 1.1271400013388524 -0.19280522629261634
P 5.169856645239998 4.041496134052508 0.11841200882199633 0.11073844159784799 0.07450748429027168 -0.4267750997490005
P 2.2741171855910274 1.5282004501063506 11.674176157580204 0.3849579066028983 -1.1753337874352596 0.374390158389381
P 0.6096989662847023 8.368660512985793 9.24932721639909 -0.7745224587398726 0.9462693217002929 0.036473669446001694
P 6.388450380177971 0.7374951553932868 12.236033800434221 -1.0958579033961193 -1.1905827431745302 -0.4344598699877679
P 6.365730391150114 5.740977557547904 7.064643743393497 1.0415425777830063 -1.398505541834875 0.5839515210944136
P 6.802199751323457 1.0637435126899477 8.491600585627657 -1.2543227045356526 0.28550789343467603 -1.0672106719730716
P 8.923678726799535 2.7587165555242876 6.183686479064416 -0.034388247671882706 0.4686825386160638 0.0906781805128632
P 3.823950364524231 7.467059364236804 8.595489235126772 -0.34544930698531473 0.010555406918343111 0.557707242685904
Ni 1.9292494973521892 0.14678387630851486 7.6760926362258495 0.19350456635248608 -1.2218293598936376 0.12575599805260276
Ni 4.437258847217608 8.594763770130585 4.556580030518029 0.5994503880609612 -1.0738510601077247 2.387649294301191
Ni 4.620743379069635 7.398571344506381 13.349488536641925 -1.7162411849550054 1.6452401711560958 -2.8653209237897426
Ni 8.289702927354332 5.261805115686891 12.240711831178364 -2.4312462050555355 -0.396296214433853 -0.34557991902590807
Ni 5.925155686424709 6.331453576020217 9.083432867471393 -0.9030974142985092 0.14794821787892584 -0.7780975776856406
Ni 3.9088222707318376 2.323531287140061 8.356956531839307 -1.602220987282092 1.740305939213693 2.03012197310542
Ni 3.612347034370402 5.528090135604959 9.7896064934363 0.41195346135513566 1.2303942187445132 1.7164101064327022
Ni 7.958529093888472 1.8001279755503132 10.123782477267518 -0.5029437737917789 -0.9488828480637401 1.281669986200354
Ni 6.660293549227028 8.41521587004081 0.056485042028660434 1.0089541023240236 2.0469966373735717 0.03851049737037239
Ni 3.73854420114889 0.4693955356914761 13.383180480767145 -0.25134667417193485 -0.06957636553724146 -0.8736937643254116
Ni 2.490416355061258 5.3066733448438 3.147951021016986 0.22081816656577452 -0.47831877615424717 -0.4914722828170697
Ni 2.8885691660820108 0.7869879895775655 4.359805617295294 -1.0836294796507273 2.2287880290541873 0.35483486196527275
Ni 8.305758761184661 5.170943905441001 2.3387257484490784 -1.4212942575946168 1.37372139291166 -1.0152119103082775
Ni 5.8943281105531655 7.208825693565819 2.1085340180312038 -0.6436556218232656 0.8275653453984652 3.792292316492372
Ni 5.524500302355095 1.2364304259940828 5.875382601550688 -0.22433209325630396 -2.158486612425463 0.1621795309869594
Ni 4.137193777606309 2.8584445601680133 12.453180283026612 -0.7862047801738073 0.5137058974042895 -0.0063789069431503045
Ni 1.497447857696946 4.213189516483313 5.0745536021556985 -0.3379671396756566 -0.3318484283724285 1.2538092552343438
Ni 2.8699826404045194 1.0337313819691574 1.9336266569545033 -0.5501499991639364 -0.23732696285407517 0.6494290339719331
Ni 5.821312964296153 1.4735468791404143 0.4788237687620704 0.30788471846797943 0.9392098437503501 0.41804363341327355
Ni 0.7910417829994087 8.209779929647842 2.0288444063506197 -1.7319807071774493 2.203665780065263 0.4614664804835988
Ni 8.41366933613421 6.0143485146380256 9.8674711951071 0.33557010019838984 0.07851377723618735 -1.044013150810686
Ni 0.15415193875686375 2.7325473272380774 11.983261737686721 -1.653813257537087 -1.1990079911237481 2.4378534259594082
Ni 0.49407446766769125 0.8776889226731358 5.547105004309914 0.3258999240984774 -0.833075733693733 0.43876749622418626
Ni 8.818889338461483 8.102244272008983 4.957975876276256 -0.303037160567691 1.6003955040375792 -1.1555445206234745
P 6.059638525769461 2.6613880216689827 4.267194480501754 -0.55406013285162 1.1233036583118978 -0.43178463714844995
P 2.527636271080077 7.453581086917474 12.001836078551616 0.8515030871609852 -0.024546321880796435 1.1726135602906194
P 3.3548069607241944 8.166992491565267 1.038456277377137 -1.6685983862660618 0.7844733993049974 1.9969735113779088
P 8.817952045184757 6.241585896647656 4.066990511179475 0.7827790423217099 -1.5878860587166588 0.09762890079908347
P 6.420927592216552 8.421392632734438 4.280720559778198 1.8515323761915532 0.5555760552755142 -0.9005425090871394
P 4.6524895023523705 5.681937454046887 3.5774553548509718 -0.4879727543042434 1.0061351448179898 -0.4241286632650889
P 2.2933598165622273 2.9097332482705007 3.6072237893198134 0.635968280481337 -0.9282093788747884 -1.1310411361654713
P 4.935655174184286 3.4828974599216713 10.087923511086506 0.01316404818578378 0.6215832154042585 1.3060921237984604
Ni 0.24338694516763332 1.697072579774208 3.3715713882717293 0.8390088113487164 -2.2970479897728504 -0.2077235381653455
Ni 5.725549710212981 4.483186217777218 2.0504237094606994 1.7873069905535799 -0.06836640438954032 1.6548617534062595
Ni 7.724749404807287 4.16867745877156 4.772670183587549 0.6355826150071441 -2.001649062476708 -0.9184666976657279
Ni 7.079563577772435 3.9261340775529803 9.683921052725703 -0.8705243654584943 0.7702647119047832 0.9307344592894874
Ni 8.903226987501357 2.973975329457352 8.452641053287232 0.7244736217125974 1.8717890695580601 -0.8906085378028791
Ni 2.83701803586204 7.933456498736032 3.24131667889829 -0.6000990773885535 -0.8635217088884162 -1.9016730016016863
Ni 8.600453140320315 7.716351257047815 11.701996896620008 0.1582287738693275 0.4601001962636914 0.7322267832954551
Ni 6.268354992630973 6.278159080305535 0.27615190624217006 3.233354286723161 -4.96347145832931 -1.6059429162183698
Ni 4.941963157936658 7.265475699211184 6.707969909041011 -1.753386169436419 -0.6657272569113244 0.8061092324072181
Ni 7.605628802268086 3.8020270747815927 0.39194792952882207 -0.6579075037565896 0.04375889025350528 -0.22253952013225545
Ni 4.973156278186123 0.08558706097774907 2.4456596638042787 0.6785380355227475 -0.18047730085488273 -0.7784675594305497
Ni 5.222026389022608 8.391521096005158 11.163309143566678 -0.41452173630294414 0.5942536743513701 0.12330933628432313
Ni 8.509723151133167 4.952713911820713 6.919889107029096 0.6022783444280595 1.1695308076002373 0.4691653917897533
Ni 8.373047045520874 0.656276818378361 13.090775909106533 0.27632365583224666 0.5595905757515459 -0.6830549495564947
Ni 3.0670860435673863 6.526391831713845 5.310781501275693 0.5835905382105692 -0.7763402286749017 -0.09111963892565597
Ni 4.705137265706111 4.350699813111893 8.022080389930375 1.1655147444623088 3.3979046319351416 2.8184132034946106
Ni 1.9725337008714303 3.5244851626100364 10.980116109923712 3.0215846035128995 2.1196711822201624 0.08956746394718769
Ni 4.674356554498405 1.359946934001133 10.842274948768447 -0.01276295609262318 -0.17246651473526428 -0.9470285684638206
Ni 7.661585210888672 2.534234815748233 2.3088888915710357 -0.7995421207126617 -0.5154725023864091 0.8710946361396674
Ni 1.2330655431306339 6.660256057495959 8.160812916991807 1.8100239725351217 -1.342459606683901 0.007360554130129258
Ni 1.5909334891176716 6.470472914824327 1.078382159085866 0.5090905101194652 -1.8775262291521535 -1.3370682604650004
Ni 6.735323876029004 3.5463522147560718 7.390602477067651 1.9954277641573441 -1.5466800167919943 0.07866392966080646
Ni 6.824891621553012 2.7850451236675418 12.092624179921923 -0.017483758607060213 0.08786847897820996 -0.3855757426925553
Ni 4.596008209496817 0.3310238665415838 8.468197309801067 1.7037160559048012 -3.279694821660913 -0.3033948010174259
P 3.463476743227893 1.313541543870392 6.634892901427733 0.6143435031227098 -1.1500289901218839 -1.963392075878038
P 8.36493008574442 7.012087834780877 0.8116912911789756 0.12345794604704544 1.1512561776607657 0.30102424390272026
P 0.018150684303813377 4.101885939872012 10.468288370301538 -1.3235717686404624 1.4510997709918234 -1.8469141606932518
P 9.309899794407556 1.3613341280506888 1.1594402189504716 -0.6390366349940156 -0.5189553187286869 1.4335350226351826
P 0.2460010561164242 4.5013322156146485 0.28891971525774174 0.8484622434521322 -0.5079204010707639 1.2648318315970926
P 6.709538937986251 7.0098758226478015 10.852440831647824 1.7023477148023651 -0.7851341728174478 1.6116847037981532
P 1.8398129728869235 8.417559103232627 5.185643475899906 -0.78231547242173 -0.5723141939658014 0.3722931666510363
P 3.3428002338493252 4.507490232442743 6.516833314877785 -4.2749025209331215 1.823499381313737 -1.166335440591391
