# total energy = -340862.81455771206 ev
CRYSTAL
PRIMVEC
9.39224498502569 0.00000000000000 0.00000000000000
0.00000000000000 9.39224498502569 0.00000000000000
0.00000000000000 0.00000000000000 13.74649991826072
PRIMCOORD
 96 1
Ni 4.931388891989688 7.726934289404747 11.97817811789223 0.9458710578206098 0.6564244914531598 1.0981423285549217
Ni 6.753249633222793 9.318196629200783 5.245499379864433 0.3533549349856366 -0.020298345237719877 0.23022403326070673
Ni 8.669323984948534 7.953850930766736 1.4207836991767704 -0.34206907765917216 -0.634646733456436 -0.06341960190722626
Ni 3.282345460403133 6.755917030828206 4.614356476667606 -0.1957591667146177 -0.8476739432228821 -2.86000079712841
Ni 4.8242985134793654 8.908995295142043 9.813447834320378 -0.6176674252896202 0.2747912783481203 -0.08449930539566092
Ni 5.115965292488273 3.6979053443874537 2.93058897576071 -0.1742248921872677 0.46077305396100005 0.9683445563327774
Ni 8.988829378402677 7.01876840190257 12.713835106771336 0.8780684963543395 -1.529755987343146 -0.005423999229048723
Ni 1.8492203511787773 5.1723751164957275 11.560050394100445 0.21648997150406588 0.8451390926161703 -0.47784569317257053
Ni 5.38806802497578 2.8830059836883546 10.707107744666382 0.2846195772924518 -0.4060273256786878 -0.24721593983301293
Ni 1.31804193014288 4.570144361357867 5.704866573395135 -0.06419556084130233 0.009283225074138852 -0.3293248906196264
Ni 1.0355419823413112 2.2630896310469906 9.010418392965372 0.28130285421439294 0.14844984010569273 -0.4718979602295679
Ni 1.1279241050414985 6.506740768604135 0.8101722437455607 1.7517614893488025 0.7315963488003078 0.46916744867228233
Ni 3.9552246831041096 2.899160645242271 13.368196579053881 -0.5022351777605285 1.0138595100454408 -0.60080793053012
Ni 4.889668539302191 7.082175448501691 0.6040678782773646 -1.2584837778918778 0.8204683293423676 0.4598286877698597
Ni 7.228074583721772 8.359163875358426 13.109019454258526 -1.2670491509633854 0.6967597007370968 0.36144516819293876
Ni 5.2187070615221645 9.192425075207472 7.193172061744732 -0.717272733088784 -1.4933630505364088 -0.1981641766116845
Ni 1.7522454206298312 9.3975986691873 9.684148553071456 -0.7514326667999446 -1.4686182394915612 1.6797618590820491
Ni 6.583024583220943 4.917713783139396 9.61328500309579 -1.491312081544651 -0.9169134942459951 1.3378624742315217
Ni 5.78592352696642 1.487816152380434 8.693891280429103 1.1042538407692983 0.32830390555427974 1.4507611567054821
Ni 3.382382262851251 4.060840479135383 6.921170765504191 -0.9280170603583244 -0.1342000150548979 0.9822046021443214
Ni 4.149672333191744 5.690639200533581 9.114218668020847 0.6297035305185478 -0.5928691352990176 -1.108164488677614
Ni 6.30315446404443 1.3484540197426367 12.641116588390496 -0.35620448861928977 0.08304020435163117 -0.4205383748106693
Ni 4.774247239397494 2.0702856238500162 6.764707233007457 -0.3267980104327146 0.4397332025715653 -1.9637371179222824
Ni 1.2592934371081432 2.3640750502491477 6.034122056476676 0.32449353066925407 -0.6503176072244735 0.4582847403215075
P 7.255011542638418 8.846640179992944 7.590995630102067 1.2077571980712878 -0.529418680153856 0.05344526430333375
P 2.980084228933285 1.0566839260377447 6.022451252728481 -0.2745431668930562 -0.2439796922839024 -0.143903615495907
P 7.519149651290042 6.777688254945636 4.296688206352965 -0.2071095587304304 0.2387860638981049 -0.33694281217620037
P 4.080498448107678 0.4711253451582309 11.657980515974991 1.1153188403342083 -0.8751099279466478 1.4254111079764678
P 8.828954582489443 3.528788579306164 7.15442059773002 0.24017394538456704 -0.0938817750518254 -1.0050750789845915
P 1.8533999002435988 5.486498753513597 3.04718712397512 -0.7161501894485666 -0.6073678431358249 0.25783305322722694
P 6.509746287032771 7.774646894459337 1.644328524551634 1.1968876023466355 0.7035803232033561 0.15925901490605474
P 8.815908754060146 5.4300231837905155 0.5698566255389108 -2.0678269438553616 -1.9623008996963884 -2.3021552290924285
Ni 6.297622431686723 7.272218135642358 8.847027140490631 -0.22843737367392916 -0.30937287297773175 -1.5060851260887675
Ni 6.09528529572392 3.833980191243931 7.648937329283617 -0.8185402590817193 -1.4235833107391096 -0.9793997857056748
Ni 1.002856969429899 6.275062258981777 7.351710341181733 0.40179477565457894 -0.2074098635796686 1.681795601682626
Ni 9.20764990449753 8.981371935801626 11.380836965547957 0.9595542117346573 -1.072866327596952 0.3695199747812733
Ni 8.347911965741222 5.268542313966978 5.685840702517363 0.6046686990371071 0.12316329762476207 -1.270972911497824
Ni 7.369963230288641 0.6273963366306307 1.084564805585885 0.1981153256516201 0.14844701189221532 0.9685021649565643
Ni 2.985954382114214 2.103252404114113 11.012376373013883 -0.08809730715956442 1.9816116842098583 -2.2179680556205477
Ni 6.7090309433414905 1.778214978302261 3.4473888087891127 2.562312559577458 0.19800811064979448 0.5431673971985161
Ni 2.900672796701678 3.616380657010713 4.076661715988623 0.3859858336467804 0.07024793768296934 -0.38423439817331245
Ni 2.5013708889672577 8.283631440348778 0.4248450574797872 0.3761734755420489 -0.012242564812778916 -0.230120674913623
Ni 8.56406509423066 5.986091054313552 10.401921768075667 0.6432640428118019 0.4139784622049644 0.44194743661406466
Ni 5.3885282449851655 6.204996110614209 3.4480894702727882 1.0872984438618825 0.46642279604760967 -0.6786285383540248
Ni 4.216150643935128 9.121579370497477 4.856005793676962 0.1581423848031083 -0.17626609098701257 -0.4656648348356625
Ni 5.814645012450069 7.135147710806395 5.830729232165814 0.709770768284784 0.1979662016682655 -1.0401456974354797
Ni 0.717672717981755 3.4325274593840187 3.3902989862371795 -0.9090124942313634 1.227340519519854 -0.30596770395092465
Ni 9.279106105138341 1.516124379080146 12.468240107599886 -1.5518803300460113 2.597191887953146 1.1419359287011042
Ni 1.371004800202493 1.94551904008128 0.8174136647095548 0.8081370614705243 -0.31132871115252186 0.5244878185111419
Ni 3.561182432619802 6.909827751109618 6.714615572271699 -0.789717421312756 -0.02634532276274818 1.9498626739330354
Ni 3.550550411178503 5.400061921955055 1.8095888337991808 0.5892482507169787 -0.5260546487776295 0.1827349865408079
Ni 8.913043352775613 5.858581934978686 2.535541755051827 0.7069790644722599 0.6523912019240506 2.272056352824519
Ni 1.7777265815576075 8.636779855713463 4.882976564675932 -0.1936207802153762 1.5143473660975595 1.4074475815195115
Ni 7.521394397866429 4.3147316483943765 3.4907039646928055 -0.6101695742506782 -0.8510176628841344 0.5393976457434388
Ni -0.11220727363507485 7.757205495328161 9.00144222433335 0.3610386767831395 -1.540186695758167 -0.8596254591578035
Ni 3.3274564135679356 7.128977005782603 10.562920815726114 -2.7056574743564177 0.5049422922790465 0.8233099125562208
P 6.4819922027933385 6.501058460324996 10.963356367442836 -0.49636766323615805 -0.17159079699853028 0.7149258301231622
P 9.114337949533484 1.6458406760110411 3.090227087097691 -0.7880405478309654 -1.5218925254346694 -0.4495360475946
P 3.7277538992818413 3.2749631557627965 8.931925522303516 2.6517869495902073 -2.4386661516686905 0.9670569478696054
P 3.258207390523153 8.919458256171731 2.3526860138536363 0.0673176514100518 0.14827474798040916 0.6987103967055645
P 0.2765875295177371 4.346712242924077 9.627732154492438 -2.130557233005047 -0.6962958737268008 0.7239552873152821
P 1.5246149686410415 3.142588853471577 12.22716841366353 0.014581240248284564 -1.6974813878489992 1.3335674464005938
P 3.4497246601428677 2.6496838311753357 1.8926594847176514 -1.0631413869997044 0.707942971047426 -0.5381884559266861
P 3.2943675341176752 5.957745258633482 13.399401374139192 -0.9994227657948208 -0.1528533684900271 -0.756166324830188
Ni 7.962426050533437 2.8991888219775395 9.071562847722436 -0.25312304934606733 0.7387285889697148 1.1432533619609473
Ni 4.2449003061540465 4.921160737087238 11.359241376413701 0.5793623590618344 0.560098625736216 1.388699611488047
Ni 8.771154706208744 8.713298476457508 3.6446785522408263 -0.8513434216546693 0.1035915461404216 0.3600086928567283
Ni 1.4542482684306102 9.351820866621145 7.2189603490869345 -0.6672796890001088 -0.1578233109007927 0.1898731402474859
Ni 8.963761476258838 0.9698807969207125 5.280209360817138 0.7219958495960662 -0.06980262261543463 -1.0599277651584134
Ni 4.0896652793150166 0.6408695122114988 0.2502685803279786 0.7534628098560959 -0.3345416589338755 0.08539867728147872
Ni 8.655104125883051 3.201919665701862 0.8309770058432819 -0.6088385141440805 0.10113897083487097 0.6889368622585684
Ni 6.462484509742476 5.017017990470536 1.413662498949922 0.680206424364106 0.1082645261360587 0.5082135068311506
Ni 2.143037954313177 4.50207876119436 8.971859469974994 -0.20065017625833187 1.6661866915007757 -0.20502593672852434
Ni 7.863685377907667 1.4596112403767068 7.1988769114120865 -0.551525025134592 0.5468291623208195 -0.19722006753086035
Ni 8.76593261793899 0.4301469798328022 9.319316184815449 -1.2970914629617467 2.558795033342503 -0.8867675667902342
Ni 6.3680079163873335 5.926863556779251 13.057937850890337 1.0513233113188538 0.653887583963919 -1.6638462162930572
Ni 9.102428582760014 7.904701312213454 6.1332618995187485 -2.0464531061652758 0.6122894488071583 0.318509030951045
Ni 7.595940647141681 5.5327273838440485 7.7418360254637255 1.8992510224237549 1.3584649809732219 0.17085469016345414
Ni 4.723397624483015 1.2031090269828362 2.777521679088334 -1.34554518758776 -1.7092914931100498 -0.06149461697037151
Ni 7.0473020424844295 8.505495053852623 10.633329781039448 0.22030677414699476 1.5253066933225408 0.5994061650865871
Ni 3.3493779136067965 0.781813298922366 8.369666283817491 0.682947734554669 1.9081861201298558 -0.6241982844296023
Ni 2.207140027048921 1.227115605431563 3.5022094649274265 -0.26637245815680577 0.2516066127015409 -0.31907981585285045
Ni 5.846033895539132 2.5080393829807934 1.0656262825874447 0.6828963124914433 -0.19566532144923077 -0.06665456390475617
Ni 1.7785812758607509 4.377424884366698 0.3125804911496665 0.3162911973641198 -1.3105748421601622 -0.3887466842213692
Ni 1.9792465921976254 0.6111900177287222 12.474852248142884 0.7886768958633837 -0.7303599052900454 0.3525725482936573
Ni 4.623501705711238 4.688655709897005 5.261294318431422 1.8010739624306853 1.0291449754496018 -0.639153363077538
Ni 9.054828684646498 4.273509084696621 12.328892063329722 -0.8564609453868927 -0.000852320697966274 0.08078200444507377
Ni 1.4223334196165356 7.675521139784899 2.899632135945763 0.452709303116259 -0.53900838072482 -0.9597706986208373
P 1.15916271220913 6.612074797282724 5.283096536957646 0.47926159968349075 0.5516456098728564 -0.49166511555416614
P 1.0544391794613577 7.195915536535371 10.963933990515839 -0.21567467469162213 0.5608673855814406 -0.8727488839136389
P 6.220098840718103 3.867435368252681 13.218236237057107 -0.6426816879457705 -1.8468185156556516 -0.8132882666541607
P 0.34150578835175743 9.09665235202998 0.04782249432213736 0.6449031210771216 0.5449885095676549 -1.0731152103829646
P 3.158837437476388 7.902033914608039 8.557938532758788 -0.41501281700674975 1.1944196004221173 0.012569352024578352
P 6.235342454498339 3.2635046167536235 4.923569847952691 -0.4477136496738806 -0.16427523717372353 0.742000060632135
P 5.296117945549709 5.821548312590841 7.366914507532594 1.118833024135054 -1.2150213358328688 -0.3847645596451696
P 7.687637135950337 1.6912333965285284 10.931807816187252 -0.392949152338491 -0.5614731374862394 -0.3081467138801145
