# total energy = -381175.5818270427 ev
CRYSTAL
PRIMVEC
9.15432747844842 0.00000000000000 0.00000000000000

0.00000000000000 9.15432747844842 0.00000000000000

0.00000000000000 0.00000000000000 13.39828359831136

PRIMCOORD
 96 1
Ni 8.194230827113076 7.463468322115475 10.389685739436713 -2.32043654390012 -0.31042342572943316 0.9979595509857329
Ni 4.244065256485295 0.47492193591169546 12.036522717374046 1.5218493309015597 0.2513551588123671 0.3926529612543109
Ni 8.518669349663337 4.328285069906542 7.171605474136898 0.6535142597849004 0.1157181542006265 0.024135716705939076
Ni 6.174639701271565 5.983241020944234 2.595448677273061 -1.400006551860434 0.024752267244015434 -0.09347631208329062
Ni 8.808715063624078 6.440646151097066 8.35908195755762 -0.3384093694193978 -0.7117155507159807 -0.32907857893677517
Ni 2.5508167533235726 2.101082949654112 2.491222996433249 -0.4553976485816995 0.43626658417920344 0.2999834613430318
Ni 6.254492900453471 2.1171671031520614 12.85557321895424 0.11338436386112731 2.0082303152386514 -1.1229894695055886
Ni 3.37435836799773 3.5422487351874774 12.282581887477274 0.8366757923401655 -0.5434065097925157 -0.45455818339953974
Ni 5.958268015399326 0.4460052460600611 0.9119980508835952 1.2493949282167323 -1.5911403039878984 -0.3813984713864141
Ni 7.155644904060818 0.7789261685142517 10.99618557146228 -0.5945259541761502 0.44430179577885415 0.3366517632983428
Ni 0.0636372233672981 3.299842141775018 1.2175539420051624 0.0414675231161673 -0.6673673636179087 0.4576756459825989
Ni 7.592251402029619 0.5406875404333892 5.264319638627112 -0.8545156487350638 0.31545738860891476 0.9112280138254436
Ni 6.484568614661755 2.4647294570829845 4.141007667840326 -0.03930573957815811 -0.7213111648242158 1.0929394441977434
Ni 4.458541996555556 6.926978956294585 4.356278088108807 1.0571203776166052 0.9437252151222004 0.15031980343489595
Ni 7.2670256073104165 4.961087115836666 10.194205144456715 0.5332563087323914 -0.9069941782497541 0.3764313571891259
Ni 3.4122389753822002 7.676727536622147 10.46042855184505 1.2305340867564871 0.15836864188130145 0.11423617033846134
Ni 7.610917075895479 7.237731759163895 6.472375965803519 -0.20525913578525296 0.24680919131289752 1.1641533453384079
Ni 8.684088048415724 1.5758534067145402 12.96987323725819 -0.8381215236477566 1.7626724798343512 -0.42281482954967176
Ni 8.315479895457033 8.572222165806197 12.921867943608081 -0.7834956087727604 -1.7870735343865352 -0.8136595339506503
Ni 7.383065863280822 4.26678629745394 3.161874525034187 1.2851409754680898 -1.6420005811728753 -2.11842214030441
Ni 2.804245157101161 0.8463340593976597 10.291328897986507 -0.6814076437610588 1.7303871374380844 0.3683364959961334
Ni 2.7829521912296586 9.038012659990969 1.6087320895279915 0.7126087519542114 0.1691531340913151 -0.11000927674130732
Ni 0.11460211111296223 8.159682394955272 5.0381967630531 1.2786386555731977 -0.7665378978724992 -0.23872461453255017
Ni 4.57658705025849 4.870303649565089 8.75407654423429 0.23763575234374557 0.3093042245233254 0.6825201600989471
P 4.712208412849335 9.089743764952216 5.455191945120561 0.21877362533192 -0.6024575503184012 -0.16111278028534187
Ni 0.6010145589601306 5.4194168330716215 10.686270389563408 -0.06306890343602686 1.0108970849830075 0.6867604234325397
P 0.2234937527028621 8.614148985965905 7.589886839224541 0.24146052540647447 -0.2855009514561405 -0.05230266605845831
Ni 4.233995496184929 1.969370484925318 4.72966113831538 0.02375467921743651 1.643515475155505 0.08404987656306816
P 5.822381177309651 4.074463030044486 11.657940009121466 -0.05436134835969992 -0.16731042445562153 0.25001818516849844
P 3.680350920543231 6.776280416235827 8.188227419108546 1.1053427029581029 -0.11537131238416905 0.6509210451364273
P 1.5408930298171768 3.903862981901185 6.684658413561056 -0.06357695342069695 -0.06283519015866598 0.835421093997458
Ni 7.4430084000506405 5.129700674902531 5.1181845308499305 0.21894434658182937 1.0327339783524407 0.9624207346491748
Ni 1.4852530269938788 5.5128001283662025 2.0276698199006673 -0.04387099035133735 0.7114358146920329 -1.3025177761836406
Ni 0.8002108954909627 7.416515776133131 0.9008700503189356 0.533200001573159 -0.34658779146513213 -0.6459122790679264
Ni 8.560605324150591 2.933366947134497 5.267227053055654 -0.3038072059644961 0.27306221147215554 -0.5180824292054304
Ni 0.29371659930659993 3.7825315246093143 9.213008616221755 -0.8201680244931294 -1.9681776701921394 -0.2379769377332482
Ni 3.2275870344561155 1.1880303202372424 6.656991289419421 -1.8601319449351061 -1.3635166844645161 -1.8584388735033994
Ni 2.209515959433968 6.752561553564691 4.239431335881617 -1.3063312363924597 1.2467284371281626 -1.731867321528037
Ni 7.412963897045365 9.189022447186282 8.485535261111359 0.28745987495472425 -0.9561441576118436 0.22285807981393876
Ni 3.914646779750123 3.6037475076400796 6.976874618582901 -0.6196754568585845 -1.1494767171628397 -0.264027612073713
Ni 4.938219605627288 0.91422621420824 2.8982628472946645 -0.5045440283993634 -0.8320429215538445 -0.12913905559222275
Ni 8.306041783757326 3.9852815710934215 12.169674242393038 -1.3026630435122533 -0.565663264308187 1.154183635720206
Ni 0.43718322060418546 1.1696209675426632 3.7929335869995926 0.08373260243296547 0.7226054581556071 -0.06772619970238014
Ni 6.299230099169736 3.697231500537664 6.8168588039480404 0.1029629114174872 -1.1222554195530414 -0.7950545172549534
Ni 8.232505070582013 1.8588319798099313 7.450852743324626 -0.7795839324231799 1.188474952802908 0.0902025264280253
Ni 1.2634894421971707 2.570159847427822 11.635163126754792 0.03267769273867921 1.2643852309779773 -1.3309474922792432
Ni 0.25285259657495796 0.49405356504963727 1.5585416578927012 -0.016994220565151374 0.7616134639876883 -0.935596415367479
Ni 2.6310178169522196 0.19489746431533028 4.395011878820544 0.4430802646669273 -0.30683339438532964 0.35295872798848243
Ni 7.638096274378922 7.602083149813794 1.681042122812169 -0.8728483856059805 2.053926274613869 -0.1495034781811877
Ni 5.195666759197477 6.313373535227979 11.558886523345025 -1.6230615781765274 -2.435224472976993 1.1080094511569887
Ni 2.1833895086182897 7.341203123413935 6.811138264664677 -1.3073766469378387 -0.26097082752526024 -1.5318254682776649
Ni 5.491552934132429 5.860838507329507 6.2845181793709 -0.6063095770746396 1.1385001635466778 1.362888306851898
Ni 2.898772743338965 8.776546756628179 8.432410867497644 1.1120437691273621 1.0838367105655269 -0.6023845309886205
Ni 5.00569615396729 4.3234698936174585 4.60245809533564 0.8564084948824024 0.5171470618753545 0.6027743102278715
Ni 5.906207354646431 1.3283753158417142 6.759675381500523 -0.6419540657511267 0.5625913102510827 0.26996506060407055
Ni 1.2451990957606869 7.611878280287787 9.550925970650438 0.9521337509008698 -0.5533993593391695 -0.36758084877703145
P 5.326738420998066 7.983864380110873 2.313802974268337 0.8631504415919262 0.5347640036261693 0.5771144435679222
Ni 1.5063995236246488 0.3811221187137813 12.284671820455978 -0.010891707211839305 -1.7760733266212896 0.16087418191197456
P 1.2578229134463281 8.42647611694971 3.009268223114887 -0.621903831968471 -1.625348317328175 0.1058065515138694
Ni 2.6949241775493635 3.3479115157179495 9.477075264040304 -0.6065767146930973 -0.8183718518246551 0.5789759222566931
P 8.403443828844507 2.5658023875160274 10.686149552439804 -0.14093476267557017 -1.1612086608877874 -1.1880725751581669
P 6.9776939308982495 2.7663096237514164 1.4543699875854093 -0.03737149866992273 -0.4361711962519198 0.3977673996627408
P 2.011553626256308 2.0063631225378464 0.2421630882997416 -0.04376403245982785 0.6593005274493743 1.0936025317030391
Ni 4.674318651137319 2.613423199409215 10.329809113825224 0.6569808781772621 0.17697031614288877 1.332842395309111
Ni 5.434173609075431 8.392980432459673 7.660629651632879 -1.4532836660170196 -1.8730188282001032 -1.4014772228686896
Ni 7.4258623445573795 0.6756012735049454 2.9973163330711063 -0.6145898148055609 -0.17615039134475471 -1.5023966214935867
Ni 3.0911509367136945 4.116344078566464 1.1319591485865377 -0.2070717635139595 -0.22693353543489306 -0.16949226259828876
Ni 0.04633279800749553 0.33237532453246155 10.087982904779167 0.8888272775327402 1.534834430307318 1.2275192111895634
Ni 0.6322591943066586 1.1051561929652258 6.102033983207659 1.9732969936965759 -1.5201778567364077 0.6719675813940814
Ni 3.044070230145708 5.155634884839747 5.586160163019881 0.4716583334149361 0.6253586232862907 1.4348367721657418
Ni 5.905456699787676 6.7138570567011 9.573033671673516 -0.03151555410977798 2.3799961486313075 -2.6841753932232413
Ni 5.3820671766848065 6.990180433670703 0.33132074599918676 1.0167080352378297 1.1085789505072132 0.18687189152731687
Ni 1.915762742817185 2.6850558124550044 4.993392737745751 0.7538821567817017 0.2205947377010588 -0.28911258006679885
Ni 3.1191357160211677 7.875001116936365 12.928204569135273 -0.6625899968339233 -1.3279971514016677 0.2286358628379804
Ni 6.943987696874658 7.441497936005585 4.332562887168689 -0.38576214767174855 0.728295823672165 -0.7794196389311738
Ni 2.978534399245414 5.445460894939388 10.980255210667101 -0.3432301878468089 -0.285649818329179 -0.395886380589944
Ni 1.0123587746335756 4.847372059062891 13.028906749302713 1.738396380895806 1.350227680665094 0.6177502148114135
Ni 7.407306522622068 6.086474372678083 12.466071228805044 0.07773421875768548 1.2185290918758112 -0.44000265418286805
Ni 4.197854211034159 1.912833358002533 0.6298360438052887 -0.8649764390570717 0.3024280662287824 0.17669777920779248
Ni 1.941422322928028 5.240422266568833 8.455831299090788 0.5933810419384298 1.4281485615122886 -0.9103484394339677
Ni 8.173468812239228 5.509532033432356 1.1175749537138415 0.7537857404131535 -1.3942418814625148 0.23060609919047384
Ni 3.718268145237884 6.663654724440001 1.949771985082541 -1.700364622934065 -0.9943875173637584 0.19914993756372157
Ni 1.2175438722448622 1.471887708777029 8.5620663548269 0.8151780274777057 0.5565332769824609 -1.190558317694498
Ni 4.8871659209044305 3.4437298621397097 2.5401400611069205 0.6579152170660734 -0.7165559095274175 -0.6495311067674361
Ni 5.2027888260281 0.3418994869110991 9.703010475899626 -0.3866496924830244 -0.015237899995676983 -0.33267915180383995
Ni 2.8949096171146427 4.4601623125311605 3.471240447280311 1.385370547114814 -0.1049172069303806 -0.2592335331191794
Ni 5.611712637498439 4.606292843144571 0.4651185665429114 0.2868721207720544 -0.8336760862818934 -0.5995766292261803
Ni 6.701233239015459 2.443070318109651 9.131519538707417 0.5210913912350832 0.3380028780095985 -0.011693634287844378
P 6.010108972291122 8.221803661680987 11.455800556284663 0.14881647941649212 0.19322997253486077 0.4860140879159759
Ni 8.95383861820745 6.454121321244465 3.2693820322991636 -0.16214224999112076 0.18992379097976325 0.9460250668999707
P 0.7435767326961923 7.418584654158479 11.684174481002186 0.5598217179257455 0.046075968422456134 1.2665650122381154
Ni 0.6998758038581107 4.067112105025218 3.477484614099293 -1.674862879118535 -0.9251122280067036 0.8843736126367608
P 6.783567260962274 5.301252773110593 8.129569234493403 0.08880461763923415 0.7563056786215298 -0.6206493907360795
P 3.9929437432492456 1.8662836024322023 8.320133040148557 1.299019533222395 0.5166888912920133 3.3972685410130397
P 3.3910650157687927 5.756955198339908 13.146985674017564 0.23736244407770085 -0.36948835021238946 0.21519799216551969
Ni 0.7513707271686759 5.634763234258733 5.673771654796843 -1.501559213193956 0.3297128700866644 -0.2276848117786208
