# total energy = -340856.6393402737 ev
CRYSTAL
PRIMVEC
9.31616877345278 0.00000000000000 0.00000000000000

0.00000000000000 9.31616877345278 0.00000000000000

0.00000000000000 0.00000000000000 13.63515469271933

PRIMCOORD
 96 1
Ni 1.266188475459696 1.1569004970792782 3.0777678421936017 1.2868559012766678 -2.8242002424900328 1.3477666207191112
Ni 0.38794297731817495 8.088623979977994 3.434900385439684 -0.27499490971849416 -0.3034187122768258 -1.9622003695627819
Ni 6.986623666736052 8.140887687992157 7.135563123556733 1.0990085332099588 0.12862792028375913 -0.4766591290636372
Ni 6.530280445102229 8.056660204185375 2.4738397347097325 0.8638667509326606 3.466309859982417 -1.1543970372825925
Ni 4.017523346068368 4.9992519176948305 7.133558283990843 1.032532403864596 6.206691110973265 0.30667912819565246
Ni 1.3548690880420158 5.4713767295917535 12.938302941361062 1.2924647628230128 -0.5169794259492387 1.0491538144713608
Ni 0.21081279314439988 7.4893055129086346 12.805128305699306 0.862647533813579 -1.0573576904383921 1.2543221903150203
Ni 1.4695418120966197 2.2438738297460246 6.931321956015398 -0.9583172540037624 1.4999234773627457 2.5669562289970567
Ni 8.651003837015951 4.773073967041026 8.814772771629315 1.6480308465273552 0.723346964307322 -0.30601501224909233
Ni 5.159229171530695 7.3594194848991075 0.27455308973300946 -0.6178098644047554 0.4552207566842031 0.7422934235028378
Ni 1.1301258274121297 5.849669087456832 3.461488731727103 -1.302952549728214 -1.821685982254082 0.1547097049724755
Ni 8.612425581242931 2.0551561945868633 0.5655454912595645 -0.10619118854679775 1.1849548554647915 0.589170603401508
Ni 1.1977612142539873 4.1268206406177725 1.2811698068068573 -0.4498296675756188 0.14306415031374717 -1.0710385303595942
Ni 5.3054650761115 7.956362328876912 9.981465493930283 0.8589263762082497 1.6393523449167509 0.04453664895979426
Ni 0.7838727063084606 8.668900197638983 10.937698505891442 1.1083974306240265 0.5828053233051124 -0.3173975430544211
Ni 3.1694911155669065 7.795211237748751 11.184440036349105 0.0017570919004227803 2.907390342155967 1.0925499220688086
Ni 0.4064588631788074 1.0180802630117136 5.404170818140172 -0.7838612196422952 -0.6297210140200444 0.049474452581043826
Ni 4.970036411753223 2.082452569717255 4.891434962397378 1.6004731513530501 -0.2860462824366493 0.018583933649774446
Ni 9.086776957527624 5.637092743523291 11.45715690917488 0.6018109178733377 0.014158807998885291 -2.3310634274863467
Ni 6.352350933629414 5.635695318175318 6.650192582594831 1.6758753795434493 0.04380259900724714 -0.6063509718355364
Ni 8.035111905319642 0.21550721069668805 10.136619767081847 -0.7809527877462485 -1.6047352690635137 -2.245547250790397
Ni 3.8429662877686597 0.019083240551909245 3.94715925333037 -0.5006269527331442 -1.1638268152369247 0.8948084348168396
Ni 6.352742212726847 0.09894796242232146 0.27910776475050036 0.35697016314072066 1.449307454978091 -0.7514830604219058
Ni 5.345002897290128 6.439075150724573 3.0225052593826907 -0.7550419814177577 -1.1723888458743228 0.1187674825499116
P 7.948955974532659 7.4185771579632656 10.935053645516179 0.061011763796682016 1.160516777027085 -0.12498800953832667
P 1.1419200973490156 3.544848880201243 10.024470793205682 -2.3367910739987434 -0.9044421012518616 0.496031620052978
P 5.230721452332957 7.111227426930246 7.854980983115321 -2.0093333184948428 0.14637598829579954 -0.25868460259424486
P 6.928593250119257 6.670041612237429 4.541556919941069 -0.5183624223396944 1.4290836717320485 -0.08319189943814706
P 5.914490991264771 -0.10095373360511098 5.038625774299296 -2.617447809988705 1.2348411987722734 -0.5527542695560028
P 8.75488843738421 6.025968269357012 6.843566439013435 -1.9475301691451168 0.7308718119294574 0.5775515311053407
P 8.638473589729134 0.58690560351177 2.3280258525840156 -1.6661077586337243 -0.2794105222876865 1.1000889107583312
P 1.6026326022374984 6.609104550896852 10.410808594607484 -0.581488918486534 -0.04602248947670138 -0.43318048905471207
Ni 3.841410487547917 6.316250778806798 9.7334960924002 0.2325429112018705 -3.746500712079554 -1.167392678211312
Ni 8.405625262081008 0.09737911956499794 12.54637450695047 -1.2488490830155912 -0.8785963438333514 0.052906875301360505
Ni 8.885622236771509 2.4083414770333738 3.7042084720333044 -1.0265211646735095 1.7466074559516889 0.5430789512497679
Ni 3.1098676340534235 3.825824536833533 10.95470144590867 -0.31352134792846653 0.7590130502503638 0.8904817824170278
Ni 4.936982644189186 2.68445409345472 12.349550873156172 -0.7939054912521747 0.3958241598934409 -0.1820896396473251
Ni 2.412859818991817 3.930556908579561 8.422721363788101 -2.2487192207604756 1.2812886916015354 1.428275059787824
Ni 4.8667480462001 4.641464447768998 4.864259697463811 -0.6594910461936255 0.538894223744459 -0.8896268906159003
Ni 6.757734710907182 6.231697229085489 9.17396418822141 0.14291579766134094 -0.1549015092683074 0.63625830091793
Ni 0.5058148738027367 0.06125194785232029 0.6828947506639848 0.8511094512669923 -2.4487474471640924 0.45906558435159
Ni 5.105707780703357 0.7055852118474599 2.23741958787219 -1.0497125151883082 0.23403929324173886 -0.6354897981830218
Ni 6.772454257905823 1.475541424923914 3.314092964107482 1.394051876938896 0.1278028532793025 0.6146294097942447
Ni 4.52245970513568 0.026391775121804188 6.635984493273548 0.9549043716674716 0.9063778848219938 -0.38979003788421906
Ni 1.342711487514657 5.4034898061872605 7.0871032073397515 1.1057623069940248 0.471516151410117 -0.8960484778715277
Ni 3.642789764756126 5.842570166689132 12.58313424653733 1.7945754991905352 -0.04636727441062982 -2.3019004327691452
Ni 7.711477510898253 8.72549592423186 4.326775438808428 1.6509449348503566 -0.20447392087979624 0.8971540522308807
Ni 0.8175991012733219 3.8154183760756335 5.24335790394622 1.0082979567972636 0.7014553064405532 -0.8318603732293933
Ni 6.205658536768272 3.352646997841138 1.4706737266284773 1.9345173018252166 -2.139118749421813 0.8653425641472388
Ni 2.737025235045437 7.6148502061704635 13.490472277189836 -1.8266171010071122 2.5506508069688136 0.033593005464096985
Ni 6.155919510549446 2.122735684414802 10.365526423631792 0.0558854983137102 -0.08781268603961007 -0.6386856794125
Ni 1.9399990297449625 1.8076442169540161 1.06579302247598 1.4175545880465263 2.153737270665936 -0.5912310854749624
Ni 3.502246039426062 7.445696525882914 6.165353063265158 -0.6012789566292677 -2.2761140678336607 -0.3118575870727984
Ni 0.827335429481094 3.0675070136718907 12.120807249563489 1.0485547474347812 0.13015001335524037 0.5114926918030546
Ni 6.377402112034065 6.385870509642776 12.094463918520416 0.20230648091483225 1.3367679556157621 -2.035946807317313
Ni 5.987809241188383 2.641115275329607 7.682468823908145 -0.7770372547419262 0.49423673293608433 -1.6772748309941372
P 8.563962870175253 0.5153835109687522 7.710939036330834 0.3499173700589973 -0.28131339573735425 0.13739872449785367
P 1.8293881553684646 0.8927572945717637 12.796074852678242 0.09617622751295694 -0.433966218180801 -1.1824315748223055
P 4.860776381879766 4.500585340355421 2.5767992394976327 -0.38243462596041233 1.9986868945245901 0.7235151144540701
P 6.511070504652104 3.424558506247791 5.69746338178949 -2.7277789888458055 0.6629327248853228 -2.159486514444887
P 0.5746287560213843 6.439773863398559 1.537268497394545 -0.7109300787002079 0.8530660607727307 -2.355071617475486
P 8.736386525777057 4.01762582392722 2.3230351808579575 -1.659305905220542 0.5649117308541433 0.0891990248641754
P 1.8656560012328378 8.662434776362364 4.705150710577486 1.675870751557759 0.925825194913328 1.0765044385701719
P 3.5645339452696794 7.947456071325836 1.8298651432205721 1.491992138330811 1.093338736518691 0.09508607977257173
Ni 7.557825935804209 6.100572150600758 2.0627395561418598 1.4454369162790912 -2.7338887012879693 1.4421834423388
Ni 8.297939664766266 2.473498762924827 8.917746250670694 0.1601748418521048 -1.2012808463183249 0.21984988911523431
Ni 7.630724958123428 4.802848443121821 4.23094746137968 1.0305899354262444 -2.2131212690512077 0.11335428195414027
Ni 2.242569566087917 7.24083396987018 8.320130779292066 -0.6072593425824186 0.6343870520371462 -0.019423141721618162
Ni 8.11821213267906 4.8877653234336025 13.600849315724773 0.9198170410460351 -0.5931833241053268 0.24221874372873767
Ni 3.8603968399423674 0.5205456002041617 0.3647093834827881 -0.5619850441256515 -0.4143124485056155 -1.5254316489361794
Ni 8.242937003070077 1.9089482385130188 11.446917507841839 -0.2823559780692556 3.431792800042154 0.644209951664839
Ni 0.3185300654336966 7.999486875115336 6.0879058872467375 -0.8968951421425392 -0.6957433436574404 1.072271631435747
Ni 7.1864834400030455 1.2771908710327309 6.108535611850403 -0.12567218008954484 -1.6288840983955755 -0.28773009789697546
Ni 8.277742210403574 3.1776054987541325 6.432111314407178 3.766312604599159 1.252773357770662 1.8069288785495656
Ni 1.0233252661511028 0.958121399414717 9.021836738373555 0.03813665897072142 -0.036752119918368964 -0.1270032401961426
Ni 4.094577379755559 2.749043093037998 9.115768875413554 1.7074120166991498 -1.8944952529063244 0.40293043192091904
Ni 2.0964640878729237 3.214106248843168 3.142207783073096 1.1943902898460785 0.9302973717520688 0.968173835082868
Ni 2.968690409232279 1.368871290028698 10.96187396441136 -0.7151382032442846 -0.045724755730624476 0.4359624226752234
Ni 2.8344350979680897 1.8209570224356983 5.275291867998082 -0.9510099217090717 0.0013179474804751496 -0.782605235748007
Ni 5.7834404421319325 4.960533919387012 13.639926918155469 -1.5670565235658171 -0.12182658109120953 0.2846614862739807
Ni 2.780652854409131 5.906562931457276 1.336322458823728 0.5949728119055817 -0.381995995761097 1.5866136197621383
Ni 3.420990413525968 4.039658563580249 0.10184529097711728 -0.3294076801414198 -2.6575238520739846 0.779570048466109
Ni 2.243743403380214 9.347657637656072 6.918272798116033 -0.565081166552472 -0.3910920445250942 0.6278528504630543
Ni 7.608068035148305 7.47547100196371 0.4158542196016743 0.14984749178416773 0.32542581267553633 -1.4271797698411164
Ni 7.329645008818311 4.378170879873051 11.120328024617937 -1.4895642456156089 -1.762527983836687 -0.22754777198012424
Ni 5.7967905122895615 0.5526211700246185 8.393119236833556 1.464187457413717 -0.6279232986896733 1.648925847537799
Ni 9.026827410099612 7.3088885843164295 8.879471702006633 0.47182802622358094 0.36998894399789184 -0.1474962179431718
Ni 3.2689691680045585 6.805079481696482 3.6880234916530896 -0.6759245091593005 1.7679645814712261 0.20766851655769397
P 3.9077881915765995 0.43900303629928417 9.273009970418089 -0.9160891985724868 -0.16467607215656802 -0.46421421843206506
P 4.120588123565816 2.6848640048901253 2.104367925641055 -2.3282917782784804 -3.123906281801962 -0.991467772613802
P 5.330506938347162 8.809816569728508 11.972361549699091 -0.11374020453864929 -0.2948230001880148 1.6761206627850358
P 6.612244099845296 4.045527750041733 8.953892986338245 0.6347297800885456 0.45062748088656585 1.6872419695091778
P 3.6198254082044485 3.1994798635343913 6.9334758542850725 -0.402584618545726 -6.741111615217087 -2.3252504203489957
P 6.837499749769439 2.5491274227570857 13.15986100381447 0.7816184463547055 0.05614723661552911 -1.3685334209528173
P 5.069905743288309 4.680927739595735 10.755696896954635 0.2541928853714784 0.3898969957757285 1.107906607030537
P 2.49335151903502 5.482667926403369 5.073900516549711 0.38964168523181286 -1.6514468141874399 2.202946899621367
