# total energy = -381163.5303652731 ev
CRYSTAL
PRIMVEC
9.30273775975098 0.00000000000000 0.00000000000000

0.00000000000000 9.30273775975098 0.00000000000000

0.00000000000000 0.00000000000000 13.61549704654657

PRIMCOORD
 96 1
Ni 3.142632325332675 5.2438231383096054 10.49541034170373 -0.00516200381691369 -0.34028396073429135 0.7319161940335718
Ni 1.0480557590309114 8.44109044356247 9.383922933756795 1.3167359766655518 -0.02432674967082262 -0.3972338957567739
Ni 8.20952669076605 8.29819108606987 12.832497192535625 -0.422093378002615 -0.8652381773588905 -0.2661418302032384
Ni 1.0283432573365674 8.057771126754803 0.30418092515415934 -0.7305529951374579 0.40592756687603 -0.8409265971967196
Ni 4.436875741201304 3.17338717696151 5.787063032218246 1.2447381461710112 0.29994386635434794 -0.8543438990438899
Ni 5.771576764369933 2.522511814268504 13.591533628706593 1.3102197728135887 -0.23127201490924684 -0.25061185288843935
Ni 0.6476845235796697 8.218364291808818 5.095954258209587 0.2688749128636853 0.22665868450695156 -0.47610145678795424
Ni 2.9291996087808405 4.813627325023503 4.402353280706866 0.0731486562695321 1.5746716169089139 0.39306459487043277
Ni 8.9321075574987 1.3488132766232406 3.4698003159359727 -0.5537032637328335 -1.0486179965725488 0.3277128089375001
Ni 2.2536440823336603 6.225066633457185 13.039003090417516 -0.23611494482384496 -0.36825679179813353 0.6713895974034244
Ni 2.169361276599466 8.760686005482805 7.197219493090035 0.8801739727331164 0.12282751155189815 -0.13389739621281457
Ni 2.0663799676063612 6.047635512732208 7.3220333977539545 -0.9130714947920856 -0.42619300199328536 -0.14563422503376855
Ni 4.019554917223825 4.9372421067669885 7.823614700894571 0.4907996822300773 0.4666354262790479 0.4695909093629461
Ni 5.71819765407161 8.678468407571238 5.680644361556401 -0.2701967169989024 -0.11253564270758684 -0.6628139399192714
Ni 7.699829679046789 5.127399372993551 2.072387675767856 -0.6166109590006477 -1.7717266196168198 -1.1836903869300712
Ni 7.357684280360483 5.853571096570947 10.966588436709635 0.21806014420466316 -1.1449556893640345 -0.48217208846206644
Ni 4.462569903390911 0.4861936443144659 7.45640493537718 -0.24681150530574272 1.1133889703013469 0.5747318022683586
Ni 1.9833716369699135 3.2055281365433688 5.919650304704626 0.23356723870132678 1.0559368988314652 0.1291112876780809
Ni 6.800189801106753 1.8184247905600903 5.808643523690893 0.7691316267416044 -1.5627681806031084 -0.09392445536430276
Ni 3.5789307347072565 2.8252043013523025 3.4081222331215923 0.22449998629273596 0.6190370519436372 -0.24883033550798433
Ni 5.298513934657433 5.961399132030666 5.781086023091952 -3.2000885826914955 0.6834763533646293 -2.0184021135653305
Ni 3.470004976170647 5.729072554723185 2.131833101476694 0.9001465592003014 -0.5325384567297603 0.012841888959674658
Ni 3.960631375113407 3.087141493522027 12.559928831448346 -0.23259561881667687 0.21068030680082428 -2.735494869432824
Ni 0.15219372296821096 7.474573182573525 7.246998443805672 -0.9872136253231384 0.5247914657944898 -0.3010520118168622
P 8.820902628166849 0.44238705135615236 6.61931015542751 -0.02576656744114272 -1.7911312493956768 0.5095646215424062
Ni 4.029499544081425 7.727644865486662 4.030500518683743 -0.3881095648580026 -0.3686162320200813 -0.15153310701670678
P 5.183792570384356 4.696970991258956 11.39531348712746 0.08465357158533808 0.3804415067897835 -0.0014105071942814417
Ni 2.726520857287365 0.8556667659726005 2.8768186822634534 -1.0516351861323179 -1.9180846101904898 -1.4339865083503047
P 2.843512089617743 6.7680023278351955 5.538552481716971 -0.35796749405698347 0.41526401378560746 -0.5416141937787834
P 5.700206158896121 2.4025902194871023 7.418948391336544 -1.971889828936404 0.7768256529517525 1.9627076482165038
P 6.802375944522596 9.248233198167506 11.314055931771277 -1.5726160199314658 -0.013815308616537498 -0.6254774082523421
Ni 2.2520533141459618 2.9125570106066156 10.100030025157167 -1.6844217264515635 0.7774162353478997 -0.970870922299057
Ni 8.319336209406936 3.6396404025021076 12.003762783172414 -1.734147632921781 0.9964515989816388 2.213919853693103
Ni 5.558711514832424 4.247053373540571 1.627991233016716 -0.746846590091159 -0.15000664306985134 0.7411199720200269
Ni 3.2874201386270454 2.741870374887963 7.725637334639262 -0.4988652328470312 -1.183352286864362 1.1951143124962966
Ni 7.451790777359061 2.229047643220944 1.4441821551602427 0.2857130674669466 0.45778157543284387 0.6466985224146474
Ni 5.988246833724802 7.2717176790591935 12.317177606005576 -0.7789175024837747 0.6898128371056185 -0.22851759209256128
Ni 8.892570921254734 6.2110381046440315 12.990273488541483 -0.7716199403810969 1.1855868326218355 0.3540339633305323
Ni 3.4371663112433066 0.5602518107790737 4.967559729712655 -0.2508324535396777 0.47320382352518503 2.134250365585918
Ni 0.27541220807546224 6.193893158621061 9.143827639995825 -1.7137883525391386 2.0766903077832626 -0.6125159629956677
Ni 2.3896129000611417 3.092667319858242 0.4587031234286914 -1.1661096977338303 0.8833711395141755 0.3796004989457269
Ni 8.217815430270374 7.893512682952521 10.353877556414481 -0.847306018360502 -0.24663409918761398 -0.26569085870874887
Ni 3.232533984782482 7.868860427412165 11.221892776728314 -1.6419928678633913 -0.755672415912905 1.768097764614981
Ni 5.630128633995935 6.768551189373642 1.1339860796542367 -0.28159158909940535 1.173626832046482 0.6298734804375088
Ni 1.0406042659411665 2.541721968114101 2.2563325735982502 0.5128641182292846 0.9102042005466194 -1.7845260853743332
Ni 2.4691513094460604 7.836031065222764 1.9420600383270428 0.5002050347043773 0.25353931094787946 0.7315953203590433
Ni 6.255486586520189 2.241922632529567 11.234418913364197 0.3482476956660583 -1.8670829223316427 2.231550936511305
Ni 4.873043912244729 8.797645783317458 10.155309684816583 0.9597452446995405 0.6924515602800462 -1.433132130769809
Ni 8.904869140811092 4.103456310702489 9.797998032467092 -1.2113965945960878 -0.5312696173196657 0.07625763421215899
Ni 1.2801125569381384 4.94825654848766 2.4245111911683446 0.6428616651670606 -0.6842343145765765 -1.469498070993353
Ni 4.74114969373486 1.4768654643639894 1.7809068484490522 0.6011141489166293 1.0283867571273386 -1.528674324243193
Ni 5.23177609267762 6.432833982603707 9.720076438936102 0.6223368057408314 -0.9092467217293566 0.3835054904270879
Ni 7.951431529365444 7.411751793266348 1.4063041970909358 0.747326615051371 0.4985564433573607 0.7562313737401686
Ni 9.208584929068264 2.3191260546916066 5.836541504498428 -1.3102138592763177 0.175205253822666 0.48315604964189046
Ni 6.262258979740331 6.923292932263552 3.621586578982422 0.5623455127888638 -0.1164303497763027 -0.3448823787382512
Ni 0.7248386412306285 2.0684172672151675 8.157616482788415 1.2364522520131351 0.5721419300539953 -0.19903500925241205
P 1.3657721678874166 4.562276648629221 8.817749930279067 2.9855117690497424 -2.8580526722631037 -0.7966545147522216
Ni 8.558695656596873 0.37448450658628146 8.88708044532269 1.129468649472029 1.5078270484805385 0.37403406060154293
P 0.938488111576459 1.367251303219838 12.701243932669806 -0.28285811451665477 1.7435373016667974 2.3313642465562174
Ni 6.496129811545811 9.283378942103907 0.4048905055423757 -1.0137389253071767 0.12042532986830873 1.6447460051284966
P 5.1679407049350115 4.226745496618083 3.887741632534033 0.19430983586260084 0.6695697705858662 -0.4060926316989845
P 3.7308909589531796 7.928090959874595 13.366047354606215 0.037395152819006565 -0.5064852112861341 0.4953867873801275
P 5.096384044702404 8.8258516847508 2.4642143464214317 0.7698456220894935 -1.6516725570450008 -0.2943113506589189
Ni 6.36545425170605 4.889733024108652 7.326240095850312 0.6117878265803915 -1.1755654438300915 1.8051471040587943
Ni 4.406986044200865 2.4747608604237334 9.795792353301577 0.7556857856493437 -1.0299741562191165 0.05219210862252301
Ni 8.665974830518145 4.430512668450509 7.398361432275863 1.720243107025547 1.2535788843910927 -0.9542274002051051
Ni 6.3657705447960025 3.839974864034765 9.874639569257571 0.5013561175896849 1.8806354642050966 -2.379798945018837
Ni 9.169764603645659 3.740193696892936 4.019893536884832 0.5600893697648354 0.7451766585879038 -0.4259351203462084
Ni 7.201835511655743 8.428968976026967 7.70409777521355 -1.004792000526534 0.7470075411490553 -0.7724406365101794
Ni 9.10021733480804 0.5999698504128643 1.2282107214246487 0.4570153866907807 -0.7831420820880836 -0.721987364955634
Ni 2.9984584927423277 0.7693745688434188 0.38145597839833495 -1.3224278848440065 -0.689150006710639 -0.2747861361417977
Ni 2.664471595229189 1.1260592166557701 11.519799935415902 0.6343744536316558 -0.17367699010359766 -0.8090716574696516
Ni 4.411665321384564 5.467349325526075 13.24282793922517 0.33336152258284524 -0.55314430590557 0.1675870751557759
Ni 7.104147460550358 2.6975149203912037 3.768892643437085 -0.7124562855367472 -0.43446064131871626 -2.5532885017019766
Ni 6.392739182083357 1.0443346638550088 9.151493096058184 -1.422404202829344 -0.6362588151385623 0.4924549584453132
Ni 7.651706615684429 9.047163820337609 4.316031314816278 -0.3498217250213975 -1.2214089845267675 0.42999694912040787
Ni 5.006984733101343 7.608709360926873 7.633201609374664 -0.7882048413229715 -1.3738720595569114 0.5137532057024572
Ni 7.3645403982220845 6.839698529136899 5.984569461417217 1.2142070674616894 -0.41148192103535586 -0.5347262084096984
Ni 9.141800573398752 2.085748267996934 10.757087057211143 1.2749347243590494 -2.3200555064116175 -1.2416026858658231
Ni 2.989323204085487 7.082881401620075 9.086519983465543 0.5447689373576812 0.47796190703546076 -0.7468537891800106
Ni 0.7177992594316147 6.5544672811660245 11.277988286505044 2.0456352382496705 0.8433097527169153 -1.3724353271103849
Ni 0.646139338807876 5.597392299185932 5.380272907588572 0.6391909011836927 -0.070277248259008 1.4672149313861311
Ni 0.6626377445440342 9.032884117600082 11.512039591426557 0.37608271560045553 -0.908315468164339 0.06859446123994638
Ni 6.996514782587376 5.109072979252232 13.310714669340545 -1.9169810927136663 -0.38656767429217936 0.3840163686252354
Ni 9.021395236244482 6.070864449367781 3.4676225449842755 -0.966908080996567 3.2281069222812917 0.8131152314114061
Ni 7.708257959620209 2.5346704927557657 8.173791153244268 0.2836127332944922 0.5450095926135776 -0.30757412920609606
Ni 5.495983152904645 1.1005976229146563 3.880239904659413 -0.10094665231840681 -0.5791147618274026 1.150434967311051
Ni 4.7151950548829396 0.4949354271564551 12.364722969341877 1.078561835319833 -0.3515250808657494 0.22433929234515557
P 1.4769305835295674 2.031745874256648 4.258246427829686 1.4474624313495523 -0.3341822187119277 0.5211091318468961
Ni 7.039474826393171 4.436085008476424 5.011660289189865 0.5780423546988303 2.0349618176962245 1.1293663195662098
P 7.308370466541834 6.4839246193688505 8.534153173364206 -0.019460422717456807 -0.7690655493903593 0.41469991375202125
Ni 7.958966747096647 1.161260777019809 12.612103237183472 0.5643070073906088 2.9223076255874316 0.8655317973399093
P 0.22522300661668174 4.6923847414546564 0.38102805245310617 1.484445950552437 -3.055609554308093 2.150905971864728
P 0.20835621245810915 8.213443143438687 2.894954369877009 0.029843308613677635 0.34271082500822914 -0.7874831326655987
P 2.5421684995352094 0.7498927750499806 9.238918366668427 0.588113108671271 0.5468543591318 -0.8393250570375544
Ni 1.2576836557653854 4.178548011352204 11.841016964559136 0.4476352310274614 -0.09256537023324704 0.8976029668428412
