# total energy = -340855.9505760656 ev
CRYSTAL
PRIMVEC
9.40025116424863 0.00000000000000 0.00000000000000

0.00000000000000 9.40025116424863 0.00000000000000

0.00000000000000 0.00000000000000 13.75821777082659

PRIMCOORD
 96 1
Ni 9.01099601733745 6.547068023967628 6.23000977767701 -1.4493506495112007 -1.120596800903696 1.0387233631666561
Ni 7.035016253471089 0.8122860301773626 1.2069518087935875 -1.1676361616806858 -0.9404421734955546 0.2999127560060964
Ni 9.505251815269608 5.474471182805698 1.1827640229159704 0.5207484060733677 0.4582019507997141 0.7702264024676799
Ni 8.943972227625657 3.0943464272031447 4.763411755645366 -0.3570953758646753 0.634462642470088 0.21412558503694734
Ni 5.898563507188234 8.80931363188633 13.096447569658975 -1.3052058645387652 0.5163114533479366 -0.12898016141685528
Ni 7.556833587368882 0.20027892797510774 3.5080843750965442 -1.4347143876552646 -1.5823664144500105 2.456754890849601
Ni 9.091198958967324 2.0008810287957486 11.767224815908978 -2.047212095818487 -0.34134299812642505 2.664856638289972
Ni 2.2196060693306667 5.423305616550259 2.423606556681216 -0.822642454175551 0.5658501835080126 1.5753611867767707
Ni 0.34418643068462335 4.48889246525696 10.504220250359086 -0.5350126293018657 -0.5402306831676954 -0.23217858588391627
Ni 8.410131972684193 1.997581540690722 2.5907411396149764 1.0854374793937434 2.669829666024531 -0.5148369256849391
Ni 3.732520068120931 7.229780054177767 1.4736980316206079 -0.05478763726384112 2.7212491581470872 1.4521860620774667
Ni 7.705047345066752 4.329313804086221 8.614680494668711 0.8860489434566546 1.960106720258547 1.6615746466500612
Ni 9.015094526778451 6.033964722757468 12.440331669635594 0.9007983338516873 -0.8441103942413398 0.7085263543547218
Ni 1.0641460155026166 1.0527623115277245 8.350109489925746 1.7215749384630932 0.9310566185155966 0.6013409202154547
Ni 1.162049629787092 3.2456904684878354 2.93421503127293 -0.9640940085865397 -0.08844749141013154 1.1908149137899944
Ni 8.319297347160344 2.274776142516993 9.643230579666188 0.28855747889427724 -0.5525568088332161 0.9109462209189666
Ni 3.391685766946999 1.3459279398224853 7.945824434449482 0.3229912350921147 0.6706398637215935 0.25234914729452024
Ni 6.333823329772397 2.512564892103175 8.554708773265725 -0.1936277221939117 0.6540251379830477 -0.5946362545017695
Ni 7.267512661737813 3.7838830396476113 6.527668725955254 -1.630355026514147 0.17343144975169486 -1.929531675685167
Ni 0.282472842769212 5.309393374793248 4.22992307009173 1.19624508366663 0.28947330584032727 -0.45072698257890764
Ni 7.363526825568981 5.15256898716887 4.165314204864786 0.6283914965753435 3.324767545629835 1.5458626630970216
Ni 4.599354814892761 0.40000888129114553 6.290669597454036 -1.5543264775936587 1.1722057833292394 -1.281927610737115
Ni 8.14582511499465 7.1279377347194846 9.088471946148896 2.398254066400231 -2.2467438422016595 -1.8085445597761176
Ni 9.399395588629428 3.617244789967257 13.566620864524847 -0.8163957019348909 -1.6408744379882323 -0.1386675639079483
P 8.702357575877807 0.13134500725778514 8.922025461589175 -0.8590099370609917 -0.5982291140593503 -0.08561310728512997
P 3.9746517336744134 4.81917028454501 9.170525797202929 -0.004572449862030835 -0.016567931661010178 2.0461818547817603
P 1.8698603301978594 2.663175713808971 7.084394832009247 -0.430923060479103 0.252190767339785 -1.439289665730773
P 6.822664583121949 8.39995150083877 9.7879540241635 -2.8437164581460896 2.203523083839811 1.5902188206148937
P 4.982997859172936 6.851476352472108 12.931252258508882 0.011545024525122053 -0.5068641918921077 0.33137894493517767
P 0.9731045844565153 1.9770701929836916 1.1412196135707722 -4.4977536587685245 -2.637070212205323 -0.44326486987390756
P 6.91932736427291 6.2689427972912215 7.1422204761063135 0.11642546468029627 -0.6462827750334676 0.2433765114822647
P 2.0383034280724166 9.005788278277095 4.42080456713067 1.5506410583222712 -0.32967918863525164 -0.26236667943152236
Ni 4.0981710319651485 7.386519839543042 5.915469858632365 0.013614505459641069 1.4354371247539022 0.6892896176122968
Ni 3.870318347698092 4.113051629316308 12.707695488954066 -0.30246303323177587 -1.4544190651730435 -1.058359649340345
Ni 9.20686904766348 -0.17637408965293577 1.9667092363188476 -0.20673597744109554 2.5264623826480683 -1.2125294226489507
Ni 2.345578833135396 8.796576291765785 7.096749581913624 -2.584913841916742 -0.4881532457461657 -2.341216199649632
Ni 3.1250100460025645 1.4187234836553204 4.270275527608674 0.5470243090507612 0.9395592566699689 0.5829860718573509
Ni 5.498385421378882 6.672645977229876 8.884878489667143 3.1400710644872825 1.2444707514422375 -0.26697306785528213
Ni 0.48142727537680335 0.9356060431466545 4.92504249161191 -0.469584738715359 0.45324023591906454 0.2454349366731902
Ni 5.7223276012251665 0.42004739637229926 8.375823876567626 -0.8668705707559909 -1.8427564297711359 0.22588632511730128
Ni 6.437780705708261 3.3528157290145644 3.536054821981178 -0.6629409524154389 -0.9494160948593907 0.4136406192495715
Ni 7.088447280220293 7.02160209527772 11.495142070582743 -1.5553214945170761 0.6169637143543761 0.38013014619695173
Ni 6.500376977193649 8.808063398501803 6.3686785204978325 2.3221584116872327 -1.365545541969087 -1.124029994954961
Ni 6.010736702508122 7.822719687228352 1.6233594279742452 0.5750071674169323 1.7007857696318835 -0.18822969110679197
Ni 3.331759166748868 6.9177763228560165 9.405530192439514 -2.773969371358939 -0.684919256458743 0.38797175372855763
Ni 2.3987466528562784 3.2445530381154475 1.0245183173386574 4.077653142826222 2.3130677622398745 -1.0492335186693607
Ni 1.174072550830764 8.343625196778033 9.345283043681892 -0.3438138282644208 -1.956683810619927 -0.5525043583287259
Ni 5.966865731037585 3.153746613344633 11.642313340443444 1.7795402021239675 0.9253775658529483 1.3922294790181764
Ni 7.120191927886031 5.813792043566784 0.4020148948569936 0.6394462117276084 1.6719768158199915 -0.09130630101516533
Ni 0.28707614568952955 7.920228490970346 4.459560862025866 -0.19445330341900058 -0.19820608559321348 0.15079545751973386
Ni 4.490528108932956 2.877482636368498 9.902339098546387 -1.1430085929399927 -0.3818898092005359 -0.3202584095419839
Ni 2.801979820244359 0.4374782818228708 9.963742478178421 0.7230461452374515 0.5057177369924903 2.0134614817306034
Ni 5.087086838622959 5.660135540533272 10.978823883526664 0.5453152967794545 -1.0434256537383322 0.8894250590177392
Ni 6.00535035867855 3.9037926415499413 0.4570035431987982 1.6704493234318716 -0.28475995952505795 -1.5440230387851215
Ni 8.800242389660259 2.1870906010819873 7.436605316957262 -1.7936771557459819 -0.7686372036036891 -2.234983102121306
Ni 8.94545746728547 8.73623608052315 6.796669128974825 0.26288835626294726 1.5546180406921484 0.7000982781920265
P 6.830983805267101 7.567662676534097 4.495992474845925 -0.0724788838960171 -0.13575270425399846 -1.1218620407693647
P 1.1809441343201494 2.0380308207930837 10.483638400769468 2.1623427529467603 0.8559719215656161 -1.8814129658010696
P 7.573227625132889 4.905436388077284 11.072792552737736 -0.008923013521242697 -0.43127992959788947 -0.4669663272559055
P 3.467602194115642 6.5040148743350885 4.055578494632171 -0.6890201660009939 -0.30074425076845623 -1.5959744921517482
P 7.330879753806142 1.9353988802498383 13.256249016778687 -0.34803763653778125 1.3411709697794645 -1.0956367885242484
P 1.9175008023239968 8.047019076613074 11.526070776460688 0.46067278093770986 0.10438344591409765 -1.4207021325365727
P 4.985413723682883 2.51201967754451 5.507895655327188 0.10235407418889468 -0.24341276403683884 -0.9017820379211953
P 4.019462730246098 9.322736541630878 1.297777034066425 2.4847542042760047 1.1425313961932582 2.2429962022337695
Ni 1.3609025396837595 7.657378672187581 1.926274056593003 0.9175189890404779 -1.3743446283179557 -0.04184007596423762
Ni 4.3069412066789186 3.39162936544093 7.40087496286266 -0.011013063281052001 -1.4238777020510767 -0.7710072464977625
Ni 4.332575691187201 5.5434032234728186 7.308805144355904 -0.2395154858649617 2.048975872587129 -0.9042621240305716
Ni 4.918079725687714 1.8818456502374854 0.26833204517265546 -0.9540119417601892 -1.3635398243929677 -0.43531810422300515
Ni 2.7162777317727733 5.475035197866387 11.034943382065146 -1.568369585950286 -0.9920789238352398 0.7108390616482984
Ni 4.757843046946171 5.304420642008179 5.134167995813914 1.898265261471718 -2.2338189066098755 -1.050931989417706
Ni 1.9433232918525087 6.1721484126260995 6.226184815540442 0.26229597409458694 -0.2556154767506178 0.0223966225276453
Ni 6.104231599068218 1.0348548333508714 10.591818369459684 0.06601024545253793 -0.945844061237416 0.8288023031293597
Ni 2.625612310767131 4.216303986426311 4.439074894996566 0.12743647107881925 0.114687398943267 1.131811695782909
Ni 8.37453322210375 7.2717991761990435 2.683801744578342 -1.7987242312515863 -1.6462948376728552 0.6732173946407825
Ni 4.69350772902366 8.815122987011419 4.041517599169213 0.06435548345793432 -0.8363790870353531 -0.8026510986552886
Ni 2.01807408789573 1.6999319926634895 12.65728476285485 0.29357498671352666 0.6188912703943922 -0.20401240786234545
Ni 2.4928901667361654 6.776481149902589 13.18133559639297 0.13215598804167564 -1.2263179917926106 -0.017218934981447765
Ni 0.8218752262341645 8.736640291316643 13.362228386707118 0.2765123748042851 0.09907514632730678 0.2600696558672295
Ni 0.22037948471293717 4.2038016525810535 6.880167798609322 1.60324788588471 1.3137015607146019 0.09304333831093009
Ni 4.25335037566252 8.144255273075734 11.186009175919898 0.2824472522314813 0.0940715224651283 0.6983141897084102
Ni 5.695668489356633 5.757747747036391 2.4172773676751924 -0.408842940750612 -1.4685791587235095 1.1925552935198687
Ni 2.1512380437242347 3.644787525430868 8.967881766073337 -0.5228798505940737 -0.10581812147809518 0.8163851604119295
Ni 9.156981915545602 8.05587411306588 11.24556822630348 0.19940936187269528 0.52503186394007 -0.8014668485392004
Ni 2.991357277121463 9.034289839343876 13.315932150475621 2.3886201428548928 1.1595829523589063 -0.9039049978014692
Ni 3.8043473860995847 5.225373931252716 0.924973419227579 1.6646214038961846 -2.3938484811333676 -1.3706669223560521
Ni 8.134742219052125 9.292232727098654 12.971412950905192 -1.056057997790362 0.24761291816111547 0.03444378350016648
Ni 5.377836602407772 1.4862360864197084 3.0396031254127394 -1.4382439980750779 -1.0717754085256188 -1.1176042939342752
Ni 2.1017081211447914 0.569679651947801 2.2090054062650304 0.9904732699110168 -0.4705956964783766 0.4997741178145457
P 4.198462310006538 1.805694216793555 11.812173056145427 -0.4142965076660155 -0.41715763126389444 0.3962841302489949
P 4.800040773736666 3.5827082677511104 2.0354730124928624 -1.5918663835206455 -0.9918344119246015 1.3192847112293344
P 1.7140699701847426 4.760136708192969 13.264352973175676 0.8434426787503538 0.5845019942812449 -0.7630928767466921
P 8.758618078181463 7.500507283308145 0.5762259867521897 -0.6667361577918131 -0.2967040192608116 -0.431790807796037
P 1.0284156614080133 6.260717577656184 8.345831435690425 -0.4318633129051852 -0.47904768390047175 -0.4353343021729212
P 3.936261108543564 8.348908137846479 8.175724493386836 2.8618391358887294 2.062321697766416 -0.5603374812198995
P 7.66082856430879 1.4810283473593533 5.491757304390693 -0.16277576981006162 -0.40101753116892225 0.35540384709486533
P 7.866205248407419 4.365034757929813 2.2066534634619606 0.24361742384847718 0.15938242785779647 -0.5116996656075382
