# total energy = -340891.5361460347 ev
CRYSTAL
PRIMVEC
9.07203623915103 0.00000000000000 0.00000000000000

0.00000000000000 9.07203623915103 0.00000000000000

0.00000000000000 0.00000000000000 13.27784205147277

PRIMCOORD
 96 1
Ni 6.629463070706313 1.82978435274894 11.35470573117934 0.2425560724634984 0.07338185532626072 0.7461115116973472
Ni 4.58831841725411 0.3003896357097687 6.004970403715986 -1.1393383431772572 0.242897257853001 0.14716300297346913
Ni 2.764322023636798 2.0173577743877367 4.801878686749567 0.10982621419622375 -1.4010547906192903 0.919496681592139
Ni 3.444996903959825 4.426609370982511 5.078827995179866 -0.044561331550142615 0.4916170359250501 -0.8695846272530442
Ni 5.075867789749379 4.640283040931175 2.7502658106610216 -0.22725209511657637 -0.411116310165821 -0.18140649753737145
Ni 7.272597865000062 6.066026114925662 2.7906708457400926 -0.024597229723389895 0.1530253752915171 0.2023404194765612
Ni 5.361972597169709 4.347401422427263 11.771603899716466 -0.39176078845734463 -0.3374796585162768 -1.125379824114636
Ni 5.6818616676091365 8.035782915075695 12.531747096035303 0.13060664127668475 -0.4056275191371079 0.2620499195220519
Ni 1.902442291127017 6.589809200229277 0.2558894834645266 0.3135285470173181 0.07864516060772907 -0.036903043673936445
Ni 2.958273086763894 1.6534511840319108 0.4097675480395382 -0.22530062781716034 -0.00662213330220795 -0.0388290570520557
Ni 0.26295387809744064 0.1919316278564053 4.926305292821572 0.6074506326576183 -0.7887797399898351 -0.5618865708745743
Ni 8.833931592883765 2.4023387049673444 1.2095319555048873 -0.4919541075494947 0.9777820475965935 1.12428042040287
Ni 6.815721047087921 0.6781256381349587 4.994075218064662 -0.5506593347001871 -0.22976200602262362 -1.1370192081257773
Ni 1.140200732822058 7.41327793122916 2.447597279443627 -0.512321358351937 0.35461837507909244 0.004183441953728278
Ni 7.722607151466055 3.9236919690687793 3.8295024598395937 -0.029770546394213247 -0.32865100448105333 0.18933192303203522
Ni 7.704862248548397 4.080093874130341 12.846285479490664 0.2238780364380209 -0.557979008290052 -0.5301234195303645
Ni 7.92262740684873 -0.42387819323285336 6.9358665592504956 -0.50794456944048 0.442859921126005 0.6413310874551471
Ni 7.264088294991493 0.48534033166681945 0.7322612000881988 -0.756166324830188 0.4967980659053573 -1.0241714334944103
Ni 1.9368797407565812 5.876375196984133 9.308430841224103 -0.10535403735748305 0.9796340132036677 -1.477939516892487
Ni -0.009430381688601715 5.290221862417278 1.2720727590497478 0.5993442015004 -1.0362191086875638 0.41611016383598665
Ni 6.137141807140139 1.9264831872066652 7.024961212918048 0.8132545852027477 0.3387644387659714 0.5335987796734747
Ni 3.376911271855009 4.301859800419778 0.42593845266669794 -0.07378423297100196 0.23157257686880117 0.15369977565072238
Ni 5.882344596840891 5.497617683276465 4.955662402147512 -0.4629006418269641 1.5952571543697491 -1.0945723518154762
Ni 5.606727063333042 2.767043634513739 9.301035317267827 -0.2657353387934391 0.028685797970466727 -0.28621186148023614
P 0.4533568678446306 5.517821108019626 12.307431020354171 -1.2814290738341414 -0.18831042374605633 0.4996836149832684
P 4.155727440400541 6.01242852472243 12.57019982891198 -0.35965233795857415 1.4694481915920241 0.22882072515527688
P 2.621519100923686 8.690774860756651 1.3776821475185792 -0.17316508346418563 -0.04311765712508058 -0.4399610023116552
P 6.077846978167844 7.811676403432088 5.814460363940969 0.72700975787089 -0.669351226817157 0.9881950153998014
P 4.946382616260768 1.0697835873993293 12.511006606745758 -0.5328207638568695 0.5408793724952878 1.235000607168273
P 3.938089290607799 6.139872490053337 8.42804415475112 -0.2662472454328511 -1.0832304444400958 -0.36842159951077197
P 4.933454964595295 1.0635057383098514 3.86073203744887 -0.592209647338148 -0.09332513121740703 -1.0986652909379273
P 0.29682432546097554 5.690879271648069 3.4757937454396672 0.21821183929117902 -0.2597948049392881 1.4481633140713188
Ni 1.1799634677341708 0.9704357183547142 2.486594334495694 1.2301293951189007 0.24539405613292578 0.7170122803385458
Ni 1.958688915917138 6.850258289116306 4.730655944507264 0.6279073578500735 -1.10041441241855 -0.7024559797909257
Ni 6.063231927758669 5.588247325478611 9.364795402485559 -0.33965198357724735 -0.2624268432454964 0.14646237736201875
Ni 8.92405320105555 2.066845732166786 10.375146265961492 -0.10288500699170024 1.2722602628506798 -1.4290001108793067
Ni 2.12496119642574 5.285667700216529 6.8742438457747905 1.1109047704269126 1.4543740708677213 0.9840797076798471
Ni 0.637861219617863 -0.38710015824911953 8.813154815449195 0.7132553843992748 0.5674728067131001 0.7841381274527657
Ni 1.5868896540181823 1.1280804923834127 11.737307066648876 -0.6861598137340634 -1.4370661757168928 -0.8281394727343803
Ni 3.9446302287487143 6.810459266059167 1.602502628415569 0.8280188879961159 0.9919943345412335 -0.5690830886230135
Ni 5.248862449124027 7.840443830401358 8.213354416741732 1.0955169751169327 0.37586674293490757 0.07019805828164039
Ni 5.324595807793048 2.904085814203992 4.893575200415475 -0.2093410191641104 0.37934493129149505 -0.27500519413113933
Ni 0.8857137861627818 7.385390491776768 6.6514155840397216 -0.5112741480343453 0.476100942567322 0.9278895336415246
Ni 4.958511928735669 4.403285165767125 7.105876518696765 0.9802233100482343 0.7983339593371735 0.7783292340804724
Ni 8.077115112260177 7.156484872953488 9.277241180574356 -0.3164688605925647 -0.6193139597541076 -0.49763084621929776
Ni 4.648275504873126 0.5598906968079965 10.275974394420254 -0.13331478423646717 -1.2024265298869936 0.0834199562885531
Ni 7.909881195908389 7.121267228205868 4.964824251562922 1.088327656457345 0.20582323581883907 -1.0816263331777694
Ni 7.1159873031046015 6.203249735341044 7.0732389610604836 -0.3019269582226477 -0.5755357862268927 0.6161772138973388
Ni 2.5699355027693915 5.157497971985107 2.7149737752160976 -1.2717144176495387 -0.23081538698780252 0.0005306756924894087
Ni 2.4749422111278827 5.336035645512458 11.439072946753644 -0.2738913922416702 -0.7283850409518617 1.0378468740989737
Ni 1.113701314916906 3.510805454964266 3.883356788668883 -0.3408244066187937 0.16804678840101384 -0.38738811331094575
Ni 3.582184236230181 2.5931689876222137 2.6565244600229057 0.6072110058429865 0.21244048402504057 -0.12235905655591187
Ni 1.0436924111257184 3.550931071326638 8.26232345404691 -0.14677605194769558 -0.5779325685938435 0.7224977289331493
Ni 3.258394190200471 2.9800459737794243 7.270561192860485 0.8082514755612017 -1.2024185594671937 0.715521040505
Ni 4.22367699196151 6.699635271150116 6.3144239108495945 -0.7964645102286025 0.2053442392998915 -0.8741406220548429
Ni 0.8836036305295267 7.288183623288679 11.087223999786296 0.18566630125498992 0.3050935288760875 0.16408934641516257
P 0.13218591868216356 5.780873871312262 7.9678732804742545 -0.16515121202077365 -0.28508340430274776 -0.01746396111271831
P 8.488096498750831 1.3775977775813941 8.075490310566643 -0.29294660910090836 0.8267058256116472 0.08588101623453596
P 1.8265819239504055 3.472956919702269 10.427022890886871 -0.23706085367688204 -0.5431866804722257 -0.4885345403449844
P 4.049575544163573 6.407987449577083 3.8069829442401555 -0.5063278597726635 -1.041768063530251 0.6554248465440519
P 7.054252096379316 3.8261040750579194 10.494009899401028 -0.005726875181448202 0.43052299682720696 -0.05785881998999713
P 6.261047678331021 7.717163929712172 10.39118653326656 0.35680072744239194 0.2492777074580481 -0.5123987485570918
P 2.401640158175596 8.889153077576905 5.545384675777662 -0.32828667916309917 -0.6706840866959676 0.5096055020826707
P 7.027290004625084 4.186953389195314 1.7520243011802235 -0.3446748907131354 -1.0108803728124591 -1.5119220444855186
Ni 5.28705572176377 2.945517803787295 0.45386490187499295 0.5674758920368936 -0.6545491288073179 0.01645711711475875
Ni 1.3828867747189164 1.0873470495918574 6.89120038874176 -0.6243661774660344 1.4863930469764788 0.7513172242680028
Ni 6.7386540990891985 0.39071717910457454 9.139112170940576 1.0470941037288548 0.9574680186295899 -0.5836774414974205
Ni 2.261858223535889 1.5847849416066813 9.222682861731563 0.549691314359963 -0.6131718514121116 0.055931263949981096
Ni 6.355650872413501 2.206210353138695 2.498903273288474 0.8747355753263645 -0.438615029806722 0.6943670321352041
Ni 4.154756732521099 7.100782570338756 10.518082547607575 -0.25501538127277373 -0.5294335925521915 -0.2313308931716403
Ni 8.268934246867001 7.2733962041906315 0.09445622709512587 -0.44889147203206564 -0.5083893702873826 0.3713503431217927
Ni 7.767178065594098 3.7325804532899594 7.961818603476686 -0.7302634889214972 -0.11758606064730072 0.5250251790718506
Ni 3.164235525894557 8.431087822915167 12.435535429924547 0.5409624191273974 -0.12493864435763 0.5318771689966776
Ni -0.1439632361503143 4.720316544785764 10.044355329552664 0.26926057833787825 0.5495928411088857 0.9568478685470875
Ni 8.376973126645316 2.3629479235417468 5.5860146973558935 0.8856925885585004 0.780015877754276 1.1462746652857743
Ni 3.5389287673593266 2.3531773404935272 11.219962405476478 0.810551841559604 1.166884371116326 1.132321802650108
Ni 1.246397989240309 3.2390163207566482 12.633773937386453 -0.5872127083441886 1.3006028185491152 -0.024325207008925848
Ni 2.919227042716042 8.386544124895893 7.8821389090361 0.06839005853862415 0.1683512070153101 0.08860844246802804
Ni 5.701520770176909 7.86198084447422 3.434008853645987 -0.7519196337386921 0.4548934552517714 0.884680088133586
Ni 3.2564074142603037 8.587163134671496 3.5749266072250045 0.6140802221589939 0.5427807032830588 -0.5433373471174772
Ni 3.8210055906817826 4.26493661285594 9.692014678220213 -0.15641177526524674 0.44598895367329 -0.9579626988778212
Ni 7.371519348340623 6.230429555965431 11.53484643351321 0.05404304578833274 -0.9933176813383473 -0.7110285519512851
Ni 0.5970697157942664 -0.13432510483143945 0.38182567636960724 1.1262807386623506 1.0751399541224773 -0.40941038321830786
Ni 4.779493437286725 0.4810991547169193 1.4854588454490816 0.2244889305491424 -0.8099910839601275 0.2926769003792895
Ni 5.931079575610654 5.678033268308905 0.42961262735056877 0.6001551274374696 0.3523352354718706 0.7618302079841848
Ni 8.248349796601069 8.876443154781589 11.00601657444012 -0.4714112504011365 0.3701624934612786 1.2770396865171942
Ni -0.010443728138449538 5.037429572130711 5.777322169117854 -0.5050525926046657 -0.5514494347016503 -0.40393753302919466
Ni 7.883935172214881 8.623278911008507 2.863154601022045 1.2086025767907185 -0.1079937889731753 0.12153244688955846
P 8.435052302759244 1.573227167415937 3.4552927579072943 -0.9053792683541504 0.9688546631999766 0.30611142861764057
P 1.7914549995653495 3.311002928451747 1.6047071332258915 -0.131752839065986 -0.4138733040856679 0.1506890138488566
P 4.3627694518457245 1.2795018495401718 8.20712737105529 -0.048884641515844846 -0.882290504855487 -0.6175992910558461
P 8.537194358970853 1.613361855814565 12.520952280093725 0.34397503643263344 -0.7182636362471436 -0.3114919762032635
P 6.5311947739762175 7.563347554983705 1.434949376387553 -0.5100888694769925 1.0079076633373802 -1.0800906132595334
P 1.5413571040469538 3.3830621124368965 6.194007144802951 -0.7118176235114837 -1.2424434365995636 -3.033901730317355
P 6.8513015732858005 4.07644691555524 6.049743624252548 1.0606484453745215 -1.4197024876274644 0.31032623802993653
P 2.519585701545977 8.6725491399174 10.32049450514526 -1.2997471554170388 0.16713276122717668 -0.5797518811907694
