# total energy = -340888.8880868128 ev
CRYSTAL
PRIMVEC
9.08436363278956 0.00000000000000 0.00000000000000

0.00000000000000 9.08436363278956 0.00000000000000

0.00000000000000 0.00000000000000 13.29588443813589

PRIMCOORD
 96 1
Ni 6.333136718784783 1.9571806812316308 11.165418500632896 0.2560083413136623 0.43385977450992375 1.1099277512256238
Ni 4.9485343807839 0.4250646328268142 6.058190283360019 -0.155374592249984 0.35531642958738163 -0.6124755966760355
Ni 2.9380920767062486 1.8525924049522102 4.537060864098982 0.1214450293820747 -0.9701540987376905 0.8466964098009612
Ni 3.454083920072103 4.4252568779395345 4.677638663016826 0.39338186900053546 0.7216929736436667 -0.7292826130654666
Ni 4.10917553642419 2.652407015259604 2.516352320898306 -0.6697060390534144 -0.25806445251174265 -0.3338500321834896
Ni 5.142767155484698 4.752993457747808 2.772417815350331 0.22008514505449192 0.3783702260830516 -0.2855392608932437
Ni 5.51654328920456 4.727548155753658 11.423385352352815 -1.1185183211081124 0.11985994428314195 0.57159171397748
Ni 5.641616805040143 7.820637641465333 12.357992838939754 -0.4160805961496318 0.5863251635329128 -0.45988190960529823
Ni 2.1139313723808884 6.723237453605497 13.290845226510177 -0.5718385398809636 -0.32052966092549956 -0.5152146207393321
Ni 2.587735431933521 1.9250765408362973 0.276695175386876 1.0110528938345815 -0.39007543033512176 -0.19613917576185574
Ni 8.221503346961901 0.10843187045068982 6.914644082840255 0.03305333091054308 -1.5541364730700395 -0.015998946531417608
Ni 8.622241871370315 2.5484092226037536 1.3120482525183113 0.9888226216814713 -0.003902934598831988 -0.32080451185344105
Ni 7.380463895365876 0.7790750085749247 4.751058488335187 -1.771548956388375 -0.3327205465647367 -0.9817634008418445
Ni 1.042875838495718 7.291991279828199 2.065050229585413 -2.127691224311161 2.6104325550131366 -0.4477193061008354
Ni 7.542765132576692 4.203307710384701 3.7802861508954386 0.4894385402164926 0.26217847468011624 -0.1800183589405932
Ni 7.513522566664814 4.0452579552635894 12.711836062400579 0.85557185791372 -0.4100521305673647 -0.45379842241537977
Ni 8.432442266028012 7.314375151343225 8.797434728738182 -1.0746108210918848 -0.341750775087805 1.1253314873752038
Ni 6.918905557729743 0.8669889357610701 0.21489970152575116 -1.333046026679485 0.026615288594683192 -0.9455522410286101
Ni 2.0045283834785117 6.604096027095935 9.128661520979929 -0.43486996094199304 -0.19335389970723474 -0.44634453724049583
Ni 0.278905401011716 4.858372073646469 1.0251422526253926 0.015841595017946915 0.629953955966457 1.9225043365247405
Ni 6.438324563051213 2.064285326183804 6.76139541379694 1.2009818270206671 0.9513685906000714 0.44605708790706405
Ni 3.645019070844349 4.373812127781421 0.4696679488786102 -0.026729445575044287 0.058510851751699226 -0.24445766036158542
Ni 5.83112571075238 5.667952374651368 5.023956399804335 -0.6861567284102699 2.064576555238864 -1.738738080505941
Ni 5.584385315371042 3.2321165837903907 9.15579833144652 -1.0246311467396483 0.267786564895513 -0.1470951258500112
P 0.28906716995518517 5.689282460007408 12.375170461767581 1.8262460908209388 -0.1461777562420644 -0.6638894323716372
P 4.079142630893072 6.1333624823858655 12.48431636318462 0.16756033568289852 0.47598575714569635 -0.37213684357883003
P 2.5155874174966963 8.626584197094417 1.2433168671710977 1.0557949739369623 0.8408306950488035 -0.6177157620290523
P 6.771484507832892 7.984474136097431 5.782220040175618 -1.6601052611933862 -0.21357485473979992 0.840785700743481
P 4.539483663828307 1.4362651128815451 12.262261817013886 0.6890597609896778 -0.7813610789282608 1.2643320091425387
P 3.909001588033933 6.155491991724585 8.23088386064957 1.8325920876436246 -0.6185315730621284 -0.7089793827317402
P 5.051051422199106 0.9386055149366813 3.7069190148850284 0.6118276786793915 1.2318623186496076 0.12879607043050723
P 0.33763581064834014 5.834405165954054 3.3353921695527977 -1.1492975112724981 -0.9039883015438948 1.4235090058577484
Ni 0.8821661817595092 0.049825008156843396 4.159192224649608 -0.4717575779969617 -0.8657932785314122 0.9095107740240207
Ni 1.9496224908499338 6.82659934082058 4.632139628729893 0.2363016069133543 -0.3065644569946591 -1.0288847798096796
Ni 5.993181670150329 5.6274815355282195 9.091725407671102 0.24358271395579986 0.7660568444710226 -0.31961357686913344
Ni 8.649531299142694 2.2273314811966625 10.394509426353771 -0.1216409474429647 0.9847895892626782 -0.8951028261288068
Ni 2.527787717595998 5.727609389358825 6.615845742768635 -0.6844862826863826 -1.693112569357342 1.2325773424387612
Ni 0.5253205761819183 0.1433230935492739 9.172219226799832 0.2521136342449465 0.7063211191732868 -0.0025672465065439657
Ni 1.545386486517296 1.2624539871928322 11.351095621846335 0.14107668757007316 0.03240232759010549 -0.7233418221009994
Ni 4.1315049017585785 7.0467316356875065 1.356618864861725 0.7389239928099726 0.6605495693651269 -0.399023640667345
Ni 5.946242764258227 7.891450254476545 7.918124670844065 -0.5377469975138933 -0.0636492014195291 -0.44993636835681217
Ni 5.451226716074269 2.8925612471472757 4.760458079186078 -0.26876898341344035 0.19071363387091025 -0.520423161523465
Ni 0.8784797470757438 7.516711178232092 6.9284986455218975 0.5925822001862181 0.7376893490719231 -0.41674394076524357
Ni 4.921844520998532 4.410785486980348 6.868600895183292 0.04940528990600524 0.6594817902222448 0.7571608275329734
Ni 0.8400165522727329 7.678767137630041 11.086559866923283 1.4232230991862134 -1.2223944883684883 -0.004003207622122138
Ni 4.685778252658654 0.3317645865573657 10.101827588185994 0.3322240665442923 0.1535452523507291 0.3228307982548505
Ni 8.541227518216502 7.186167530121001 4.926205015449512 0.4182171828766603 0.0824964160330192 -1.3676353346185801
Ni 7.526277012933927 6.23985847498759 6.876551530065576 -1.19532462873489 -0.7905859399606384 0.04778472358344674
Ni 2.449244311297738 5.624138489782468 2.3567882023918227 0.8312631059650264 -2.151175680586347 0.8866014735260151
Ni 2.45808339692441 5.222600541391373 11.281225057323804 -0.4904052750051361 0.22790181288543332 -0.20396535667449386
Ni 0.8728674273427963 3.6435655726940226 3.6677490566064215 0.9744576112090508 -0.09755048215266425 -1.1843611877448506
Ni 1.8609136818628285 1.2551501589874423 2.470042961392564 -0.5642766683733057 1.0902055902063483 -0.734138141385555
Ni 1.0588734025127475 3.304255513863775 8.227599863266176 -0.6713592583861213 0.48148946057274505 -1.848265018294191
Ni 3.5436466592225253 2.485627186873095 6.9737442260688685 -0.028191631942867577 -0.18129773987364906 -0.21884175956569407
Ni 4.158830666984715 7.285968346867785 5.795476851742938 0.6627620036354134 -0.8635790444889128 -0.647055391533434
Ni 0.8888940613228322 9.053712797294693 13.222171981088975 -0.7104492824090475 -0.05403764647169403 0.7982095179441672
P 0.3170488262216553 5.549165238315946 7.6814442995356735 0.9486409072562632 0.29661017399542466 2.212283860751577
P 8.43780204045734 1.9132577840014562 7.820745745390263 0.7863536470468457 -0.0003509555815155246 1.1003817594084018
P 1.6490027359086858 3.1328971663037377 10.210388456597526 0.8431094637806512 0.6180176095401873 1.7725753407703602
P 4.180569548695533 6.570856341270659 3.4996229255581723 0.014877431332464698 -1.3684120648836047 1.637229127926161
P 7.158333040542251 3.9627719352325688 10.326553845644295 1.2858295168946823 0.830544225521131 0.2966207155183859
P 6.469992654001449 7.883483267740068 10.085246808036146 0.29607718431009006 -1.1108440923923062 0.9409072860574311
P 2.497654884067045 8.717800290390834 5.621020736250018 0.05671519330385716 0.5565903554726415 0.6434432487021435
P 6.941407525969483 4.155623886690557 1.63740109536005 0.6856283667106257 0.7504247943607205 -0.48488923028291336
Ni 5.632014632884549 2.8712947523353134 0.49421844107396623 -1.3799023249113913 -0.1697149201320561 -1.2751185582350815
Ni 1.51688883840746 1.019392759004508 7.009510273366679 -0.23816977047034465 0.20530695830405285 -0.86102233950533
Ni 6.965208558181077 0.7042225791421495 9.178627336770084 0.6610403929586164 0.6163726177375966 -0.4484775244230986
Ni 2.6778250641634362 1.4284798134138597 9.036587863774818 0.6095854196124341 1.1188582209460345 0.3049284640531329
Ni 6.593621756050145 2.148742653081204 2.509996900236004 0.11301129679242472 -1.167646188983015 1.2966235221863927
Ni 4.260829899683866 7.01705302033053 10.285974902596216 0.1678184744402916 -0.5409063690784813 0.4988320656162505
Ni 8.212882286057777 7.295479675388982 0.2266884799612418 1.2266668904915972 0.6738342022891749 2.164614322589756
Ni 7.6118517165343915 3.9114634505260484 7.918589790252169 1.0441201087021954 0.7805231564079976 0.8871115803932141
Ni 3.2369040433230283 8.832490378815022 12.100703680732424 0.04370258309427312 -1.0071738704951492 0.7770696506417585
Ni 0.13305322068087427 5.311645471825742 10.105310533128714 -0.4161078498431414 -1.3779655128999948 -0.29876141601047257
Ni 9.00129602024855 2.2175839592260362 5.431435521884888 1.010848491133259 1.1877714989779804 1.4584739519687075
Ni 3.647190233706399 3.086921202936227 11.375852329091769 -0.32847102725976335 0.11394229324712635 -0.2335798371068171
Ni 1.0419583177883245 3.4549651033257387 12.478944779082818 -0.4698871004471262 0.2598102315582558 -0.4389752413596182
Ni 3.476594972675283 8.417144197995828 7.80477725133624 -0.6279767776354281 -0.015541547279024844 0.48945730926956993
Ni 6.160806344336716 7.982339310689139 3.7481229621377485 -1.8743326619155203 0.8079789386261053 0.03304407493916244
Ni 3.4349522506684327 8.602183596895813 3.362316405914905 -0.4963740909940613 -0.07383128415885348 0.5865542488245833
Ni 3.2380577574798495 4.051071947864894 9.054856518651732 0.6893235561740259 0.8875568954607488 -0.5406649424916365
Ni 7.542256408224079 6.381837991184156 11.708834220350033 -1.8864153041116674 -1.7233885946330643 -3.611050112447007
Ni 8.213881566036127 0.026787062474170713 1.8608119369923057 0.8491502706580923 -0.17177283110234934 1.9861496812895278
Ni 4.67599439323427 0.45505665872245454 1.3627753379647007 -0.14117207549735689 0.2609777695037957 -0.43695126895105396
Ni 6.002075261957637 5.794088761009377 0.43881381689255755 0.13458028121245208 -0.6702580549021425 -0.2345450292335638
Ni 8.022056147646808 8.67841049051699 11.581034487046244 -1.3200575848396168 2.1974645363505574 -0.7431593710475589
Ni 0.18151284901275486 4.758643931807202 5.713281531341983 -0.06365074408142586 0.15133436074233939 -0.3833041730495592
Ni 7.273686287497527 6.536263085292891 2.462809991222003 1.581963522584637 -1.9156186651485008 0.013230639757661086
P 8.752729667815863 1.7099951520417556 3.373352090621258 -0.03456205424558564 -0.2430358403133943 -1.1413800561976342
P 2.1041384285930644 3.4763496948624155 1.8265756964977125 0.17180111323712347 -0.4781861072311248 -0.976901444763853
P 5.044628777247352 1.457422595332233 8.263538513469339 -1.4267483387306525 -1.913368435661743 -0.8354604318758256
P 8.622468980456304 1.65267281873826 12.502997448161688 0.566688620248908 0.09807190187377304 -0.257023412841738
P 6.337560803779839 7.968594668805116 1.170782767288093 -0.2862432289388038 0.41284280593862444 0.3158173430514948
P 1.9652112585121837 3.389457758563218 5.78409505278954 -0.6770807342509306 -0.13373695937555033 0.42570654927517004
P 6.983422706877354 4.2756464964537555 5.910246882565396 0.148478379350783 -1.8806336644328836 0.37888367538436035
P 2.5923775416511257 8.56786287182123 9.947847627885796 -0.9691433980849891 0.07649751813710697 0.7284166655207456
