# total energy = -340892.30459401844 ev
CRYSTAL
PRIMVEC
9.06536885388545 0.00000000000000 0.00000000000000
0.00000000000000 9.06536885388545 0.00000000000000
0.00000000000000 0.00000000000000 13.26808365918621
PRIMCOORD
 96 1
Ni 6.157270892129251 1.8630692326885772 11.516577215751875 1.2653136563295175 0.3589694529589367 0.2679020074274548
Ni 4.547905065742027 0.4171030495951198 5.886451163329593 -0.6031157527276904 -0.9620301840789754 0.13658934122268088
Ni 2.7838024623177913 1.7306513932029821 4.698785434966538 0.13601521388676577 -1.0264206345399032 -0.11768247701584893
Ni 3.367032018088671 4.1791440008693606 4.687746535593525 -0.4938315270778657 -0.24329963549774228 -0.11601923038081308
Ni 5.172690271283699 4.659155269491409 2.5962989103906127 0.5865336799992931 -0.09995703471162785 0.31164649950325685
Ni 7.298038748991598 6.185953718454466 2.597200914568665 0.73269266718828 -0.4156008282997359 -0.4219295987312411
Ni 5.220745790357645 4.684275405947531 11.419586836847488 -0.7650224896692372 -0.6242152537104668 -0.3647081552149267
Ni 5.550199416878183 7.742912648828394 12.239607447215445 0.35878870440669824 0.6221069491182125 0.6163628475455836
Ni 1.9907186882781345 6.504773667579467 0.3636210008630587 -0.8772945943027922 -0.31903147911341834 0.6288452962833105
Ni 2.6378953543202117 1.6988954069143505 0.5231787409341246 0.9915816724838471 -0.3728608662290481 0.6424348620422871
Ni 0.3892596764044539 0.13287020137991487 4.918836379863193 0.7638107287493232 -0.020505576152519522 -1.0439923248750795
Ni 8.579365146363573 2.2855969988680864 1.3302712291079017 0.3745775918098388 0.6886257587760527 1.1781905401577644
Ni 6.742440436785591 0.695212241305052 4.856184710768315 0.5623413990238058 -0.14229616179947108 -0.7104981333691118
Ni 0.6847081986808335 7.540247267878167 2.43807649911781 -0.22223741551080434 -1.1538121113134 0.7736781084617063
Ni 7.471033178436631 4.149282676623071 4.104335672450173 1.273848690383722 -1.2538141403303502 -1.9036445235057604
Ni 7.8041492138811215 3.7238177310095004 12.788680507086152 -0.6531897865659461 0.3087768912649456 -1.4428395878655602
Ni 7.882056991832735 8.656864982727122 6.9453904703106 -0.07638284693611362 1.1092438377847218 0.2373619298570686
Ni 6.988429214388221 0.5459174050528155 0.3916357095207115 -1.0873722345226111 0.11503424075972446 -0.04697791141143522
Ni 1.8390913326790337 6.305743499447323 9.277229914527902 0.5955981041944066 0.07713078084573169 -0.2523049243201461
Ni 0.10848435978230754 4.817735762824846 1.494464092156238 0.1654044656821603 -0.45847063108006847 0.20340048530995936
Ni 6.279408603595631 2.055055609400149 6.8466232791559785 0.349782644253346 -0.19233162909030746 1.1825598728700537
Ni 3.637950559406327 4.508579496652651 0.6058975100143058 -0.7504034542044818 -0.8147028876135001 0.03477674135955301
Ni 6.090042118416293 5.8247169095394264 4.778951396242301 -1.0673320280422844 -0.14393035496878437 0.0909661440669272
Ni 5.03966505210032 2.6988962197887245 9.608122215049015 -0.09506525383696532 0.14910110053644643 -1.2001467327138815
P 0.24048519231121476 5.400076912470608 12.625510217618563 -0.25729029334987946 1.0155867771491929 -0.7679502048389936
P 3.995706266769887 6.153554090993556 12.514575488697284 -0.15218693855062176 0.8642657861432922 -0.29148339429182063
P 2.338982954692737 8.431771879801996 1.4646771039326623 1.008179171831212 0.6179893274054131 -0.2980520486482738
P 6.141288647245763 7.774813681015004 5.744297117942201 2.3487245922115356 0.8869529433281628 0.10500925242355462
P 4.615034120400124 1.0385648909993632 12.801896001465703 -0.5854926403292884 -0.8912546560273102 -0.5505042971795616
P 4.196386331991535 6.151260552731774 7.9651093664782655 -0.20295619868368917 -0.4315532378639342 2.0554409114861825
P 4.772699011502573 1.0493798757673727 3.7653761003908803 0.0236070978959787 0.09248798002809233 0.27335608856349053
P 0.26634143669957744 5.602279959621028 3.6222665651505572 -0.7715584910155422 0.6670292635521996 0.2476643402243412
Ni 1.5985055147760965 1.1870828251605532 2.6860968258289986 -0.6091617018114541 -0.0018321681127323286 0.2506221373010845
Ni 1.9616097896276075 6.4985004324919045 4.772157808995741 -0.5866110702044477 0.21825709070681762 1.018956207842058
Ni 6.360262626349929 5.708562341364653 9.149577739327759 -1.1866664388392596 -0.42024552616059885 0.5325433418257667
Ni 8.997595927815475 2.2709745592781454 10.110093432624982 -0.7037119636852138 -0.3625941941957175 0.37286318022189335
Ni 2.4152317701862223 5.19176380686785 6.737386493777908 0.02559301797775592 -0.06707931014700061 1.4528645762017303
Ni 0.5431696918229885 9.126287900796752 9.105341460054953 -0.18546009878145478 -0.5539434047680976 0.567240636097636
Ni 1.5632049693556196 1.290790642215062 11.852604141061416 -0.8419226425614017 -1.0938817535063547 -2.3990770765221585
Ni 4.3167200351018105 6.960163395019693 1.3318903039440848 -0.39761904701033457 0.5823301834409067 0.8000535131314415
Ni 5.76370697870229 8.052984517231577 7.975060421616441 -0.8654747188497289 -1.183598084326581 0.14124149528271157
Ni 5.3520757856084025 2.9797776012237676 4.791436221910787 0.17405057139293253 -0.21042139671248275 -0.17768585415267463
Ni 0.8349104783322968 7.406814107106724 6.999498029477692 0.2888953218496702 -0.3124479123586296 -0.011216180430793586
Ni 5.0492199506296425 4.175626637843386 7.383794416560701 0.6931655556279352 0.7104451686439893 -0.5692676938299938
Ni 8.45657472835629 7.0088081630541765 9.61844495030076 -0.6916192941867378 0.3097544246868666 -1.7366940534927187
Ni 4.0437617858438335 0.6283687457585992 10.569434754248254 1.1327609470700555 -1.368776904422191 1.3448671876841292
Ni 8.14896864021874 7.278466618133146 4.86618925158137 0.04929601802165058 -0.4912547674896248 -0.5596774790383975
Ni 7.312851561322635 6.150100185547948 7.136491160507641 0.4420484809683032 0.20563760217059424 -0.8621803643691731
Ni 2.257421833185795 5.466997463650362 2.6241350312863796 0.1710727197115312 -0.6718277133821076 -0.6263081316837537
Ni 2.2110252765699756 5.251250755776214 11.612903103136148 1.0887765710693056 -0.3963252678995755 -1.8826496664216479
Ni 0.9013115838899156 3.3355389274901253 3.807953417205558 -0.04401420079742097 0.5582515452251482 -0.38468562677811813
Ni 3.970141927251206 2.651883218106497 2.41118227002204 -0.14759751940772645 -0.30494826154747484 1.0440298629812343
Ni 1.1203345159846487 3.2684189382006514 8.044213773088199 0.40712981471424725 0.511979401631486 0.14250544959679973
Ni 3.513727813156508 2.4434341319743846 6.936142887777619 0.10641461741151352 0.362257379681589 0.30244709239217593
Ni 4.283359478566793 6.87864760035587 6.046199276141755 -1.9522170330978248 0.39375005097323157 -1.3118447100115214
Ni 0.778882874090716 7.306569260866448 11.380499686952913 0.914277856395361 0.22068781163549733 0.42832624628620425
P 0.19203261009155242 5.540898348670322 8.091912116638374 0.20479942254001507 -0.21196431571957047 -0.242975162278788
P 8.17048075996265 1.5592796647415808 8.072832235296188 1.524703255410587 -0.260794449848396 -0.9380572182031458
P 2.0515382463741743 3.2638862538888285 10.247152740845882 -0.9968969140491735 0.10642155939004899 1.2640309329623522
P 3.997374294596638 5.9859988827227095 3.813180508753952 0.5308723818812471 2.1722636116048974 0.007471625786696811
P 6.890305664405878 3.8524643771476588 10.305652471111133 0.6808312024322984 -0.26749654445891996 -0.028922596571621155
P 6.447707172093617 7.761714223353835 10.19041894438852 0.028300132496273844 -0.46363160645571766 0.040159602938021156
P 2.418894179110175 8.547201218486878 5.844245526628485 -0.43481673910655433 -0.152077409555951 -0.382921850009476
P 7.0472090645439405 3.939283412456315 1.5473106585477812 -0.1513968385491586 0.9885254021560266 0.8703071072413656
Ni 5.468520445579133 2.829410331863354 0.4225060092948127 -0.30584403388886683 0.6897997244794959 -0.2997970563638386
Ni 1.2027568475108368 0.9457899085049717 7.027811895299926 0.5275096360566012 0.38188800942832296 -0.20655779999201845
Ni 6.650481337467327 0.7856075645357364 9.360685698077187 -0.5201663083176525 -0.03331301232983295 -0.316867381582564
Ni 2.6401979579506176 1.5059752972345433 9.084377795112774 -0.670633178853374 0.38781697331824827 -0.6088130602227837
Ni 6.361250751529907 2.072796535796624 2.4989504494255916 1.3565389675951023 -0.15413866296035392 1.2778935498770574
Ni 4.367594883817711 6.85612015932611 10.144908980824093 -0.8164705210368843 0.2539655998520207 0.06013630317026417
Ni 8.30450316969463 7.320285163594025 -0.16221117346720704 -0.6654794025665765 0.18793298580197954 1.864344697464873
Ni 7.822180232073553 3.7442510718871986 8.026393977984698 -0.6027807379857748 0.5198068680957048 0.7049332376868247
Ni 2.931486382565606 8.370453726431656 12.554857454176455 1.1482299892399321 0.7311101531925087 -0.48870706136710673
Ni -0.018675565901572818 4.689043789843569 10.335584505232687 0.6550816042720202 -0.3391711872860868 -0.326178888791477
Ni 8.602128286977548 2.297998423145234 5.761970054073999 -0.09613560408300863 0.861432173349239 0.6000273436103537
Ni 3.7117063985283103 2.8899579289006843 11.856226662363426 -0.8344687573865177 -0.1650347410475674 -0.6397364892745177
Ni 1.2167537766657461 3.4280872757689256 12.705676178894326 -0.1748247305547957 -0.2167385971797622 0.9025435986775683
Ni 3.112467401768072 8.241770818819 8.103946393486265 0.3939092022589152 -0.016984964593770746 -0.6820108245626965
Ni 5.6262759903678194 7.840555734273683 3.436287808225876 -0.508166455643299 0.3127826699902291 0.31592867181837847
Ni 2.9396633450641345 8.267072262647597 3.613681661063965 1.268927341822705 0.6859497546057864 -0.30824467291055946
Ni 3.4877283359438915 4.423129332006165 9.096160054712927 -0.45611035837800806 -0.060668521524650354 0.743891364117577
Ni 7.290015897759671 5.87791249262298 11.46808202629968 0.028252309977473924 0.41815059130478305 0.3228624228237343
Ni 0.5000493594277545 0.3127597502000937 0.7096397754695842 0.07136225379307065 -1.2459105692125576 -1.3395933408796992
Ni 4.74817718937561 0.4018686976230829 1.7204591992594171 -0.6607979379305071 -1.1769584675228764 -1.2627800912743865
Ni 5.943844918622757 5.4788640311787145 0.3587701221125458 1.1405976695056552 0.4622061868631008 -0.058050881396145185
Ni 7.9819664194339355 8.978422673176464 11.269856862901316 0.16854455397303877 -0.4190772168841105 -0.2723189055482278
Ni 0.058395478526077106 4.981365666481653 5.791478735480829 0.24432704832099214 -0.523080396640654 0.3780115571920522
Ni 7.931671754309948 8.904159173411557 2.6366733426297437 -0.713229673367662 0.36334315654660004 0.30848969904183
P 8.412072833782812 1.7385291985369304 3.609316686071679 -0.026179743719161364 -0.2178860805206441 0.10601583931119807
P 2.072107567781227 3.3399084351667225 1.8842006069502955 -1.4007632275208004 0.36589523354449244 -0.945528072658894
P 4.717699420062914 0.9046748356492882 8.043562879621023 -0.4739281032857192 1.2215390823467285 1.7510675486055713
P 8.37332744828535 1.6252302214786045 12.42685988843175 1.678418200569961 0.6774406886935107 -0.39085190348983007
P 6.531561831862341 7.71331422027219 1.2628121950319036 -0.8249176233629728 -0.5915005370862652 -0.04281503828299723
P 1.7331534349431084 3.2134918697099812 5.905690595159556 -0.6777559059410844 0.21550215366949985 0.21573612405717688
P 6.839095397050903 4.213637728482333 6.118828289943818 -0.2127942678200335 -0.8136461642142117 -0.12959234107955747
P 2.2898395913839527 8.310277809507893 10.167677560659243 0.41587850744115473 0.6849118002595752 0.8427441100214325
