# total energy = -381173.38650973706 ev
CRYSTAL
PRIMVEC
9.24200356827954 0.00000000000000 0.00000000000000

0.00000000000000 9.24200356827954 0.00000000000000

0.00000000000000 0.00000000000000 13.52660641821076

PRIMCOORD
 96 1
Ni 5.3262222087540865 5.327497605270534 3.8273669806206896 0.7792754000438257 1.3941246391583602 0.9521334937905538
Ni 7.0360668371236965 3.802123371598762 10.073940269053736 0.4552824631600739 -0.6457387296045395 0.8349896628869942
Ni 0.2623093228172553 7.084513420741234 12.99294120044858 -0.6124704544697129 0.5419278683644603 0.32456629288871847
Ni 7.8435869141138514 5.189375859340716 8.328372523618718 -0.8682417400719046 -0.1297052125083379 0.49532276691141147
Ni 7.574524459162041 8.306250863460967 5.9244774434063565 0.5944529348463697 -0.35057660090955106 -0.4077008567263688
Ni 2.6187772124248627 3.1378358686079597 12.779803034342265 0.17842170387743467 -0.6931200471019805 -0.2877028442034658
Ni 2.1707988070243847 8.534750163987486 3.6444603329560628 0.9727360005322536 0.4019500702855207 -1.044661325917646
Ni 6.0638357694369045 6.638734612231442 1.441908773673995 -2.4261932160126602 0.23678548852830839 1.110308017383178
Ni 0.40858436444859814 3.0796389710422143 5.600975889610452 0.3535503388258943 -0.2461013666125955 0.4647806324584963
Ni 2.730716361752528 1.5298381214793404 1.50786525758184 -2.004771410155773 0.466801519543267 1.7025292346855516
Ni 0.1614005049561164 7.454507798563539 4.02681681498417 -1.6407638805522966 -0.5845495596897287 -0.228952879857767
Ni 4.271811243790083 7.645105641742571 5.186155021036498 0.4136388194773586 0.21715717277441954 0.4531934418415292
Ni 6.039418395549546 7.947199018069635 9.752101351731085 -0.7947333864701087 0.09667502152624641 -2.6219647240224524
Ni 0.22369900378272856 2.11517118649902 9.400356234498476 -0.40480528034612856 0.07508084029523844 0.4765904806092308
Ni 7.538804114697755 2.9162495868807383 13.467048598829505 0.5879292747952392 -0.7250534054754675 0.03660633836912405
Ni 0.5633333993113261 2.5377618076191895 1.1544297778647514 -0.5145420201523396 -1.2447651427542046 -1.3206329977271127
Ni 4.1824780356162705 3.3937377102306248 1.001257428840473 -0.4392920012690886 -1.920841347000021 0.6242826166132927
Ni 1.5179436626629017 6.284886014947068 2.3445799001937884 -0.20916361304598172 0.2137211505096771 -0.9282101502057369
Ni 2.1696158305453603 3.7054335284460183 2.6153696856450486 -0.05257237478007721 0.1852749793538422 -0.8058778331227026
Ni 0.7715252450147209 1.8078745620649979 3.3520285473412796 0.9741945873556513 0.1819158330736222 0.3867905889362629
Ni 7.601594288123462 1.4493033008682707 1.8205462733961704 0.2901723887898809 -0.4401389226504162 -0.13701460168555757
Ni 1.6014821344902437 7.730159802183664 5.803455252800684 0.42148659765655155 -1.107074340937229 1.2948995975167505
Ni 0.46373602178123047 2.498483291714089 11.707020814339167 -0.712297648471696 1.1683108191502072 1.5781827153859658
Ni 7.590808869756109 3.0042796725268754 3.988481907661167 1.155397967743281 -0.1884721461349012 -0.24809937087923079
P 3.927167682233118 3.7335107358153583 3.75199659170086 0.3498638911132426 -1.1005442531281948 0.5654426636569487
Ni 6.43900566935494 8.46792123492636 11.805901012378854 1.1276619352805934 0.04616235748867534 0.19833978295760035
P 7.899519520762714 1.828077582245833 5.672233586864924 -0.9274038522543577 -0.8471964893658313 1.220828429432949
Ni 3.4591156447041973 7.170658137623927 7.561535747102504 0.1075998959688663 -0.5822944451069649 -0.36351387779650945
P 9.015972056849293 4.3093984730103285 1.940310627292506 -0.3144932249234326 1.0457617580706764 1.1238392191003934
P 7.379508938194153 6.4373143826700865 13.248986293129253 -1.0213702166001892 -0.22059113815663298 -1.770841388798389
P 7.7121471368897705 0.06125322820334937 9.60426903246915 1.262183338230652 -0.2637023675238104 0.47190258821525827
Ni 8.120366442190546 4.6351791049291045 12.182900829037878 0.49949746711439136 0.7083072963653801 -0.7341630810862195
Ni 1.001981077733501 4.602286813609986 0.08455416803862924 -0.11693325755465024 1.1229362476701499 0.5080026763719252
Ni 2.498705099803906 8.186862659116944 12.058996981665334 -0.06900223820132632 0.43777530751424604 -0.36981668008608565
Ni 8.53243966305189 6.712550496121803 10.733565181156509 0.19616051591809444 -0.7700464252463899 -0.9223284946139794
Ni 7.497704924055407 4.214020994389002 6.187827415845003 -0.3219643364894971 0.3124620534260167 -1.081597793932679
Ni 3.038632200437289 3.2956523245127824 8.303064220570594 1.7665407045405062 -1.1269926771277106 -2.258271383225285
Ni 0.5555451627576253 4.01292423495863 7.890124099758214 1.2397872299236392 0.30197220963828636 -0.09398821872270265
Ni 0.7530523279344586 6.5436251517186435 8.49205765189995 0.5331244111402174 -0.27945551659300905 -0.7124161763274311
Ni 2.2103453410380136 3.613383171171947 10.228034970051505 -0.7453743764210067 -1.317330672826757 2.1778668167242876
Ni 5.466626729608271 3.0823468781387304 5.368533950287435 -0.40109286449154796 0.5945899746448663 -0.8752575092681055
Ni 3.8113006813149424 0.22639304787363135 8.71296094955061 -0.17567268037738779 0.9951393079281183 0.25443276929642633
Ni 5.2229428169330285 2.6429265682036926 12.234274355240627 0.178750290861447 0.49249712453715827 -1.2207201859898589
Ni 2.8922018931430746 2.8396888278788905 5.786222612622649 0.26003931684992637 -0.0772163985810025 -0.820550861753845
Ni 7.675631980103641 2.69385925082793 7.921072797690311 0.325289287097672 -1.753842026026915 -0.5047754276838791
Ni 8.35296919237868 0.33999390947417596 3.672000579907971 -0.7390846867575529 -0.5738673973855342 0.8790200616343313
Ni 3.1334181908191034 0.3372046727447267 6.171798084554226 0.36970612265015035 -0.033709733547619365 0.5515476508424113
Ni 3.987564176689548 6.902908047203534 10.34042790176292 1.4577913240793863 0.9462798632232542 2.332499131491609
Ni 3.8898946811401127 5.464186840620285 1.8014328854565616 -0.3903464246083213 1.8677429245131445 0.43435728297163256
Ni 5.399021472232787 8.484113225483004 7.336398687537463 1.1087437582198516 0.8325273173894306 -0.5169346887542323
Ni 6.060166693951182 6.395337201672211 6.602607619602491 -0.15162643806146145 -0.940714967540967 0.14057532245362242
Ni 4.6179057999346025 7.205888655889866 12.993144524530912 0.5440593128851662 1.6889990614096007 0.409370788229624
Ni 5.713138695428683 4.661943947767027 0.09239046301179035 1.9250834101058265 1.2246444607449296 -1.112165382306891
Ni 4.044642791802467 4.889047705728447 6.380784742579465 -0.4232904836345097 0.24119955843560395 0.7545922954748487
Ni 0.10864067819201112 8.752648886221497 11.210594901120775 -0.14850383327207972 1.108969758187729 -0.8644563048875434
Ni 7.797681881525466 7.425025806625357 8.220876005490014 -0.2362815523086963 1.2825287346562235 -0.1342277829690398
P 1.6891055719717163 5.394391228357857 6.522110691206765 0.5652233485572911 0.0850304953087826 -0.18651656507042716
Ni 2.9255008326268572 5.484325166774923 9.146217767189857 -1.5091925613694976 -0.4082942673359936 -1.597725413404584
P 2.28064002150253 6.585334314607989 13.463748279293101 0.830720346087679 -3.125337872042166 0.07139490680321899
Ni 2.001586960505211 1.0205390212481933 10.761619283516493 1.702904101526467 0.20298730903194073 -2.069375005068771
P 7.21515838564347 6.415013427639732 4.667882859371877 0.36595539735846655 0.2795295643640541 -0.07877602975863852
P 4.296367247733578 7.5988309290044915 3.090343059776635 -0.6887579134785429 -0.6648674800141905 -1.2929147058762378
P 1.8223198139143324 1.043329802476894 12.806193576028623 -0.12939179503297715 -0.11116164517819564 1.872274750945227
Ni 4.767247338407665 4.5383691157277095 10.288959182921625 -0.6026773796386912 -2.2323052981788263 0.037800872897857475
Ni 3.8402466370360653 5.250779732205066 12.353281789030463 -1.1378298769525308 -1.0749103546101746 -0.11633907561407707
Ni 6.029270675440417 0.6435567643962776 5.353804044722835 0.1013045498784578 0.24551026999581588 -1.1833790263372392
Ni 7.591400357995621 1.5878039689515264 11.183189587423504 0.22948329843994025 -0.24299444555249766 0.9190912186236042
Ni 0.2379233717426204 8.659082840333676 1.6661669186831376 0.37171389710879854 -0.663607125244528 1.9590032027817228
Ni 1.444996527124323 1.6751871143356971 7.388083669266329 1.6985373399173394 0.9644711894203003 0.4613176136105604
Ni 4.01276712089501 0.8185550294585527 13.371794963058328 0.3209266392536021 -0.20769011382424873 -3.2884340013061237
Ni 4.526141944776545 0.15177310965768268 11.052901363865724 -1.105717055578386 -0.2777195077385088 0.4031093807009445
Ni 8.82545739170394 6.2322158356192645 6.174084556280089 0.5763138020434978 -0.5345184632742666 0.23154043807928512
Ni 5.538141354566782 2.0061525103539455 3.1184507657583245 1.1949448767979678 1.6559632140005545 -1.1863702477550795
Ni 5.993439426931222 1.4657355835222163 9.506228932569647 0.2522133930476043 0.21014885977738648 -1.5741699946821468
Ni 9.031655737200104 0.43032063305029367 13.352803569568117 -0.04855116943582606 1.9215856813652132 -1.249084596065165
Ni 5.145374679523261 1.6454278622852445 7.106622142093747 -1.066339582222028 0.2863008216496166 1.7766844778427273
Ni 0.9231375438072863 4.799354059408682 4.239468851693636 -2.2310241174735577 0.4009668804366449 -0.26682754341635334
Ni 3.897186622092848 0.9828039199680697 4.0606601084883795 -1.552963278697545 -0.38091844642620204 0.5568163554405184
Ni 4.661601993628558 0.22362321935204107 1.8129983289397713 0.7848459521530676 -1.3612844526998877 1.2549397692943614
Ni 2.1779151499060143 8.029979645590101 9.759757427631268 -1.398841070797423 -0.39373488146457997 1.104615337873775
Ni 2.648212994344332 8.349993267173634 0.9046840349348829 0.012629772948868571 0.5114746940809255 1.9765730933446861
Ni 2.8963423108196586 5.736844435027878 4.552623058099576 0.4816501545203253 0.6787596646152504 -0.7909559217055475
Ni 7.062498967826893 8.548058649376507 0.3264673127968336 0.1567269925128204 0.3960997821523307 2.346365862171372
Ni 0.4595724990952898 0.6097356517010505 5.563750022736533 0.6653673024687444 -0.43936527770918526 -0.4642350443676715
Ni 8.238229715917074 6.519753056052084 1.6537354994492668 2.316201165662534 -0.5313200109416268 1.5679705507396544
Ni 6.768094938613487 4.292356218109386 2.328632822736318 0.4193685228722842 0.15033240184038624 -1.7096912996516298
Ni 6.293591982472388 8.542559657149793 3.189235272421187 0.5167742519169681 -0.7415454895932196 0.5301810122411772
Ni 5.701318172642183 3.8758098674367307 7.91920591293435 -0.8018409440491675 0.8015750919822904 0.2690669742698334
P 9.230229429608809 4.512639377308933 10.118321295225002 -0.08597409016897452 -0.2572789804959698 -0.18628722266844044
Ni 6.332981402422397 6.048974627419164 11.107549331994397 -0.30033287426265054 -0.13232259552652692 1.4039567947574336
P 1.9076235084564686 8.687058385661851 7.8671420090520465 -1.2126356092095116 1.2247344493555745 -1.7952357584823537
Ni 1.5249491014996233 5.458040908131604 11.396788005316191 0.006633703266433736 1.2819708052702246 -0.031324521144894445
P 4.148051571675918 2.1117978551330525 10.219946368376176 -1.9798821031132612 1.3419903803569662 -0.04200462656655991
P 5.312922965368807 5.998772063090574 8.802384729361098 0.28338287667187323 0.19496263895525134 -1.0686800574297466
P 5.815586306912928 1.884814243220283 0.6711358277639037 -0.35011405945083574 -0.15232963477607311 0.822364775034132
Ni 9.014835290388978 0.3051903717811342 7.848326213632942 -1.2178896585195993 -1.1674687828648862 0.24231001789096332
