# total energy = -340891.5257809465 ev
CRYSTAL
PRIMVEC
9.08617855865168 0.00000000000000 0.00000000000000
0.00000000000000 9.08617855865168 0.00000000000000
0.00000000000000 0.00000000000000 13.29854076559248
PRIMCOORD
 96 1
Ni 6.435240504030717 2.0015670070546414 11.520591988011347 -0.04255792796686864 -0.35363647078179744 -0.11273850274701229
Ni 4.8461042260577605 0.25567506868226386 5.914765117581201 -1.346898616291861 -0.17033275622171307 0.7380305344614257
Ni 2.576467694205319 1.8015166146378305 4.973574224477866 0.41146392331322684 -0.8374036716451255 0.29080282328502816
Ni 3.4210734182869227 4.2952909981566165 4.766130408601476 -1.5445472867197079 1.4631610730317317 -0.38851245672337603
Ni 5.056694585554714 4.5236357504765 2.4154006420994083 -0.8026130463285016 0.25906075498674097 0.618932922265605
Ni 7.43715523678345 6.215545793659364 2.5435184850478003 -1.12113647545725 0.4596147719868407 -0.14239952014655477
Ni 4.918412034698947 4.637903531510874 11.586206917556643 0.20032390326716468 -0.16437551019701369 -0.8462675497936586
Ni 5.555952836548334 7.620877766404557 12.28505852618765 0.26115286162907925 1.006585859202163 0.9411397137832114
Ni 1.6884027782751616 6.60901366817531 0.42324691598875597 1.0890480795631374 0.3710675217740513 -0.8072268909514292
Ni 2.9055963386398083 1.4937859206117345 0.670051148584517 -0.13788054923027868 0.6817375162966517 -1.6063923450509625
Ni 0.7990031027208037 9.034114714459857 4.617267002862237 -1.0128225841404945 -0.691641405673925 -0.03642430426530501
Ni 8.66457074798013 2.5880980027075453 1.6806295525535566 0.26919887186200736 -0.5192656508802541 -0.6059334246821435
Ni 6.975704574600584 0.8927497495737103 4.877478800478221 -1.5447450045528106 -1.1209914652389534 -0.873314783719438
Ni 0.6876183661299893 7.587122613212549 2.455628788867187 0.32273952409262485 -0.34142964430296036 0.14780526454315834
Ni 7.667335397163841 4.055870194224066 3.8256973027864887 0.5508753073657351 0.19968087036652707 0.4213549571746937
Ni 7.791915990815424 3.770591447314377 12.533090301501105 0.7767929999416041 0.37298839294584796 1.6368514328717683
Ni 8.175470844568924 9.153143653037331 6.76093820745705 0.12941056408605453 -0.34682381873533813 0.2051696613952402
Ni 6.745933292253474 0.9741110264895977 0.5252301836676534 0.9832970638775518 -1.352027195767678 -0.2661084058621417
Ni 2.0339592334690453 6.410916804139733 9.126455729496127 -0.2541777158628268 -0.2936125248196814 1.5788717710331905
Ni 0.10185333532609919 5.076811384792159 1.600599400790463 0.20845398857346678 -1.1995054995854568 -0.9133016085250207
Ni 6.44912418480525 1.9262880180382778 6.977957038255038 -0.9786613648777532 0.40384600175665286 1.0371115385948462
Ni 3.4255165595819133 4.2205026627801905 0.2540695409382455 0.05490513667831189 -0.14065451243099003 -0.2536719798710018
Ni 5.692945150054637 5.601947072203233 4.637547353312993 0.6323738782618593 -0.34972556576316544 -0.0423848927241141
Ni 5.304038537154407 2.8258469497929006 9.344432243509845 0.759081441594454 -0.5102541914102631 0.5264667966143836
P 0.19119954592304636 5.498410067997866 12.562878429152434 -0.11301052546147633 0.20355372305837205 -0.6041899596284755
P 3.7876371182129525 6.225822261562503 12.67553068764642 0.1771016995144305 0.0970462888227361 -0.07938306721501813
P 2.4838613627563415 8.543106713560004 1.45487345249327 -0.21501390117917166 -0.2623049729556515 0.4095289110740431
P 6.4241281077039805 7.864032989707744 5.910629089120096 -0.1516863447651194 -0.2401109533571155 -0.12052843110507629
P 4.759912736642042 0.9222016886198952 12.805324021913414 0.7939129474513423 -0.07325458571977707 0.047167401714422
P 4.2253637682869805 6.028852083663079 8.141114186359067 -0.5608421887704599 0.09989044313975055 0.4048387046872254
P 4.7112925953956255 1.151273335221168 3.9562756828773833 0.7641961371132 -0.3235622771042363 -0.526341583890429
P 0.45635422465247644 5.772812659222269 3.6505557601571805 -1.2044052508799192 -1.0856138570706078 -0.25013157081791115
Ni 1.475241030257794 1.0517615080989935 2.5481333551167697 -0.6488235391774503 0.1926915835328875 0.42953672165453766
Ni 1.7041400394672368 6.487531461398149 5.142984205698421 1.6108233842391224 1.6044668458934754 -0.6762950051248418
Ni 6.13113519523305 5.844811537793864 9.325362172037602 0.010941586613168254 -1.4252869236937777 -0.39974843464851156
Ni 8.668523235635185 2.449006781963732 10.427890885366665 0.06423361316808937 -0.8682062588482791 -0.3960961826079049
Ni 2.4505150875976143 5.195958443690357 7.0861943226074375 0.6436149983933173 2.9883662077794013 1.0353953272346879
Ni 0.49204200801512843 0.12339030426580794 9.185196056375185 0.491340899445528 -0.14215115158117456 0.2189507743397326
Ni 1.5695646494465534 0.9995068954456311 11.334572472461051 -0.37922048989848883 -0.6947210730405132 -0.10558363686978589
Ni 4.193698436153966 6.983491429589965 1.6263187377017143 0.13920980956466347 0.3665639774767429 -0.8829636196631117
Ni 5.533382769111201 7.802764887965157 8.000947162078797 0.17163527708322052 0.726746219796858 0.09006034442320619
Ni 5.014243959521588 2.860328997266299 5.107490866556041 1.3941300384749988 -0.26836146356237656 0.2585956424248643
Ni 0.7647082305248636 7.4789062270707385 7.203474171820318 0.7836293061371472 0.1902328375797498 -1.1606414755304075
Ni 5.158977697124685 4.123643999785086 7.33092690650124 -0.9735690379565105 1.8380945055190925 0.19127336302912218
Ni 8.038542134312245 7.4659220779694255 8.594767090138332 -0.5776525754595793 -0.12651215949233696 0.25695682126986064
Ni 4.8353825354072715 0.21830361644034424 10.621823553787735 -0.1364723560288424 0.05384892749965564 -0.8296931903747453
Ni 8.038305893670792 7.098849552046422 4.791809766327251 1.0283286501958935 0.22194816640515969 -0.39337981211800643
Ni 7.122927925117438 5.941506649575655 6.823188525097365 -0.05139635219410503 1.481546517517455 0.1792765956785622
Ni 2.479263756426555 5.201391978443742 2.294091072714077 -0.4801792264017537 0.35358247761541034 0.9888069379521873
Ni 2.1940395265879706 5.129474875478803 11.461413707327752 -0.223492370963828 0.2753975444735515 0.052481614838483806
Ni 1.086507054749395 3.258676149646069 3.7286051250034884 -0.5396365012271223 0.7232500337181414 0.3024476066128081
Ni 3.478016499055245 2.5314547658302957 2.791483022640229 0.8732155391374123 1.0906812442911862 0.31445491548632937
Ni 1.0882243424891767 3.2572496196188436 8.3667903280484 -0.2989596480642077 0.9619566505285627 0.07718580245338319
Ni 3.683627632724683 2.381223890224194 7.237917148726091 0.5200943174291365 -0.6095463388443825 -0.26911582522989774
Ni 4.11887375606347 6.869196390020039 5.925351424171782 -0.2965590090425151 0.7157755797179673 0.26843525422310544
Ni 0.47052502866815793 7.373279401806378 11.292349000890859 2.0650262411817724 -1.2120540256744288 -0.3620946288514796
P 0.18076679574940863 5.700123231083354 8.212208081550333 -0.4288013861504099 -1.2590761600602383 -0.7497681346133281
P 8.605056278691395 1.8153276059842243 8.045670241359117 -0.8907378642918917 -0.46024057849629774 0.3050307939589521
P 1.802452491025119 3.10071293612169 10.470379673349566 0.5482319562056172 0.3369348417564004 0.24854520016739776
P 3.7555356495111045 6.232864049913461 3.6373108377324184 1.1830532675667045 -0.0043613622924892625 1.619228577583682
P 6.874266477632728 4.004069890496571 10.59130398876576 -0.6440132622730005 0.20599472839969685 -1.4774178400610618
P 6.699066783460908 7.797531249139155 10.156573960366758 -2.284430815229472 -0.042019538964895374 0.8332487689364876
P 2.361933933231829 8.620711764276813 5.919033804248658 1.3793446526357085 -0.8354411486021159 -0.27351498273885794
P 6.988061777384199 4.027566748142476 1.6364252940665789 0.5543763785404582 1.0177297916341246 -0.25653104658635173
Ni 5.5238695402035205 2.9747148986213983 0.4533712322452257 -0.9267633904568813 0.2519465125394629 -0.49401536095389764
Ni 1.5276864526600211 1.0418121426224796 7.14743334857877 -0.5994426747514773 1.006755294900492 0.02607201449670348
Ni 6.87794637993226 0.8041767727685909 9.13053905812183 1.2635272538530562 -0.5201904766873687 0.8290208468980691
Ni 2.855022669012158 1.5641583732287214 9.27412339414248 0.43547468440552745 -0.8549244541377082 0.4839993714787923
Ni 6.335347057410813 2.205297301770985 2.80595185331128 0.2107276150989919 -0.2587265115757738 -0.16155141048465727
Ni 4.205546812940609 6.943866605075739 10.42895487687105 -0.7037369033858784 -0.7766860420500946 -0.39290698624664594
Ni 8.14745815619989 7.29567435108957 0.09251183519239692 0.18865032358397835 0.2765612257643495 0.7276124244518953
Ni 7.482613387905824 4.057214948644636 8.11744287408563 1.6188557676252957 -1.3854636210492524 1.2952104438889498
Ni 3.0376366848541467 8.53540163417728 12.57251977317721 0.6608892120927328 -0.8892643650701588 -0.39609463994600813
Ni -0.05022385175473147 4.821417079026082 10.212414887680925 0.3388706253265325 0.3867386526524049 0.14678710769128914
Ni 8.332670819097846 2.5694077334973264 5.917704496331568 1.9557931804848576 0.3202254994215195 -0.8598835979151964
Ni 3.951179245346994 2.357118258617626 11.501948058311568 -1.3110366122879293 1.2580970839764205 -0.13299571033415158
Ni 1.293044978627604 2.988644010288518 12.628480638047805 -0.6441143066272391 0.5654002404547875 0.930165731270211
Ni 2.998511600158376 8.238329027552052 8.029339652709858 1.2456051221569968 0.6675031178648246 -0.29080050929218304
Ni 5.827266127076834 7.841889972660927 3.6016703024980568 -0.3319412451965509 0.3578715919090675 0.1782656379155446
Ni 3.4358838892702264 8.532385022909514 3.60592626851559 -1.5047018725879957 -0.762424647035074 0.8668106640523329
Ni 3.4502218789706274 4.258610095482017 9.38067064929065 -0.23478337049661502 0.24784457455594736 0.010584203273749513
Ni 7.241366262091283 6.079843717502528 11.483383178364887 0.48081120355879775 -0.48377491417281193 -0.06656920327980148
Ni 0.5754404061546088 9.23319288577531 0.30957518826512087 0.3762051001109327 -0.7256342176796019 0.23094137104270546
Ni 4.741967534070248 0.5706456297509958 1.8462233387968183 0.34346441534480204 -1.2056131551450913 -0.4419541214822841
Ni 5.999440123802371 5.636901600959533 0.28409936093813476 0.0876854164331264 -0.28046184637033633 1.0297059901593943
Ni 8.060457996896128 8.944933872311925 11.223781971945272 -0.339129535414874 1.9172824260041688 1.190792288082175
Ni 0.2453849715113487 4.7841546609263705 5.823244584465048 -0.3953554477871385 -0.07599769568255298 0.438938988805044
Ni 7.871311018700154 8.937546809177308 2.5464315138804676 -0.29159138062459455 0.20991154695559977 -0.26821671045439616
P 8.603284473880509 1.5100501801578168 3.766944255257507 0.8950812288622522 1.7722328698292769 -0.668281905012378
P 1.8604404823229383 3.3148105605263463 1.5866221323772014 -1.033356699538104 -1.0797949363959856 -0.7195928965815284
P 4.962470914329646 0.8803562020760254 8.245693375240375 -1.3499608001569525 0.03828089785806956 0.09013850595930928
P 8.547940560531242 1.6031562514252495 12.626339025771262 -0.69162315084148 0.7724043839556053 -0.7303704468130067
P 6.34790415612181 7.774806716667227 1.211667346590385 -0.18880381844270708 0.24851768936357202 1.0496387245275793
P 2.0719394596716287 3.436765248586411 6.410361638632322 -1.626702003142592 -3.4261623412292543 -3.1426367683319296
P 6.713550152017587 4.082956092384329 5.9295265232005105 1.1863080270585762 -0.902233009415685 -1.3079584875832375
P 2.538941776928604 8.370451149373046 10.224064277158037 -1.0755225342728767 0.6902409257819726 0.5832557805789698
