# total energy = -340860.95554603566 ev
CRYSTAL
PRIMVEC
9.31627555829376 0.00000000000000 0.00000000000000

0.00000000000000 9.31627555829376 0.00000000000000

0.00000000000000 0.00000000000000 13.63531098312796

PRIMCOORD
 96 1
Ni 5.752352848087792 3.675112249328233 13.25777624619071 -1.3690471273644425 1.0054129219399845 -1.2612849947860987
Ni 0.6834149425582247 7.864305888805551 9.634697257953443 -0.21426391038702455 -1.08615430295511 -0.1516097258909131
Ni 5.633132472419757 1.9612902357397597 7.4181541203790164 -0.21515582607367462 0.9540643922646795 -0.287305351654731
Ni 7.9135144552100645 8.454631676428043 10.372230444026211 -1.528546283305761 0.4335281022021179 0.5428138705138393
Ni 6.6121705327915725 4.8283832913163325 5.299785892454491 0.6851910220628908 2.290806893959145 2.6182541079400843
Ni 8.11535156069166 2.2824036145414968 7.573283147760335 -0.3709896173482643 -6.427757903214737e-05 -1.206476017366019
Ni 1.335339011174659 1.354968403339428 1.2818253939304016 -0.1719818617893619 0.6791826110852819 1.087573809010456
Ni 5.292659873438433 8.786589199738462 0.7831754822728806 0.4806908759308496 -1.0732080272070872 1.2555946292695408
Ni 2.0800075325388354 9.084970866683513 8.342301618009682 1.4731012149635792 -1.306441279607763 -0.804803626221917
Ni 0.06297802137344033 7.697237122934264 12.013472151236865 -0.5756728260253892 -2.305584823599268 -1.377650809873053
Ni 7.958027618837624 4.84910268769718 2.896440254560075 -1.9346445714317002 0.2421107573959637 3.9450155871624375
Ni 2.7575802388243846 8.923883149587631 0.8347280235557311 0.9327283497910646 0.2430402111887685 -1.4547283688833463
Ni 3.2529265992424055 4.991054775221901 8.062382013927907 -0.668251823105391 -0.7837676314872244 0.8571489725928528
Ni 2.576714069158117 1.9628740025494469 13.027108063380062 0.29581313201542603 -0.684537447639292 -0.6847565056286335
Ni 6.3907226676959095 5.91019850136149 9.920915595800096 -0.5297950896566682 1.7326607639636096 -0.12802473948212145
Ni 7.561554888720834 7.204024189571644 8.415099925230718 0.654207686307499 -0.8238899534294069 0.9412417865787144
Ni 2.4283896492932433 8.429077133139975 11.346896376375755 0.1854377301839516 0.4278382509061922 -0.4373389913077758
Ni 4.636831353822353 6.727049524145994 5.1963892104703 0.3180277204392523 -0.16802107736940095 0.5261312676518358
Ni 0.5265027800747069 3.887774866767808 9.22007456019764 0.7838725324962048 1.058573308013048 0.5534569520499824
Ni 3.029289409439235 8.793930424715128 4.859202461805309 1.604989551166165 -2.4468345464120955 -0.7516864346819635
Ni 0.33515580063845085 8.299562273208974 4.9934276305538265 -0.18660089725411733 -0.220307288367627 -0.3525105847074703
Ni 8.242546668060237 0.7319387627244324 1.7057774098227982 -0.5717218117974412 -1.0039047128255743 -2.1679133050560018
Ni 9.000574728277892 7.759786595641553 0.6020605680547384 -0.027672011993971696 -0.5076108402501451 1.6627128740195622
Ni 4.886405054202988 8.435356302726616 3.604016957241379 0.7656572950397588 0.33810957879079184 -1.7395703465992491
P 5.89572100946588 1.004937305847875 2.3711942400302317 0.9820495646236957 -0.7727103452317983 0.8502357904127873
P 1.4609130866321447 3.6560604662352327 7.402214904880819 0.5411809628961066 0.09195936121813193 -1.9069198518229225
P 4.190302276244099 0.23136690346197905 12.807074408882697 -0.43690704597667984 0.5588318432086505 -0.48926833318721547
P 0.8413882288042329 0.6700656516076325 10.676584775098855 -0.2492327131527256 -0.5590316179242824 0.31849411855270954
P 3.0991801071231917 6.839608762937991 6.7809357924042954 -0.17926245461117515 -0.14789525315380334 0.6765878537749123
P 0.0733628735073122 0.15434832350689492 7.437435083845655 -1.3493977285646308 -2.1162572714426067 -1.920599406192544
P 2.30283420638646 0.756863525798767 3.33121591915538 1.0092076130957264 1.1142595458317586 -0.9503437488799827
P 3.6825466370584117 7.725642446479769 9.42793091118358 -1.5812803804746831 -0.3900990844842056 -0.11996304551990954
Ni 7.209241303768261 9.27226526634204 3.9553309058487787 0.608367745155249 1.321783309281472 -0.7621199713104617
Ni 1.821145505633153 6.315959558003327 5.1310495132953555 0.07555109506343763 0.7241684317673528 0.2893393513656243
Ni 7.8788299620779165 2.2475048470762737 3.2893690735333063 -4.974699980055277 2.0975337268911747 3.144823748680919
Ni 7.2173185144976655 2.3990899633140326 11.69380652162469 -0.7754408567890838 -0.34992354070658443 0.34855982758983844
Ni 1.8077766505043236 8.049364382379814 2.7485108447700886 0.48445522806928826 0.037329846798709904 0.6590359609340779
Ni 7.525109619547328 4.951786674617011 12.069486256785359 0.398789670279668 1.3821098740856714 2.875704323906596
Ni 0.40200007628259793 3.0724051317641288 2.505570332439437 0.9188495349264434 2.04113580771742 -0.4292536431964801
Ni 0.695157176010752 2.6930277669166087 4.981756200793967 0.06464884632863704 1.8642467384344281 1.8668672067764107
Ni 5.068379860636036 9.136648246056067 6.592959441390067 -1.4046178253802004 -0.008175593832256887 -1.0970670932128719
Ni 7.413938505782644 9.175655490951126 12.844094492245366 0.27367927623086413 -1.1396597310724177 -0.44251102242701856
Ni 8.14209858722467 4.622400443303498 7.343500942735578 0.5925757724283149 0.21104437500846235 1.1412278468904862
Ni 0.9779853212571407 6.005448100551144 7.82121438879657 1.0059245714690805 -0.6313744904630676 0.7076966593645747
Ni 7.799744100622424 4.10947427129795 10.13710349183253 -0.7015465806027789 -2.206267479354168 -3.2219799834479477
Ni 5.364730579554548 5.763755969117539 7.359863117134716 0.07227216720184973 0.32078137192498946 0.09887305761882972
Ni 1.744975638362554 0.6400896040379312 5.954376279076409 -2.100316946063267 2.646143378151185 2.4958359160114627
Ni 3.1029904637417918 2.1407030664512563 8.004922954072459 -0.5771733218303158 0.6689403645319834 -1.5122827702590471
Ni 0.436365952797738 6.205356737035061 3.007308589375848 -1.0955863949022875 1.4766110278890505 -0.37003316697226596
Ni 3.939247288082639 1.6460647429599187 1.7924299501184555 2.203116849540328 -2.402826773372578 -2.818968047556816
Ni 7.122413617496003 7.167029260152424 2.0198122826127687 0.13957362066198542 0.32888831730284 0.437429237028737
Ni 4.756163524794601 4.619512397944656 1.5940771316181717 -0.15914948591138398 -0.9858473411032311 0.5907957977097568
Ni 0.23303358512229094 1.0480902932741731 3.6526274187683523 2.0803219909985784 -3.813619874325555 0.2455516647567126
Ni 3.9943064754076434 5.774711908930433 10.743411349819834 -0.10361108652444737 0.25408772725218176 -0.8956813243400962
Ni 1.7025865855150462 5.808427509426067 11.887222645816424 -0.5211968064646959 0.5406975955017849 0.8517465706303589
Ni 0.7059677819281691 0.2802084086176593 12.944955284078988 0.2732072216904521 1.2495435379794544 -0.27240735149697604
P 6.3895115519002665 4.177417867433527 8.339642753024478 -1.056092193462407 -1.3225063034904256 0.08481246576070556
P 6.396303116631219 0.6115277670665268 9.8299952697661 -2.292494051853581 0.47100604454291783 0.6425119951371256
P 8.988081603032066 8.306009135751935 2.823259048422109 -1.4395092379407468 -0.05274026781650917 0.5944925298350536
P 5.64306362194403 4.243880175788279 10.89649452313405 -0.6370969947691415 -1.5932581216618495 2.7149245014806405
P 3.4534873750009005 3.719317975869206 0.072260758133277 0.05821568910878361 0.5155799744985508 1.0119034147603347
P 8.48736906801181 1.8465882536170088 13.352105397375674 0.7178332335779444 0.7233562202787026 0.18193203102353828
P 6.408693762848183 7.503672869964445 6.648154646335199 0.8930027490666684 -0.09527068497955204 -1.5851586324831666
P 6.9273587604700095 7.080192257604815 11.94745050270622 -0.34411207623112994 0.5033368954651396 0.8332845072704295
Ni 0.8072645754482215 1.6162526618363966 8.622138307240833 2.4915344604226317 2.114628220479616 0.3938881192129926
Ni 3.516959158967949 5.236240509912168 3.538186292355432 0.04807808645414945 0.6177558712383684 -0.02333353251961788
Ni 2.8588388356154977 2.931878434368127 2.8710506093457204 -2.446290243872851 2.359840499619039 2.7166990768825596
Ni 2.598448939552235 2.0197964449446717 10.556661952269346 -0.21495168048266852 0.8083936575660207 -0.4945668625819934
Ni 4.799866172466614 1.9850933192618219 11.73317151149323 0.26484342310678904 -0.1368593070546159 -0.5397907674167993
Ni 6.327185669801404 1.6043091968362855 0.3486140920106508 -1.1732306250493278 -0.8874471093557619 -0.7579151892004947
Ni 7.335057602384875 3.355591953611535 1.3483286938966987 -0.5697397483704059 -1.0582431783671387 -0.8317487873521933
Ni 6.060460706499392 5.939293229282978 0.2623388608667131 0.6535965350860614 1.4631675007896348 -0.957014476031939
Ni 0.74588522692503 3.6698206049288085 0.1518795105388533 -0.40230513963209424 -0.643184595724118 -0.259958584210662
Ni 5.329645486582303 1.3149922658078552 4.473022352696415 -0.46012642151593663 0.9548966583579875 0.7309517732377734
Ni 3.1505779982352142 3.833274655963869 5.323702634535836 -0.5202578395901943 -0.09309990258047837 0.9044019920425457
Ni 9.006667572357513 5.054060745421395 5.343105641209573 0.6042930608652431 -0.6873520342699516 -1.966999076503006
Ni 3.4974508783827445 6.794285083354888 1.5345722176956216 0.4870705542049482 -0.05717593499035959 -0.5353761832888715
Ni 8.246645829214721 1.537427656090734 9.749233410374945 -0.01497230503911615 0.5128060112978394 1.4941140697698203
Ni 4.741164321479329 3.128908341768554 9.32843402206136 -0.42929143841295103 0.10351364171463463 0.45760828307977314
Ni 7.055056946707546 0.07948366641298532 7.841940306570163 1.218621137368985 0.22760767868378223 -0.38020522240926136
Ni 4.2435913712523945 7.396423908122575 12.499053191831862 0.027565311212778332 -0.5826217465393966 1.6207581268543314
Ni 0.18462715002550714 3.3034953418481803 11.553566765509501 1.0317775279764425 -1.090991062222121 0.003119519465588176
Ni 8.722642285728506 6.839767139618961 6.577633236809972 -0.932649159813697 2.0704823792003375 -1.5182317887536305
Ni 5.374494036122501 8.079809970227211 10.590096201249375 1.545667259256764 0.26181980578911684 0.1713750814432984
Ni 7.228935909860488 7.179550334224304 4.493953228527732 -0.09416279662735395 -2.144069922779501 1.2209978651312776
Ni 1.9068086574865233 4.922719895521578 1.7205166890557746 0.8934051267114099 0.09954745797803502 -0.7989852197679271
Ni 5.881634801135016 3.610149861305009 3.8796417583862968 -1.8121389619955952 -1.7174938264151842 -3.0114927664945363
Ni 4.240517000386531 0.45985135133032756 9.04143777522289 1.7742869241448285 0.06150695826554569 1.116736032396709
P 7.477279861894777 2.842125437635623 5.553920841247024 0.15464157073870144 -0.038677104855223715 -0.809937862124689
P 8.50301109432631 4.997622749344427 1.0174108669154636 1.452237998361325 2.2360969040107745 -3.025030138859339
P 8.923491866022886 5.8902709883854865 10.117809485580398 1.0447418014465943 1.5899948775295456 -0.35699844527549485
P 1.7033784689198899 7.324166876499438 13.507643409244904 0.7630329700430343 -0.28990447984047496 0.10463618535485204
P 5.243311562903653 6.4544459910974386 2.9091476541389762 0.41105717479311144 -0.5536914366582916 -0.1886544373490364
P 1.2761433975937655 4.567807069746048 3.937277827473416 1.7587299502468359 -1.8035640758423905 0.16711399217409928
P 2.319193585902993 4.377074964482964 10.53316816908894 0.4787041845181239 -2.2085807008683767 -1.1165308583644384
P 3.6839440783610766 1.8357906904850831 5.904893814176574 0.7367583526172216 -1.0400140569536216 0.41797807028266076
