# total energy = -340868.82865885954 ev
CRYSTAL
PRIMVEC
9.27889060964956 0.00000000000000 0.00000000000000
0.00000000000000 9.27889060964956 0.00000000000000
0.00000000000000 0.00000000000000 13.58059433185702
PRIMCOORD
 96 1
Ni 8.163549364703728 7.182037599220065 5.728633935521067 -0.7937252569205685 -0.4109712999475245 1.4313632117948445
Ni 2.7686539257182075 1.6976750973695767 9.551679744807007 0.3702118586419753 0.6796181559608037 0.5985309615704852
Ni 8.31307868622094 4.815660695224304 9.547225877333956 2.4146106533813834 0.4020428871096431 2.362790326275982
Ni 6.968882925072165 4.625359928547511 2.171252042112217 -0.3277984266727709 0.3213341591046659 0.07549067413914741
Ni 9.378174697948912 7.566573382174847 9.486140157051963 -0.10301741880450645 0.4129847308331274 0.37291485939543517
Ni 3.6702466067322614 6.501737179382804 10.96524356395954 0.08169808850143995 -0.5169465158287742 2.5781906642602954
Ni 3.570331513086755 1.7636758459858926 7.258433488940677 -0.16472620866821308 -0.6480203265498646 -0.3733989981207053
Ni 8.208171549449386 0.551933464040453 2.53684125841444 0.13953428278361776 -2.1192376942271696 -0.6188933272769213
Ni 6.985269445816775 4.949434460555589 13.333142206008592 -0.3823392380331286 -0.007909998875696055 -0.2074144915653589
Ni 8.843896178993834 5.000681773167415 3.692591103111138 0.13913884711741195 0.3789582373760376 1.1984181800585492
Ni 2.1635960295038488 4.859011671962028 3.055878271721106 -2.1868322534476916 -0.7797052884923926 -0.46053831224237457
Ni 1.4965922598517662 0.16772058647746668 7.980188280283387 0.5938410122939838 -0.4745806492680536 -1.0065624621633953
Ni 8.378875299244742 1.5273796187592508 11.878510945087335 -0.020844447549177005 -1.5205856336977877 0.61695548682426
Ni 0.5404972314143305 5.864073261709462 12.984799663606715 -0.14971533708167764 0.11280920808394766 0.13106892562508393
Ni 3.5200306473129532 0.17394672204917314 12.299496065974722 0.23739638263942986 0.38068653292105403 -0.47797707654411226
Ni 1.4725135388255692 5.339407673383724 10.681150843523634 -0.8346811305076399 0.46796648638564564 0.4812498337581131
Ni 6.4320805478823555 6.091313291740895 11.033580737221095 0.6293561744814581 -1.0062102210302992 -0.2838893839946466
Ni 8.164217444824686 -0.07605628232579188 8.424545070735624 0.6013283218099644 0.8823830645692933 0.15509896999109418
Ni 1.3955729782285649 1.8492364959213698 6.187794267986866 -0.9161730165355447 0.9734733929189106 0.1738363984995974
Ni 6.457523265822176 6.095284656904368 4.297620234764734 0.08014565641265552 0.3256199309642134 -1.1931049953757515
Ni 5.488649349293303 1.778466397552659 5.252879235161915 -0.8709773938355129 -1.140406379430455 0.24546424724922888
Ni 4.234653683364435 5.231364271599895 13.377985228349791 0.39547166165002856 -0.1328617558594486 -1.375515251587289
Ni 5.004411887176096 4.263863630875214 10.65620361834019 -0.42883763870498404 -0.5096677227791738 0.015108573506664303
Ni 6.906834983838184 2.0595054351023534 7.126267755344976 0.37490515035258665 -0.38916525981602657 1.0992962396537067
P 7.196308532914975 0.29916906183219455 10.590663102696091 -0.3596855051893547 0.19499066397970935 -0.5849254549719087
P 8.86357670589039 2.1418648677915737 1.2545858033690467 1.228897836704645 0.20419649884869348 -2.318599490691381
P 4.553828961152154 8.789800246977368 0.6438659281295679 -1.660351572876237 0.5167598537392648 0.4996072532193782
P 4.979878500512025 3.2613537360342155 7.508520003330762 0.18757405980066405 -0.24660247461873014 -0.21845275165739153
P 3.1818522016402055 6.333770702305261 5.482349910486103 0.07429202584535594 -0.05360827224375928 -1.0704204371596209
P 5.316869248191959 7.349688594018265 12.556563089739763 -0.9436236565473297 -0.9559567241913858 -0.8471342686693283
P 4.8930002481157695 3.187614392683469 13.417314733914969 -0.21207204494202833 -0.3763693936029389 -1.1260812210570348
P 2.2492494683450146 5.404118656210969 0.7891399504319003 -0.01500881470400641 -0.2150172436132813 0.5489369526924417
Ni 2.671336921431982 8.52142689505417 5.664166987515784 -0.6192990473557722 1.2078813823539778 0.2674896024803845
Ni 8.617797452502371 4.014354263478512 7.301565483860976 -0.056452940781405996 -1.0749527778123358 -0.5351244722893815
Ni 1.138399247221983 6.861795249016928 4.816195159321071 -0.14088822570835088 -0.8151343187239639 -0.8952642914073357
Ni 2.9142118820719474 7.2436494325973095 13.18387826076165 -0.1390599142503605 -0.5446156996092685 -0.2015660032043819
Ni 0.8569166787030965 7.828349442903585 11.718450082774465 1.5361315518521867 1.4182711544975768 0.8881988999201219
Ni 5.493270236796596 4.116904562045576 5.304729675660717 -1.1773461898795983 0.7962179414354352 1.9216844117266068
Ni 5.411114939699891 8.3992703007151 10.434160694916377 -0.6608053941296749 0.39987081915898876 0.34968519944353327
Ni 7.8415904197453505 2.371211205982138 9.728296003672844 -0.30550490538189323 -0.8979076425674535 -1.4260811374602986
Ni 0.816646293634235 6.041931036133411 8.12230933557042 0.24875165975124905 -0.6547802709815175 -0.20009018998980377
Ni 1.8859437870117883 2.710243309587221 1.3802637366789992 -2.729523482340738 0.9716507378878748 1.461849810419476
Ni 0.984536683809112 2.9630930775887125 10.892464585782669 -1.6236981833192619 -1.2142579753042828 -0.23856006393022783
Ni 0.21513478939529507 4.698124988388528 1.3602593765015896 -0.798640949054631 -1.1489123600189375 0.653047861671443
Ni 3.8585524119367487 1.8330541107692746 1.2540253583786873 1.450910794909469 -4.069697378314255 -0.49698472799486665
Ni 3.849997274832258 7.288735561871411 7.371301913820315 -1.3686362650792687 1.492841373704984 1.4257821181626413
Ni 6.3649013801637935 0.32547842815114614 13.205104650826978 -0.15662234861415608 0.42238442688047256 -0.9674313004898887
Ni 3.5746925916541197 0.1627136971265087 3.4176919074508594 -0.014083988896891872 -0.8825028779766091 -1.0368870812888658
Ni 1.3790936685782658 3.8637578695458803 8.442335487623303 1.268089419302442 -1.6445976524760901 0.649566587991062
Ni 2.017230809670618 -0.2888351614056529 0.8780818280906709 0.09625156083558262 1.9183340071971349 0.28289873794660314
Ni 3.1759786639101155 7.06930835769896 2.033246174792474 -0.1688003787375867 1.007756996692129 0.7656524099437523
Ni 2.4905748542599797 8.145576153671842 9.997693745114844 0.5622390691179866 0.46255765666524856 -1.025086746219828
Ni 8.41762394626031 2.0550237309575934 5.305340226660148 -0.12658029372611104 -0.24156516930513883 0.115771118925749
Ni 7.5135909170266455 7.461146627531437 12.53229507934596 0.08298672540587644 0.21944416903638336 1.3006246729259858
Ni 0.2990716334812215 9.11490473583859 5.186890549103339 -1.3709947380091163 -0.41094610313654384 0.3815378251777558
Ni 8.92195948534967 3.478090061941696 12.793313982604278 0.13520017418463812 0.8550072436595016 1.4850581302151393
P 3.1624778781324214 1.432642146051169 4.993054525119809 0.6589223181743491 -1.916602112107693 0.21917600297666126
P 2.9001821995318275 3.596896976785407 10.912523691414437 1.8595305639056814 0.008633764415598034 -0.6040066399730758
P 2.7922408655442554 5.723730041855424 9.09808860246064 0.7897896693115882 0.5588547260267859 -1.6673935673246834
P 7.15002542675749 3.62655231104349 11.270507929006419 -0.15417260152208287 1.3360603880257764 1.0846903168150739
P 0.6586100852434897 7.7457116434973 6.953033652091492 0.013936150465117933 0.7571937376534379 -0.9584836043782975
P 7.936392844687415 6.526836578371575 1.2668552803682531 -0.28736217303459544 -0.12118766195563001 -0.007012940982723406
P 8.780586308642489 6.367666489553315 11.16643960394229 -1.7975438377902395 -1.4665053069136162 -1.0064611606988407
P 7.30317351559656 5.017727095142414 5.964420751655479 1.4886000819301266 0.33793114423139864 0.45053517828307565
Ni 2.6668644961777908 2.6715224992433595 12.872787680326581 0.196829516960661 -0.4856304793243119 -1.3499083496524622
Ni 8.860737365376318 8.948320813455807 -0.00853472354523935 0.7449773980929041 1.1448461603693638 1.1804291996802962
Ni 4.934764534566218 6.356327685278165 9.228217619576476 0.5787028711009646 -1.1584560378433146 -2.496476120698623
Ni 5.0631751011487 8.354601721516598 5.39324750802049 1.0842385739896359 0.40461244760903226 -0.05475215604021539
Ni 4.131194053521623 5.5240297590323735 3.6056070713623973 1.9401508459619103 0.42887363414924196 2.068811676366134
Ni 3.089165363747842 3.4188814612217877 5.254074356267185 -0.37140613606039263 1.8019386244238256 -0.7723866433437924
Ni 5.906143751548684 1.1138844183390495 2.9690983755648803 -0.3995939113485183 -0.5839888020902523 0.1956046434146244
Ni 5.363931781157228 6.312484927340292 1.583755374188486 0.6360063328081239 -0.6740095515247747 -0.12828622067362422
Ni 5.736803998666951 6.295022055289694 6.704155249253473 0.9286356677789297 -0.3953693317442094 0.2884798315788064
Ni 8.291291851165253 7.4381999311546405 3.416388223325934 -0.1217111385592678 0.49180035558044977 -1.187763014337548
Ni 7.174317562266771 6.642303092610495 8.72596611930888 0.27477045241251385 1.2884047338210263 -0.6775455897024911
Ni 0.7335315592527097 7.107463155718121 1.7535804130469705 -0.18179293434251273 -0.5261986305546615 -0.8121726649924786
Ni 1.0496281011496795 4.916531514598405 6.140913601276748 1.1162992019696065 -0.9811674191290586 -1.712064684979813
Ni 6.489331302692235 8.34716005128037 1.5956518397868242 1.175142754470376 0.1305307937334268 1.0278563385451653
Ni 0.7700755418691162 0.5074532463204988 10.105632295435244 -1.282397608394998 1.095404103688152 1.8431559792024
Ni 4.227156339784795 3.8490786646659405 1.9175801644063237 0.7831158568358384 1.746739867764495 0.9316037492683182
Ni 8.110177186151633 2.735843768666711 3.068331470753576 -0.24825903638554664 1.392562693987879 1.2175045072660386
Ni 0.9462983757748313 1.2797167505857527 3.491109273298867 1.2497497404529896 0.6719752947035653 -0.47507352974407224
Ni 5.528019681976985 1.9727663660646308 11.535994618073644 0.13815977103359434 0.4421808927811095 1.5254632735050633
Ni 6.010911704961705 8.987923118403712 7.797678070128212 -1.3359547156858476 -0.975651631517152 -0.8058053280135542
Ni 6.399205438596877 2.436451085571807 1.10227745412646 1.2847622519724327 0.1402567627719391 -0.22698315772590585
Ni 5.394088175506029 1.533550080987544 9.368695383343765 -0.21171723270577086 0.08420902784875174 -2.0085835848130116
Ni 3.5297085301762765 4.910091964543613 7.018138987767912 0.09024109297544458 -0.5038341468165324 1.5496393565306346
Ni 6.606347391656155 4.208904762035844 8.391408296736103 -2.3344102324713925 0.486334447369872 0.1256171584818933
P 5.082066922346904 7.620966238689517 3.3702146080771627 -0.12812038451972127 0.2730159316152524 -0.6526282576355212
P 0.9364720306624063 3.3370230886232863 4.274859116199315 -0.1726189811527285 0.7930909657706793 0.2970102376473207
P 1.2983673206291655 0.6610068226774268 12.358015245125364 -0.06844765124943696 0.46728797226138236 0.1733489173402176
P 7.1891452293958125 -0.06910546540065729 5.867550062005616 -0.34926688095919206 1.1153080417009307 0.43306247541960896
P 0.10985556911192892 1.929842218293075 8.25306282202154 0.8207406091671479 0.20694552234874034 -0.6433781997921629
P 1.5297086202920351 8.36860356738501 3.272841930447524 0.10886436450358669 0.8346135104944981 -0.23171090221887838
P 5.818411841220093 3.2475838624300244 3.503263692055019 0.11829131424444145 -0.6120181974236427 -2.1380890226057176
P 3.8499787170511204 9.242814242330352 8.548522183404303 0.26270349394565085 -0.3613348678673196 0.6577910327833832
