# total energy = -340864.9170118164 ev
CRYSTAL
PRIMVEC
9.26436690400530 0.00000000000000 0.00000000000000
0.00000000000000 9.26436690400530 0.00000000000000
0.00000000000000 0.00000000000000 13.55933742057215
PRIMCOORD
 96 1
Ni 0.3989051044343992 5.730575974361244 10.074397606278307 0.48422074346097893 -0.5770249691779095 0.871885507472079
Ni 8.668464171744386 0.6435733251151255 9.443333029177658 -0.2606962337076349 -0.3809310448316924 1.4409665392125635
Ni 5.94396213420233 8.792060088838987 6.887627754206895 1.3043954528223276 1.9229095423829594 -0.08126640028066004
Ni 0.9980965540954062 8.03319727787632 3.115637117565449 -0.8698422517898051 -2.6527413430836764 0.6509269586736983
Ni 9.015599994661311 2.6196016125917403 7.930775071037301 -1.4099559497636622 -0.009033056736545735 -0.620772289467189
Ni 3.8077937084654327 2.8167936593167666 7.726788537722276 -0.1510386838787915 0.5737439844337925 0.03293017506911748
Ni 7.409594221773197 6.308746575818394 13.011336206067403 0.842653092969523 -1.2772458889907294 0.19952968950064345
Ni 6.895495980905678 3.530233280000232 6.712373727996075 1.5450537940424809 3.73046962675862 -2.7500205738528254
Ni 3.432540532397911 4.308227008345431 5.026907481311365 -0.47607111777065103 0.2547654700454967 -0.5069017299982626
Ni 1.259221995908495 1.3139188173256695 12.798888526580239 1.059907196333123 -0.1856670725859383 -1.2138771949260965
Ni 3.9780357122530337 0.8025498589089451 2.1367613452102545 0.08623994223585146 1.2538879309910793 -0.5195477008970472
Ni 1.050004801114449 4.5522967509327374 4.920737838113394 -1.2567372275144164 -0.8183957630840552 -1.7117340411132713
Ni 5.173602244076602 5.863565959361843 0.7991618799807167 -1.064978183098127 -0.5982219149704988 2.1096703622537083
Ni 1.4490396066836448 3.86120278290141 0.5646761248182183 -0.3494656272335594 -0.14614407479065153 -1.2449821438610174
Ni 8.763775977086508 2.549044195262269 0.2648219241547982 -1.227628483073918 -1.1257392643365836 -0.06721043640822619
Ni 2.5661925381557635 1.1114831390081428 6.259477746892467 0.6142069775448454 -0.07717808914389934 -0.24428693911167604
Ni 4.568351898547229 8.876449205757863 10.421177677511219 -2.5279484802752914 -0.6672349518051025 0.6451628024964116
Ni 6.2535865360626595 1.8422471255537551 2.3497926798040045 0.6904651259776367 0.13928514288728916 1.0654003582372102
Ni 1.1339492284283066 9.305500559665752 1.2053589675007288 -0.9597884392326502 -0.8914981394966839 -0.3972228400131804
Ni 6.643486675995451 0.935228561186032 5.159639916915724 1.8551627738552892 1.3389641919361326 -0.48712943246734164
Ni 7.822738657934933 4.241264165323185 2.832654255229064 -0.08758591474078464 0.7089868389309081 0.02490319099958292
Ni 6.338364756385926 3.3757962859243014 0.40800271260371923 -0.13731542075542802 0.4832159563455484 1.4985595071356836
Ni 1.4701716272887557 4.145933831247521 7.201485971681664 0.658610443360885 0.49428609811678104 -0.08786539365441642
Ni 5.482633726463575 4.1739492763636346 2.747379464846862 -1.814145965123295 -0.39839037795872034 -1.4159782446983422
P 4.762968451309862 0.6523596505609331 8.348686950339498 -0.8325836245486629 -1.1087159903057098 -0.3738525407183561
P 8.66918679235254 6.324477470595895 3.6984315644781063 -0.4136521892137973 -0.47447420559717635 1.42089290839114
P 1.1883310613752602 8.47696971058365 5.342690834201189 -0.8051566386859618 0.5497702472270145 1.0665977209794213
P 4.911355813884198 4.61130150289852 6.464305484710318 1.1967179095379905 0.5970741745193008 1.5452697667080288
P 7.923136600634445 0.8051012655177341 7.076861709875461 0.16918964375620538 -0.08010966096839751 0.25224784582996557
P 2.554982654362609 6.012648149444019 3.2892374543076106 0.08960577338429085 0.3335373860390772 0.67725942592064
P 6.218178126263127 2.793086144749262 12.01377605880805 -0.32069369730718966 -0.6828060667704821 -1.8196738369200598
P 1.5678829036246194 2.3172404742800334 4.779910198824358 -0.40318831356799595 1.9035347374007732 -0.17411767718544208
Ni 1.5704028113863862 8.119170601513073 9.644620852452235 -1.6276049745728356 1.1953631952823092 1.7542346334796433
Ni 5.016061687132319 7.610436429006078 8.417596236820373 -1.8990075389543812 -0.82766330442891 3.0034922647875626
Ni 3.7614718746094247 7.839720242226545 2.442253839490628 -0.43995868831880997 -1.9354984347915634 1.0785646635333102
Ni 3.2204977057386484 8.248343667403935 5.099042620301971 1.5727391757728915 2.7367040592495773 -2.293759034608933
Ni 3.011039637408551 6.57053905203901 10.040133345775018 1.947748712913826 -1.6545673620942924 0.16388931458921452
Ni 7.461585848093181 2.8090393843292714 10.068878822992701 -0.24362385160638045 0.6707617340114383 -0.15590372528057667
Ni 4.687334160989772 2.1204931171600245 9.854898817241581 -2.0153988079626326 2.6743717768692585 1.557800552185188
Ni 2.015787243911904 6.880672994071754 1.1047034754049776 2.0474008147905254 0.8609570334850334 1.0115349756773224
Ni 0.8418937717128842 0.18897455339897057 7.725730547037005 -0.4911467811568509 0.28731075097136966 -1.0868965804377733
Ni 1.8676407548736187 0.8235429140124881 3.300559436938696 1.7990042243858504 1.2460465805697896 0.5279253834377812
Ni 0.6785685441566625 6.951276733235082 7.89550747961269 -2.1795598881559948 0.8613365283116392 0.5845462172556191
Ni 5.447280902864669 5.026854674420768 12.278129206004223 -0.48078189298275914 -0.7144100668290083 -0.8806565687964897
Ni 4.4395030854933575 6.7901416019835725 6.170786258045045 1.005400066424178 -2.035746518381049 0.98278978522383
Ni 5.986105738644527 8.598740547424324 2.2364635339652494 -0.33058164584486294 0.9178082381461227 0.7364662752980994
Ni 6.352187191608558 0.7834393231333104 10.289638492346988 3.015901437085193 -0.15378462205504484 0.5265405872751125
Ni 0.6651194629149091 6.218715459535857 13.215025353209073 -1.936357440357749 -1.5124149249615373 -1.9651489106681448
Ni 7.31995220889505 7.784680639238837 9.350085324752161 0.20660613673145062 -0.5180387204516884 0.16408446131915613
Ni 7.019999805943856 5.478446232682992 10.598127082841168 0.6234950877149907 1.0506558529381842 -0.5710332703708488
Ni 9.17618852827332 7.810852475367482 11.504487877168136 0.7203048350468885 0.1914818794955025 -1.6567677121797209
Ni 2.5252255082935093 3.9714116900116245 9.429108520437154 -0.006500263012362999 0.9023150276065299 0.22548497591382458
Ni 4.517722134142613 1.3713115694732634 12.280013578205486 1.168338072843717 -0.4647670056117415 -0.6228273722240047
Ni 6.539410779687772 6.523559448142246 7.277567730916803 1.8531346876816668 -1.9291442104387615 -0.9238307901911186
Ni 3.006185109220442 5.146707787339804 13.012136647356435 -0.20839562453170557 -0.5531946995275312 -0.5675710228538613
Ni 8.234382266679734 3.9235982931054525 11.912610100103203 0.6270645502338039 0.9486823020171596 1.160526032998466
P 5.835828445248865 7.659982262498463 0.13359124240405018 0.07298461988784204 2.815267458776777 -0.4698004542705909
P 2.4730300659045596 6.043933916030367 7.919479955069852 1.342537768220004 -2.5959405320445486 0.79923873053963
P 1.831528253199475 2.105206911987542 8.2333511426581 -0.06717212697112303 0.13773013969534342 0.07707653056902855
P 3.990088653422367 3.889014411948557 0.8300900420096962 0.9537615163122798 -0.1843442400094567 0.6746682681546962
P 8.249946402855354 9.016665396839999 2.2005993173205733 0.7565208799561294 1.0997135296967835 0.18760928391397366
P 2.6061219589396423 8.84966592142232 11.732433915826844 -1.1023332267078176 0.6271190576208232 -0.1829206201890527
P 1.9949980048773275 1.9546702163222869 1.3342661460652594 0.6037256183975473 -0.5379945947483251 0.33293163413427823
P 8.376210457580061 4.696413240425549 0.7222620771596806 0.14861593336991177 -0.01238037594222384 -0.7513331651076028
Ni 6.352418800777839 5.353293901970829 4.568900349060084 1.1504056567350123 -0.3440603970575881 3.232936739569768
Ni 8.787020273315454 5.630326261530071 6.532346700024731 -1.207745628107062 -1.9455241944586814 -1.0078834949676643
Ni 2.0807397193447983 6.456689248787712 5.710392624913504 -1.1551907368284815 -0.9690510954814988 0.30743066164969635
Ni 0.6459403708251674 2.759363849702088 10.162872308943282 -0.6538742142274803 -0.11755366474746852 0.9779013467832772
Ni 4.189967366511041 2.391633339452782 3.720275088451245 -0.6063856817282137 0.21069187676505002 0.528760991965199
Ni 0.12005692898800176 2.5883251103721636 2.591270252568729 0.7216158405488282 -1.0793326520475863 0.7664119138175962
Ni 8.425580268103793 8.500834719386264 13.518008130531129 0.27147738348353895 0.8347556924993172 1.7934490988955758
Ni 3.5420453476335143 7.165589329753288 12.477342737558725 1.7842180672156114 0.7997989739184742 -0.2404675653655859
Ni 8.652492403430834 2.7154136937395075 5.291598777894689 0.5085526353381242 0.20374964111926203 0.5480974875102819
Ni 8.468288998919032 7.937996644935453 6.171166097082664 -0.6468178216013313 1.1686085528962842 -0.26951974553653585
Ni 9.058216081808839 0.5905348253499961 4.377170572983359 -0.7632497140395307 -0.6093059406988023 -0.6683893771245198
Ni 4.978985691313969 2.454056642757139 5.873511257090727 0.02854695839975729 -0.3812958843702788 -0.8082946700943111
Ni 6.106635150337859 7.907887452929048 4.818554651937072 -0.12022015583603812 -1.1516552128713973 -1.5014291153739947
Ni 6.3001955652885755 0.6737214274619698 0.27186191646423435 0.2172638735556129 -0.07022299798230486 -0.846143879731601
Ni 2.2217063241354023 3.814899477778944 2.7968984316756114 2.5360387134825935 -1.4798773573451482 1.0008728679777859
Ni 6.809902496306546 8.254411827639073 11.829274341686215 -0.9768798474972983 0.39594577307296974 -1.0230339774558574
Ni 0.6449916996677963 5.268562003481418 2.2994334349091066 -1.2937377159981653 1.8434390576604573 -0.13962915649026922
Ni 5.866901131399475 4.488576436280413 8.743033986322466 -0.7389116515147984 0.056108412957793695 -0.22325994323804776
Ni 6.291903957028349 2.2042151996713737 8.131737715038208 0.11321132861837277 -3.561493127454486 1.2257505493249148
Ni 2.797551569532981 8.067067802791833 7.632944208076712 1.1586563267795786 1.7045403515783095 -0.7642699277739289
Ni 2.977706445765768 2.972518400373895 11.909138741874036 -0.36442919052192724 0.5440238316615404 -0.823630272010117
Ni 2.3246982895308506 1.037516434706869 10.221001578249187 0.3726469504460292 0.8340185572229766 -0.2287127388225029
Ni 7.500561039099625 7.009447692191458 1.8579270663140137 1.1746539877594158 -2.369777813337409 -0.07986977704344954
Ni 3.4698110799184554 9.19261425055866 0.20628224340092943 -0.6624447295053107 -1.0385300162089275 -0.6427999586911897
P 4.205244307316753 4.547701625014221 10.595035563649619 0.21095490061844957 -0.4680924704405487 -0.39262827866396255
P 4.875298898410681 0.32254634063280124 4.09592292654322 -1.0483014937733945 -0.4506125684882304 -0.08722056098156591
P 8.538410991010258 0.8704456236650505 11.958928228212503 -0.5894945623998299 -0.6005204811966884 -0.8529920130016858
P 6.7354447805663975 3.091621099584463 4.363855825059788 -0.7557037833714727 -0.22795143517644612 -0.4531929276208969
P 1.175036695058586 4.173467529291532 11.787877445205776 -0.0637913834243482 1.0256737290715499 -0.005595748920222621
P 5.285478737205634 6.889594579272422 10.708879808280853 0.39465379373442355 -0.3612086267021005 -0.4001400136599754
P 5.51768082595903 6.365676109627428 3.0266473161079945 -0.7693537700547395 1.661424494225442 -1.063888292468058
P 8.116724808685474 5.313197722585069 8.65438233425216 -0.8911808653665813 0.21667251982851715 -1.0653376233200749
