# total energy = -340892.97399147647 ev
CRYSTAL
PRIMVEC
9.08714576232819 0.00000000000000 0.00000000000000

0.00000000000000 9.08714576232819 0.00000000000000

0.00000000000000 0.00000000000000 13.29995636594007

PRIMCOORD
 96 1
Ni 6.389999179728742 2.0116850875662653 11.462992858651024 0.30582192240167977 -0.5690571204810845 -0.20542060106378168
Ni 4.593615838864743 0.6098065532045587 5.875747600029987 0.9850222740987746 -2.162501390011811 -0.016913487925887
Ni 2.7732969558231475 1.6250724672375645 4.913070816479205 -1.0883351126565126 0.24715783290156793 -0.5020816829017998
Ni 3.322296872550341 4.457872054108129 4.8424346143323245 0.6697440913802013 -0.0362371279551634 0.05528874526997574
Ni 4.881442096622205 4.794423587930993 2.7000109419454437 1.420670507967689 -0.050160937125107156 0.2271618493956152
Ni 7.156454496725433 6.105217115832135 2.6600447657680397 0.44718323109170727 -0.0156616177966569 0.19687553970724805
Ni 5.237249292508214 4.6120082220718235 11.454468207126043 -1.4667536754789965 -1.056098364109994 0.2511003624890837
Ni 5.4985501715198914 7.601897299308407 12.426255763109344 2.111766325550789 1.6459019731098106 0.548401649014262
Ni 1.9643864933998323 6.368262726847645 0.2597069936290077 -0.6637693618540051 0.689244109086342 1.046380879711914
Ni 2.603594507012747 1.5577094550270425 -0.0053668683409597035 -0.09855372660619802 0.35032720390290634 1.1333630994304287
Ni 0.5513044169155907 0.07842570357233089 5.162072243578439 -0.17258375703941892 0.041602763142450934 -0.9724899459597186
Ni 8.801418726235875 2.190247503583634 1.3918008896103955 -0.16795679979036882 0.32537413350199446 0.21397517550201212
Ni 7.013204729493993 0.8026648670783412 4.813985486809394 -0.05748009649433971 -0.7847937587588936 -0.1617864093135988
Ni 0.6656697823377279 7.7368232409382225 2.6748868010902367 1.0923375489476865 -1.0296723087079815 -0.4868494393330776
Ni 7.758741436736385 3.9719823653321122 3.7909264364925974 0.04393115416531144 -0.17152497675760137 0.15951381122933816
Ni 7.592292186141466 3.957715546342429 12.733232272038054 -0.6003687861101725 -0.9247563873291815 0.04521104931899956
Ni 7.755070229811652 8.821046961279006 7.033110122485649 1.110223685199488 0.21501981471644258 -0.3380517289696629
Ni 6.833351938765455 0.8745396472050272 0.3973427221522787 -0.32863557786208564 -0.8038345774404285 -0.2028027038249604
Ni 1.905338219645081 6.304180174290165 9.455285214824748 0.5212718826770055 0.4035750074834534 0.2556321889211662
Ni -0.15415434225540198 4.839341349883861 1.3397442658751741 0.5770452808928836 -0.03905017192392629 0.8166533264716517
Ni 6.373306092796228 2.0059874471162455 6.810814908334683 1.13122188471771 0.616117564303997 0.2435158652736064
Ni 3.5059480902455586 4.387019577889939 0.7218365221423975 -0.046553165169190794 -0.19504260026356732 -1.0932657171889109
Ni 5.857628739913089 5.756752333795593 4.966203358283458 -0.4219583950866475 -0.36320714518936803 -0.943392257262814
Ni 5.633730553233601 2.888540139534714 8.962973640074205 -0.251926715045121 -0.12361709733272903 0.9984406043872095
P 0.032755525942809595 5.500467559294938 12.47122259564982 0.7627249518843122 1.3451060431678126 0.027347024554385164
P 4.014155809237283 6.083298920033973 12.649894966132013 -0.8122963350545365 -0.5620863455902062 -0.13440236087369112
P 2.3932725162380906 8.284360127183035 1.3933965924222353 -0.10009690272360182 1.035481716300907 -0.3415006067502119
P 6.537210942552221 7.756406040252087 5.579464844341442 -0.04209178696372751 0.042028794936276 0.5541115549148456
P 4.632090814407619 1.1016074303581476 12.494152190781454 0.884768019861702 -0.539829848184851 1.3571380346316821
P 4.107817021547259 5.9742713440860635 8.43718683742927 -1.1316006082133672 1.2799954267114084 0.16300639776362894
P 4.601439871444435 1.1607556627172853 3.6625686838855467 -0.056001969286916455 -1.17797765281601 0.5835378305957627
P 0.3331965595738253 5.641572760104999 3.4526556146742884 -0.13543800122705707 -1.146908442215031 -0.2504323898877816
Ni 1.7397885964896391 1.0776809753264056 2.5324712338481294 -0.39577788003653774 0.5940248461700156 -0.33303242137820066
Ni 1.8217001292112966 6.447484464396725 4.963384525639763 0.5474169165034894 0.4388803676529668 -0.6181744468330257
Ni 6.171162533289541 5.489808337209016 9.219516489517094 -0.27202682822910573 0.5828891412681704 -0.09084684488024355
Ni 8.607017414996202 2.320320909327788 10.19610569336928 -0.4325140591153067 0.29799985525409967 -0.5747911947513843
Ni 2.1756626344890857 5.433440771480988 7.142702010191048 1.5562869437541391 -0.6566317223679595 0.14291091256533453
Ni 0.47386739481209894 9.270797070996442 9.00994873184826 0.28604345422317184 -0.1505460605130891 0.7166019322740046
Ni 1.1600105167573145 1.069366236870635 11.16936991055374 1.417421662013088 -0.858571306861676 1.3216043605014465
Ni 4.197470802535928 6.930211826415793 1.406283982671387 -0.23892901723387236 0.9169957695471562 0.8121790927503819
Ni 5.80161557287334 7.8505852198757005 7.890212445512777 -0.9016830504494858 -0.22410660750905917 0.5321795307284447
Ni 5.304176121717778 3.0498915013059302 4.745104921241371 0.37733612839158237 0.030622095761231132 0.3915748976987837
Ni 0.8185755507528862 7.608948924490568 7.0764012853307765 -0.36016038794324423 -0.5099603143189282 0.45318470009078077
Ni 5.104286174382711 4.70275246056289 7.1471837905258955 0.04634413448217825 -1.2850802974334836 -1.1065593489740233
Ni 8.443912234075297 7.258630364699953 9.262648627309789 -0.5031103812766302 -0.3844503708388605 0.17519599785128537
Ni 4.534122294963179 0.6025395626656737 10.365241104278434 0.7843109055852041 -1.6875726133757194 -0.058316476352706016
Ni 8.591469308441203 7.087183183885718 4.677075821239802 -2.0922984466341643 0.5989562220333621 1.4121362452444324
Ni 7.171911731821899 6.047404693913433 7.01926494706356 1.1080716718534915 0.3950217185968036 -0.08431290041646769
Ni 2.388229150289508 5.372184321283885 2.5695913159442796 -1.9006183350849268 -0.3702761362210074 -0.09766489624334147
Ni 2.268433306505438 5.018503517527547 11.660058521054886 0.6133268889327372 0.48231401335656937 -1.083332774345915
Ni 1.0458759648398512 3.3569915954182448 3.7970711645185995 0.5306612943117054 -0.13047808611862044 -0.5072657982059006
Ni 3.6379843194940253 2.8150705653107733 2.763770900825132 -0.8667818676969266 0.0845918651094672 -0.6452481631213661
Ni 1.242294622458957 3.357791264253336 8.328592718338564 -0.038779948981675146 0.0779087966623368 -0.2786651594812298
Ni 3.8788118588982146 2.511487196643686 7.056345045717955 -0.8455083030301308 0.6854856704851743 0.5498975168334982
Ni 3.9690653915132024 7.026308393814453 6.270291481259449 0.9019381038830854 -0.6505253523599055 -0.5792484591917896
Ni 0.8921032827102878 7.443926355794617 11.606512514114309 0.11451847746557052 -0.26478685883724074 -0.5528949088989251
P 0.25667915663068774 5.683255498134092 8.153565202058129 -0.5434903277555737 -0.997719667060785 -0.3350036861719585
P 8.52435164916872 1.7256853461253157 7.8054248311285495 -0.44930182009660685 -0.3620676322682861 1.648243990979426
P 1.804907083674396 3.210534065700589 10.565698089514745 -0.9784731601263471 -0.7399467776475321 -0.8398176804032569
P 3.8109490536657606 6.360447781413805 3.7501624089092735 1.0815545993995694 0.5665276691910114 1.4415949168251816
P 7.031469892659128 3.837774308224706 10.505369436909264 -0.12518058516510697 0.6268223523160108 -1.2278837936178335
P 6.506478215276357 7.747536985899265 10.105639521541322 -1.0481695961812205 -0.5637017697064421 0.8481303140340103
P 2.466923833379097 8.526041858297434 6.040720189423744 0.4192535945609747 0.7022155816453455 -0.38334402514855914
P 6.886148256173135 3.889961786860215 1.7348997120205634 -0.6573449463849002 0.23428740469680295 -0.8146026145902101
Ni 5.305493757866507 2.9693157790247082 0.2180487908937189 0.3783314024253162 -0.14524213180167245 0.6800562719394869
Ni 1.4892468981682712 1.1274240117273764 7.138579172117405 1.3216472979242402 0.2818906083970629 -0.3074111212656706
Ni 7.0493897442818385 0.6171753197770007 9.217441894118785 -0.6650063195848999 0.14415686915729367 0.17479721975096993
Ni 2.6695217501784474 1.5018507694668 9.327924322117806 0.05260091402516747 0.43511704395579254 -0.8275943988641877
Ni 6.357685289074403 1.9596884389936757 2.74811647466365 0.5299691533406873 0.565555020865097 -1.155059610567256
Ni 4.197052793826677 6.832688577118164 10.581617860335145 0.016763592611584034 0.09107413039970122 -1.474750577641544
Ni 8.102898911638462 7.2338588051038535 0.41608677790388315 0.2636303766352944 -0.3322340938466214 -0.5175975191492118
Ni 7.844233304924243 3.8542765650943016 8.20171071821809 -0.09181897898552574 -0.12547651913897098 -0.4989061133872956
Ni 3.291073439398398 8.41011713864687 12.451738846225757 -1.1805600688312057 0.08046550164591948 0.017840884836162824
Ni 0.03507002199164542 4.70941333847336 10.211906422578998 0.1626464433210489 0.8098856687305148 0.9073757299588888
Ni 8.936980768075422 2.4176078928332307 5.864004281443766 -0.5065543739611728 0.5319571303049936 -1.3071786719944198
Ni 3.7129260113462004 2.7118405884172714 11.422827673979434 0.04739108768945387 0.5019307591462324 0.07199448806043085
Ni 0.9027615960816249 3.3830353554338064 12.752198054148478 -0.19705937358327996 -0.8424936845735232 -0.5013345203231301
Ni 3.2854757575527644 8.2071920845968 8.352705459860298 0.6808101193863759 0.05350671366888849 -1.640079967111395
Ni 5.521686044862396 7.8984563042308915 3.6279757370512 -0.5641897650864541 0.7826108921749618 -0.20941378138357483
Ni 2.8793166864936133 8.437342227623361 3.7335374755706585 1.0964387156002535 -0.16793083164843983 0.0702502516758145
Ni 3.5321826803240395 4.06226315938466 9.440189648133245 0.10033601531760139 0.7360543845716614 -0.6761456240311711
Ni 7.048162979591642 5.996225888467639 11.40128114244667 2.183649741954652 1.162065609571444 0.43937041991550785
Ni 0.6174088594254306 9.098141299783718 0.23576872530765627 0.25114432835314165 -0.5104220844466951 0.465947656183404
Ni 4.609600128420699 0.4603393607802895 1.420900656776422 -0.6411760499345215 -0.60611828699944 0.43727831327316946
Ni 5.911624560573405 5.560333676176487 0.44279299085215007 0.8337599042449513 -0.5044422127141764 0.33478797061672666
Ni 7.972498368643589 8.777274179703653 11.451448548558991 -0.3884286387603181 -1.0341213456182707 -0.3964155136205367
Ni 0.06943942503800131 4.896599455905512 6.096008202224398 -0.14861644759054404 -0.4391004540835728 -1.0521861735397813
Ni 7.8982291255845585 9.003789464388893 2.442722946542585 -0.7977685737520066 -0.3660960367013889 -0.7286532070115838
P 8.77063147608489 1.3715683593680206 3.5914672198709767 0.8515683931812819 2.034094841710239 0.8956597270735412
P 1.780898844329974 3.2884654285385007 1.4862963019097042 0.03906019922625532 -0.8166520409200709 0.5197107088374726
P 5.014986792082319 0.8424638397720445 8.191975658865447 -0.6665212135675295 0.5651109913491429 -0.3301461009693411
P 8.4962178456069 1.4565967831173599 12.404457517636445 -0.2575636016159242 2.09110596898796 0.8647748645692268
P 6.34895254190938 7.7819863558291305 1.5302926272730475 -1.29307128605876 0.20719183403159155 -1.3002045546694316
P 1.959979227660981 3.332138251509466 6.054392709074621 -0.671982750902733 0.18301189435127835 0.6966262604830261
P 7.06312950881203 3.994818362861458 5.894527095650419 -0.6212852245478654 0.3250686864464337 0.4296552495102729
P 2.5025454451240376 8.447701573896124 10.211453882715503 -1.6738128405874657 0.344438092111981 2.455259023030365
