# total energy = -340889.74635957467 ev
CRYSTAL
PRIMVEC
9.07628565752228 0.00000000000000 0.00000000000000

0.00000000000000 9.07628565752228 0.00000000000000

0.00000000000000 0.00000000000000 13.28406150480344

PRIMCOORD
 96 1
Ni 6.621576893747651 2.2319312268951794 11.344109855183234 1.7480768414083636 1.0331787791993432 -2.336328532540028
Ni 4.508644846691366 0.8475535285221361 5.969670868900995 0.22130307662199306 -1.0825539871983614 -0.26165628362805904
Ni 2.9555471686109636 2.117896775251837 4.513326394777774 -0.36930605899825425 -1.095451926206952 0.8485979976990482
Ni 3.722184703831161 4.538469521006872 4.9290375178853205 0.12817206369326314 0.19116023449002562 -1.571138664054991
Ni 3.899426408040902 2.8243857661358014 2.496632926288016 1.5049762092953047 -0.19915765087320542 -0.2732954105288842
Ni 5.141252873202773 4.7211933016884835 2.801542570664935 1.2461417113867572 -0.8090397757904517 -1.0293444930549176
Ni 5.580563246367455 2.79514197409546 0.24886721162325898 -0.2174302239301481 2.5755036043464354 1.6228363495395985
Ni 5.634449153674564 8.143660904105568 12.384305729235427 0.0812219201959698 0.45789727507510175 -0.5497381084374985
Ni 2.03104579882911 6.569751303260268 0.22061545759347295 0.8967704436392169 0.40203903045490114 -0.26733790739386865
Ni 0.7593075270104579 0.08470715777594601 0.15144508542108262 0.08907586902274982 0.44390738855391293 0.09117903140868168
Ni 8.318887672923331 0.08622743560547957 6.591776725403128 0.029759233540303586 -0.0853056033470402 0.49562821396697226
Ni 8.893325785348287 2.2816874242772873 1.4297101141783473 -0.3265846088703279 0.5544375707956968 -1.2747814866106368
Ni 7.217879778061242 0.9511130390128534 4.546044588926447 -1.4617148275035083 -1.435383388697831 2.243787587786813
Ni 1.0458240787214077 7.920865322723117 2.2324131776578553 1.2485382366433917 -0.6859176158162703 0.8938584121987444
Ni 7.630814465419209 4.2997450584851284 3.455755787298263 1.385880396871697 -0.12534924953248733 1.4717652697609749
Ni 7.833315472313082 3.7946406913724533 12.71105291664433 -0.5789723227122674 1.7851313230584998 0.36442893341161114
Ni 8.09508462384489 7.707990121446219 8.805672465282987 -0.27465166744646247 -0.6293145226102451 0.2867620775567513
Ni 6.883228053567317 1.021744693158706 0.0907900843511902 1.4860467193806537 -2.4035034877246284 1.0560654539895296
Ni 2.1554907499976763 6.726172008419562 9.24162824330859 0.1843133867715213 0.35004849632022295 -0.04353571849910566
Ni 0.2603759416999669 4.776821855821089 1.4316633308285898 -0.11796195592948072 0.28956509422318516 0.5419996021426601
Ni 6.748336297731329 2.061905169697254 6.751292443934785 0.6535091175785777 0.801632170472471 0.5761891035401755
Ni 4.029008536830459 4.596521443381181 0.3853482250589565 -0.6346714160467845 0.13494974873672888 0.6536718684086872
Ni 6.044715413080992 5.6068753981753225 4.995259004882692 -0.37131280501563796 1.232131256040278 -1.3812997194795502
Ni 5.715046569353717 3.276629846208455 9.140842445681786 0.6795775325308554 -0.9315145319886217 0.3051583206757519
P 0.3460106958590671 5.477266040529116 12.599387375529396 -0.14415584071602916 0.8394297009362189 -0.8947984075145105
P 4.152582164586278 6.3909394016504715 12.468048077857466 0.049192659674566895 -0.0971722728776391 1.7616684640498692
P 2.78632890082694 8.853154145506402 1.1451513172604146 -0.48656636087502014 -0.01786453898524665 0.06899915287753278
P 6.510174564913651 8.00146273840227 5.810288571766915 0.32981931375754164 0.38112284912752425 -0.8410667223190095
P 4.991076652501504 1.3650824229234588 12.147371110224034 -1.8445932258695588 -2.8595423694347524 0.6110599472754316
P 4.182869729464807 6.320698027783246 8.109932519375242 -0.26630098148892206 1.0980533683855411 -0.6724856586810806
P 4.92929437676637 1.1522072216465604 3.751830575321343 1.3208381717593833 1.1808475181646374 -0.689347981654058
P 0.4134456822344018 5.996819854236522 3.296652132130551 -0.4963771763178549 -0.08975078360258737 -0.10993702874247518
Ni 0.9276780697241627 9.117038071571233 4.428361470492224 0.22837515297742605 0.5988929728955944 0.40347499157047934
Ni 2.0947613233862783 6.7944529046081055 4.473554111500066 0.5849627359677474 0.3116740103070825 0.5570420982980794
Ni 6.216275362536774 5.836641566859755 9.163066638478181 0.19857812422065155 0.9353896986733117 0.2059080822231615
Ni 9.015238452848555 2.457476922799116 10.023222589485732 -0.9468881862312144 2.063074259661725 0.3983934632825139
Ni 2.513259773786061 5.533892986072161 6.694542968536823 0.24902291113476469 0.9703513023501611 1.2528661745947842
Ni 0.4747269470072066 0.42652914785394 9.006899161685716 2.0423290566945727 -1.5646368583807313 0.47680799593667555
Ni 1.439807481852115 1.3193379437542094 11.44069877837197 1.1603573686310855 -0.24226528069595693 -0.6100075947515172
Ni 4.377492520501753 7.1662447895703965 1.5149936160866837 0.4431244876413014 -0.1541774866180893 -0.40301039322923493
Ni 5.693417780889368 8.28496051753947 7.7750012452863935 0.5495635305328471 -0.14499170635376318 1.2005084869286744
Ni 5.600050031442133 2.921638165798203 4.84904095230954 0.04427208244449795 0.7981835498022383 -0.7701369280776672
Ni 1.0180234160834296 7.4447959930831455 6.725135496609814 -1.1783862011083384 0.2409542751940173 0.4513831281056678
Ni 5.469278909245596 4.715320944937988 7.3147491584734565 0.34215880915950103 -0.34414550057222665 -2.210728600449315
Ni 0.601197725110411 7.467604698668925 11.473855357112683 1.2124705443865569 -0.2524753884597394 -0.2923670824483545
Ni 4.7151031140848 0.47845730036803225 10.03832643626858 0.3463602488353583 -0.7761502241512827 0.16447089812429738
Ni 8.282900200719746 7.348796120826569 4.681409219239561 -0.09758879158976741 0.36128987356199715 -0.7393279131166106
Ni 7.400712474169446 6.320071764080333 6.817353280677933 1.0080601297548444 -0.2325416256502898 1.5355173153069555
Ni 2.761396344422589 5.6122304066495 2.3961920275120914 -1.8032465446019719 -1.16943233434916 -0.23916684427629137
Ni 2.801586136835572 4.995052065572165 11.308893867251353 -0.5147194262704684 0.937047803102025 0.8745784809232099
Ni 1.3609164078562592 3.6202489408252405 3.5933522762279884 -1.1906837875287688 0.90957325183084 -0.5698852728093347
Ni 1.8493113332723887 1.5959377458738258 2.278190331455083 0.015554145684515148 -2.35439258913059 0.5189123813058935
Ni 1.6278499658657068 3.6150482292054034 7.893482169220413 -1.6618538684533768 0.6815554821928327 1.323240867663605
Ni 3.8265892165065325 3.109390208674212 6.63683685264195 0.10137731209792217 -1.0341817665425608 1.7033635576613888
Ni 4.381930824135436 7.248802682928232 5.857739392619461 -0.450307892763618 0.1066403602690744 0.008575657484152972
Ni 8.582862361843658 7.114591648508453 0.6187612452771598 0.5994028226524774 -0.362971117919162 -1.1445931638182933
P 0.36927775386509293 5.995231504265368 8.250145701428874 -0.4740031794980289 -0.5645489481980859 -0.8037407321750417
P 8.764106707980707 1.979029606345188 7.837117528329748 0.24946359821660907 -0.4133860800366042 -1.0831597391031604
P 1.9538338376599031 3.355067105926838 10.377283042998611 -0.2592654147983793 -1.329771212582955 -1.1103769229479006
P 4.2256916446871315 6.230597741133814 3.7867416000587637 -0.10038692316019486 3.6327653926369115 0.4100318188523906
P 7.313335073184851 4.241883738107358 10.31775713185107 0.04669688983590667 -0.5568292109563249 0.10813828497083958
P 6.329347727911875 7.8951249769048655 10.180160642921345 0.5777047688537533 0.26136137809545956 -0.33125810308659726
P 2.564758617993664 8.66014693329726 5.917903366641128 0.20224657421117428 0.5311150940196724 -1.4988788381483154
P 6.804963243274373 4.102471992067741 1.5383341920056601 0.5382133956273505 0.7200904050432373 -1.3997566406331572
Ni 3.3365151782637534 2.0865109798218247 0.11509274653840873 -1.0964999078554922 -0.8823241863068998 -0.4651148758694635
Ni 1.6636922175005013 1.485152604457188 6.8119474450046775 0.39713593672632896 -1.2156890513238547 -0.3642551268379081
Ni 7.18465149666469 1.0632777758330083 9.140337804205236 -1.3732300550975385 -0.45040405202185013 -0.6350421691226418
Ni 3.1253463186701524 1.9862089482148064 8.80430376142213 -0.5986985974966013 -0.793976453699426 0.013293374674796462
Ni 6.890779523144462 2.0820091421892952 2.5777322605580544 -3.00009146663613 0.9693046062532016 -0.8304154132527505
Ni 4.306379823221779 6.732434645448685 10.43918694096011 0.4854407319110091 1.4570161364762586 -1.2323518566915164
Ni 7.552658570552859 6.248568786521733 11.158451711383485 -0.15501438069708787 0.29895219186503996 1.1045258634837622
Ni 8.099786139759507 4.017717637606939 8.057952632033517 -0.25392574775302074 1.0536061938157597 0.3142492272334265
Ni 3.259884099369712 8.705455750760134 12.11721605911453 -0.3744150980900455 -0.0822670736310325 0.6756895103303588
Ni 0.46371922789282854 5.061472323223071 10.298707823739877 -0.21037537396589576 -0.4662585025556034 -0.07416064247381422
Ni 9.016908489389655 2.5923051446362577 5.56700509101368 -0.8312867601141103 0.8032869324670746 -0.22553228421199223
Ni 3.9547463684648254 2.7093619993675686 10.84606411534237 0.07261206703977172 0.4351430120977216 0.9497020015309258
Ni 1.1682087130702479 3.278254501321807 12.870913534026869 0.2550848010581284 0.6996128539151758 -1.5029375815987214
Ni 3.3103845521668753 8.763616588561037 7.958242374244324 -0.5071428994747911 -0.5387602692697561 0.607000175383761
Ni 5.848259212363056 8.188016711585751 3.672246073109509 -0.7340530378709164 -0.5411390539145777 0.13948826003703071
Ni 3.3825954799983324 8.841618186573045 3.445619391596632 -1.0596084341457814 -1.0155052731789802 0.17171163884711071
Ni 3.6999114990928 4.402043872913026 8.92435215987054 -1.0437611827008797 0.5234876593814016 0.874308772201591
Ni 5.3459594174851635 4.596103934245907 11.462431036491584 0.6233709034323006 0.12378344770726424 -0.03400206797705757
Ni 8.044448026764485 -0.0077711156874426725 2.3696638601081466 0.34142501631727007 -0.9007965340794746 -0.20463847148211853
Ni 4.868401577015081 0.5040124899610755 1.481863358574066 0.40392699150623335 0.2535578228906407 0.05952129529408459
Ni 6.302772363823073 6.033696802423955 0.06110881534736513 -0.1419079252221169 -1.3324868117419053 0.6077373106601017
Ni 7.964594866500387 -0.021381005868849223 11.225217775513824 0.17388730634219085 0.04742399780991832 0.1657299673423791
Ni 0.273960418281835 5.348010658019339 5.52093568082176 -0.12277917481246596 -1.253729551036344 -0.17227959553543878
Ni 7.091982621204763 6.493174682079523 2.459756885729139 0.7154878732742194 -1.9086216650053773 1.5151986583542614
P -0.27337045972112045 1.6927454075443042 3.5326037894169366 2.430065811594189 1.2586267312276453 -0.4925678298740936
P 2.1939378955851643 3.5102080548236585 1.3955968949407238 0.28148514542852815 1.432821541507926 0.6369082757971031
P 5.112608116008696 1.4705125558659184 8.000671286302358 -0.437737255187459 -0.3022588876407698 0.7375458815155234
P 8.621572719712079 1.8288443093583697 12.37925749921282 0.22535693497639253 -1.3509941265174732 0.02321474755356647
P 6.693706135009164 7.942321661762027 1.1244528480648843 -2.2774263588871815 2.123100005396053 -1.3328891893866466
P 1.885725390896799 3.674225610987845 5.745356824946119 -0.12184792124744824 -0.535753107012316 -0.2992064739676911
P 7.300800722841056 4.2464672623098325 5.9332994698186665 0.2386767920137502 -1.2387384769441505 -0.13830298147967796
P 2.3963753684801903 8.859625537103163 10.105132436055337 -0.0597336684152068 -0.4372947683334017 -0.6765109777903897
