# total energy = -381175.01565977896 ev
CRYSTAL
PRIMVEC
9.18523620727502 0.00000000000000 0.00000000000000

0.00000000000000 9.18523620727502 0.00000000000000

0.00000000000000 0.00000000000000 13.44352164725047

PRIMCOORD
 96 1
Ni 5.041822107840959 7.373889296928442 12.280428489600267 0.05124182889411175 0.9314823931991055 1.7202166246629857
Ni 6.796780902879112 7.609766164017203 1.0058981856330933 -5.2733428682100145 -0.9913520729715443 -0.07746708113922789
Ni 0.776837682370913 4.018118341722992 11.942377809955618 0.7653870720975077 0.264939325254705 0.4721877235558448
Ni 2.061387461819622 2.61756270243845 10.465136470205707 -0.7433480900195972 1.183850309546703 -0.40565888659567556
Ni 2.7455314139758564 5.456618191986649 13.357026357229813 0.8263592409055058 0.5696176209702448 0.5554091906803467
Ni 7.919731146757751 7.413532776615167 12.566949993841181 0.8742784331842879 0.5980601925816539 -1.9665686738338064
Ni 7.571114689846271 8.17076365367114 7.264072449282812 -0.9616509463626859 -0.08526729390993701 0.15988842095993755
Ni 0.5711030865842742 7.585223212737562 10.873779364582598 -2.4922654250513854 -0.4562512548312465 -2.1858290089941583
Ni 5.023644525287663 0.34259645306841224 1.7208650350981192 0.534607423443647 0.45045624541602425 -0.10539800322154107
Ni 5.978229388569067 3.7267167214585486 1.6132765257685218 0.35110701949172435 0.009508196600751365 -0.7576873894604047
Ni 1.3890649087265967 7.438782991086623 6.526197620591954 -0.21362550547207726 -0.8314546531505423 -2.0666249531274605
Ni 2.399716454122869 6.354024959566047 4.497046663941129 -1.2963329875291674 0.028246139329886837 0.05675633095443774
Ni 8.155993793769321 2.5481774277504243 2.4209361869246 2.2900903275080946 -0.19900724133827016 -0.8783862847050743
Ni 3.246696274649413 3.5223911409137876 8.352446708317906 -0.6231834700118428 2.0616840641824172 -0.7984522300825926
Ni 2.24901428284852 0.15789972240560898 10.37841222503468 0.29340555101519794 -0.43548779703164997 0.5690818030714327
Ni 7.679151438705228 8.892998780586607 9.795353634937841 -1.3388641760231588 -0.9809277923144268 -1.9639232657911596
Ni 4.368865773446178 3.7768221852423953 6.009495932789088 -1.4938772711686659 -0.7177915817067315 0.553604276261124
Ni 6.213500030064843 2.352118559837279 5.729709962295691 1.331226971192875 -0.26455288844956376 -0.12002603754736105
Ni 1.2016217924228456 1.7548944983843513 1.3479821025183454 0.7563187912476522 0.9784111965401601 0.6348058847421196
Ni 3.805379084766498 7.4505400934960315 0.9651708480680014 -0.039980654157995656 0.28577374550155293 0.48151465738372556
Ni 4.104762675338579 1.6958150587770733 9.067292312664335 0.18481989409429458 -1.4225150173755952 1.5684886280266537
Ni 2.1701865852879383 7.653478703365933 12.195600077192758 2.3954459075274745 0.18213797638675727 2.4092802423074056
Ni 3.739392347493692 2.6781485207919338 2.1991182424513407 -0.17452956791188004 -1.3521804335160905 -0.2534241255262539
Ni 1.9476650517173657 6.59041619988522 8.576442472307784 -0.12547960446276454 -0.31880007982890257 1.24596353393768
P 3.05447683549184 0.4362482034247319 2.5556137950243754 0.05052706221527427 0.26090629283591193 0.3564834533122893
Ni 1.7657514476405396 1.8333456012583818 3.7655840486815273 -0.4585428790789006 0.6853733132770261 0.5623501407745541
P 5.0730243554071786 2.299331007066286 -0.06629168711654981 -0.6409418224365284 -1.5618114731167942 1.354094619819668
Ni 4.811603346286727 5.080142913506626 11.979105895654259 0.2715827987131516 -0.0873383175063528 2.0593392180993244
P 8.226123072594191 5.72268693065332 10.485678332571647 0.21632799200490488 -0.14663412705319262 1.1096950663895275
P 2.1535245667171043 2.663240882346254 5.961260583107239 0.4042591780346715 0.9001784408795013 0.05312284796690851
P 7.997153503170958 1.5863178573531982 4.542539302076534 1.1979445828562403 -0.34917894923107606 0.018416297723658607
Ni 0.620428723809872 4.520514024055033 9.307635960145044 -0.6802678737296607 0.0952809693921972 0.21323624045345857
Ni 7.247151407049521 5.189309446425236 12.690967216740676 0.04477550444347773 -0.728407666659681 -0.6287100562570269
Ni 8.362845314284852 4.13897768039721 7.276144605295848 -1.3764115381493134 1.0635990433624134 0.5048124515694016
Ni 3.7832977768038276 1.6067550080258028 11.43450864533782 2.124474517146077 0.05711859938986292 0.5011342313868661
Ni 1.6824413547863708 8.660520450913067 4.035449045493361 1.4946971959667998 -1.6755190246452951 0.8652482046612194
Ni 6.160124622173379 0.2998235633888083 12.873046155070133 -1.1453817211578596 0.37546205129732113 -1.2181269713413858
Ni 6.0883603712947005 6.488349854593541 10.410206001815874 1.0339884195848321 2.8604599961530153 0.5507824905416128
Ni 3.42025131373205 0.42466194640971 13.36993161417139 0.12648079203376927 -0.0743359917094139 0.6220755816596447
Ni 8.371892771998343 0.4749630557258384 11.729956362173628 0.11761228589954584 1.1500292472322 2.55708910639499
Ni 6.90276934405268 5.92063795723548 8.340790643507328 0.5272669239181758 -0.6030085377258647 -0.009299423024054952
Ni 7.388218265489909 4.107913211374851 3.8548627080557223 -0.6034232566657801 0.400151326513885 0.4035359267154018
Ni 0.5458923686287244 5.882684561020108 -0.027239736644798552 -1.0761092600142823 0.9316297174102471 -0.1282841637910952
Ni 2.734380537159433 4.003734261743982 4.191045110645627 -0.050047037255062196 -0.4091579008878696 1.1626448791136814
Ni 3.9474930601402245 5.016452485298158 2.4519639150019303 -0.4126677138133409 1.342873554292868 -1.5141007973043925
Ni 0.04537506711131132 3.276502366304515 5.406150829894263 0.4370147751991377 -1.0388334063819593 -1.0431279199922552
Ni 4.5347603254901845 1.002394018000914 6.982484335435721 -0.08233160832038079 0.20576744288023915 -1.318794144746161
Ni 6.612451581666603 8.453375002837298 3.0789297714561585 0.7111115985833947 0.39192868149377663 0.6873049830821002
Ni 8.37162640014688 2.462359765397999 8.732656703860169 -0.9320889164348528 -1.6431825172961183 -1.3607869442381788
Ni 1.7905424002991284 6.344417202440859 2.1606559841473114 0.04285231927883588 -0.9102787625382968 -0.060685490805514844
Ni 5.23117575328624 8.22955835095444 8.500661517613764 0.31112867932657384 0.38733591991677163 -0.48484834974264884
Ni 4.2983782704072695 5.645007387624907 8.733919673845554 1.099306524066352 -0.44545262155384574 0.6624228751284398
Ni 3.7951283611032953 7.253452479122063 10.30560177574629 -1.331116927977572 1.043069555950494 -0.05509976918762124
Ni 6.1978759431910895 1.767909978161017 10.254019325972262 0.35089284659838926 -0.6524485375245473 -0.6385262710165003
Ni 8.748661978038601 5.669201299926768 5.190745098852259 1.3172625385929828 -0.1639811029720724 1.7641619198956844
Ni 8.431504955308547 2.8890966566782446 10.835760753189799 0.34757535218938207 0.0558099078807684 0.7955846787268104
P 5.392615465745431 6.553656884383303 6.935002175126974 0.15146548700356494 0.5732896705051933 -1.4086521433505739
Ni 2.772710528061357 9.032715409297165 8.176242647098649 1.955752042834277 -1.7805164499943076 -0.5645008685689697
P 8.692898408720227 7.848325120093109 1.1965469493906598 3.8002426816877 -0.21722633544945813 0.7373610191982268
Ni 6.304819648935421 1.8515874804654797 3.34414336462727 -2.2558038955213986 -0.9572528172949901 -0.4454374520451942
P 1.698533888709249 4.016464999196669 1.504746529722546 0.1795319062224779 0.41388513116020975 -0.42109424731413936
P 5.436805637379544 8.803865247945279 10.63248137105475 0.015379310669547707 0.36768395001379905 0.732084858400952
P 5.05790545652758 3.615391658019461 3.890501424734242 0.10218720959372724 -0.1659927340854625 -0.300341873123715
Ni 8.941671347514307 6.9821389705524455 3.3755743245762977 -0.012556239398455793 0.6159283311113263 -1.1494006125092655
Ni 4.234651101253772 7.560156702991252 3.501446046676151 -0.010590631031652729 2.0925005353426416 -1.1637733362911697
Ni 6.576050490378724 4.887657102497589 5.912178354642461 -0.7539790873708822 -0.3332759048475744 0.9763265460969897
Ni 3.355835251859251 5.917983423957106 6.7039209198881755 -0.3559324659048257 0.020545685361835583 -1.0155914051348833
Ni 1.6111731066655886 1.849658580851436 8.211128174404067 -0.9784929576206889 0.7299220464216783 -0.13506107750361254
Ni 4.648133696614662 5.687663624804044 4.581391014397875 0.8125765852991167 -0.22962856576855292 1.8201314932827686
Ni 8.454183303627945 8.672874593679204 5.122519919503538 1.298099592511287 -0.04044036740323358 -1.5332753133503143
Ni 0.6325798728547211 4.48898110798355 3.400350580856875 -0.3952975979660095 0.16274825900623582 -1.1993923710463603
Ni 6.250764533560914 5.929611933058911 2.823865864349419 -0.8634762003624613 0.9946222590823839 0.07102698194083897
Ni 1.7192006702882874 0.5941029181726798 6.192852537481945 0.841081634717345 0.004236406678850769 -1.0295383542332786
Ni 6.7708142399795825 2.7293286572178905 12.323810360443733 0.5752773903591835 0.36687379540767784 1.2071092800746435
Ni 9.23107058627465 0.3560638464689395 2.815947272171957 -2.1471961271133084 -0.20416178895601617 0.4577854320875858
Ni 5.945906542179452 9.148329978068436 5.181940131375964 0.33439330628146924 -0.12950312379986084 0.7028056498208606
Ni 8.698721848507388 1.140301155168774 6.6081492170036595 -1.4052585442879928 1.2074597214355267 1.3333905545030973
Ni 4.1559887379458225 1.3198449682912035 4.498457516230258 -1.159530758964732 0.25929806780852765 -0.5434458476708836
Ni 1.4638878432789737 1.4723658163445081 12.614352242594489 -0.9119741479628487 -0.21118012925537824 -1.8169055301463033
Ni 6.938867322544067 7.001685153308086 4.994886469089524 -1.8871519251673758 -0.3445136825449228 0.06434005683896661
Ni 3.1930085687251997 3.2352239145639823 13.218248459664755 -0.9541032159224149 -0.6972762353621992 -0.19897535965907023
Ni 1.6471516770856305 8.516762318249274 1.3354359883144304 -0.3975845942279733 -0.16261841829659088 -1.2113783397636428
Ni 1.3959997621008964 4.587033505030766 7.014036540503346 0.9796509824845323 -0.042761816447558616 -0.7057403069691522
Ni 0.5638191942321953 8.67798158503829 8.209784374339616 -1.5014800232165884 0.4328408463271062 1.5398547663400446
Ni 3.672018639546027 8.191503917140237 5.831867241426317 0.35485337390803406 -0.19714987641455722 0.2804844720781557
Ni 8.883914581928087 3.42794854171571 0.4100666059967801 -0.3179585577642137 0.07948334023830828 -0.15235303181484083
Ni 2.0815306849319914 5.547570401406934 10.91252360963973 1.4373752223168794 0.195019974555748 -0.23097505249411834
Ni 7.971342989287804 0.7456014494305412 0.7810509502421598 0.5635158789478811 0.33092643077879136 -0.006300488296731085
P 5.029780263107574 5.737484346263912 0.6274747185428855 1.045948934380818 -0.2830622601076609 0.2480494914779018
Ni 8.001222562832965 5.390998864164137 1.5380733224350907 0.7373815880235172 -0.15136495686995866 0.3097135441466021
P 6.4765560112391025 1.220130043481407 7.896563225345837 0.9505514940154145 -0.4255908496329122 0.2749630280392942
Ni 6.214804333613387 4.344782083979404 10.289644264796395 0.7288470681899448 -2.843329507120316 -0.7569646523617674
P 0.32798274218296763 0.9713662899235842 10.059451221903684 0.23471703603505384 0.5774844253128312 -0.8444986308186941
P 8.884511622284816 6.383684087441032 7.553403717294849 1.2711032664281012 -0.1905917635810653 -0.5186992368538228
P 3.968417028334469 4.165936348812533 10.418702345353923 -2.0083825245457994 -1.6158982276588687 -2.2325827202099293
Ni 5.7640939757014555 3.2815542462460585 7.8321958452252005 0.6312590479311257 0.5926032832321407 1.6385540173851718
