# total energy = -340887.22010449343 ev
CRYSTAL
PRIMVEC
9.12649918008156 0.00000000000000 0.00000000000000
0.00000000000000 9.12649918008156 0.00000000000000
0.00000000000000 0.00000000000000 13.35755407072710
PRIMCOORD
 96 1
Ni 6.5550258937751 2.266173630585853 11.528584631051153 0.7712072783237106 0.3285167928960342 -1.3768913059992092
Ni 4.78456719236523 0.06178366146333792 5.890494458764004 -0.2858645054431464 0.6835159483533132 -0.009549848471964198
Ni 2.8508080412214736 1.5669468963120101 4.890748534363999 0.38601540133313517 1.0218790379158078 0.23352738660232686
Ni 3.2905684039570366 4.713298360309571 4.801586288026313 1.2183755970170822 -1.0846676911072546 -0.8044547275229307
Ni 3.711509925394254 2.618137071260274 2.3631919674131665 1.1041419977817823 0.16938967558215343 0.2514916843902314
Ni 5.143384633919893 4.651092141934441 2.3203540055867027 1.1342750697217368 -0.6121662929657329 -0.1557648857098672
Ni 5.219244095060455 4.751310229372424 11.266188653277776 0.8042827207214408 -0.6867056589352044 0.27374895312653497
Ni 5.969862146187343 7.9040776222898375 12.716163947616707 -1.4418921363506263 1.0000742833358904 -0.6920239858243243
Ni 1.8753678094236754 6.7928259562725115 0.5030042640668613 -2.0140530925680156 -1.3349746111607657 -1.2106656299673342
Ni 2.888418344320639 1.4376426560040831 13.310188613253233 1.1048655062113681 0.9303107414885075 0.9001133919695207
Ni 7.738586812754008 8.804288121390131 6.919453394372483 1.2743911931507537 1.4909295013942516 0.7648949629524375
Ni 8.97653254031528 2.3111125125223455 1.4229672453310773 -0.14901034059485305 0.45075320783115275 -0.9838267111287766
Ni 7.115000503640533 0.5547843697847503 4.638704744604547 0.15615620761101492 0.5538891544913944 -0.06297325839842703
Ni 1.236887053657001 7.798584418328846 2.652502903902813 -0.3278074255338354 -0.10021157392459516 0.3606761512373982
Ni 8.04040014046315 3.8038792235419487 3.531817370492589 -0.12416757051956034 -0.39393157085641833 -0.5566834294070799
Ni 7.824722711965344 4.1554502247518545 12.411945787375014 0.3450957803006379 0.21055355141497287 -0.1185985610722151
Ni 8.187263765183305 7.344039126930181 8.931074360575744 -0.1406318867231707 0.1377306539159757 0.696604148995839
Ni 7.309002496598296 0.6795627791519161 0.3014227135444634 -0.2887760226629865 0.13664076328590663 -0.5967484157487658
Ni 1.770066261945354 6.77205404415077 9.145716844067133 0.5144980542882818 -0.3670553152908646 -0.2979332636822224
Ni 0.35267165701038183 4.726732567094809 1.0602035055332517 -0.4414046767367173 1.184575874858818 0.9609523776337644
Ni 6.650790249615802 1.996786754444614 6.6755842099238585 0.07323581666669968 0.10564688600755352 0.42717593473184495
Ni 3.2276229391487523 4.425183907861735 13.250159064931282 1.2551940513970123 0.8971602228784678 0.8439844101864368
Ni 6.242853989502609 5.7846489719348675 4.580131785550887 0.29827059241698306 -0.5996198237592898 -0.21712940486027765
Ni 5.188971497297793 3.1504036296311515 9.196783257549557 0.08658395583883152 -0.09601219113126691 0.1349543767224192
P 0.5479221550552521 6.106841772301237 12.275805799185198 -0.679078995627882 -1.1957717435746373 -0.4990791486300501
P 4.378967316040776 6.223560570247178 12.725487579173636 0.2104432510893537 0.15395200087084454 0.3636267492252899
P 2.659571377513661 8.858846333456816 1.3222335106897207 -1.3001796149687672 2.0801818658762885 -0.2585295650736193
P 6.593475834798342 7.767809863111572 5.571743261236434 -1.7057693388894042 -0.13033616122411745 -1.2601861052949652
P 5.289664162692864 1.0375095526853062 12.646477650517948 -1.620090154253029 0.1325457672809266 0.4623900207391327
P 4.234494834104407 6.115639717505702 8.005489455819879 -0.4268396344383487 0.40399615418127194 0.39444142061330134
P 4.994987757338379 1.460732698916213 3.842768149175496 -0.022543432518154723 -0.9545243626202334 0.28919974046396646
P 0.6154217429517391 5.825097616277381 3.238551921910521 -0.13628209439490724 -0.35443428409274447 -0.2765272872026205
Ni 0.7894805099128287 0.2280164553820752 4.714241127674322 -0.17325018697882422 -0.4044959766358259 0.3802101075052678
Ni 2.153817299245446 6.705713521649476 4.886273811818616 -1.221248033468871 1.6724074755995069 -0.4601521325475495
Ni 6.1750167211366565 5.509950473273921 8.976623805307026 -0.5835995370716336 2.3036642095377875 0.4319029078938691
Ni 8.716053127368601 2.314206395742588 10.03721336175537 -0.003760752594012878 0.3503362027639708 0.989683941240502
Ni 2.2642661922583294 5.204933744354439 6.985973708907519 -0.34974459192655893 1.8756071577525697 0.20755358824638448
Ni 0.7995935836483745 0.16391922637793693 8.947276634560685 -0.06592334216568646 -0.18999038255164052 0.9227781805568883
Ni 1.817040353197817 1.0906166513832047 11.22823975705923 -0.6335738121072314 0.8983735264602786 0.11588141925136818
Ni 3.7869313145744283 7.262046658344183 1.4276956845535178 4.308000331928355 -2.230788090203352 1.11506635800377
Ni 5.888389888054306 7.79916851427603 7.924929847604317 -1.4246654880596947 -0.345723643692624 0.6367768924255613
Ni 4.828073213931287 2.960371663814406 5.466992954308267 -0.03658576954383377 -0.904730579026558 -0.8609133247312915
Ni 0.6798995469714646 7.713744482000325 7.12523952306469 1.0574780180663401 1.3030859899822849 -1.7648265500628768
Ni 5.526651966763723 4.670960530637882 6.8436897614732555 -0.43280459377253205 -0.3772947336306857 -0.12004866325518036
Ni 0.7514202704043484 7.987630722234718 11.139879729999006 0.48513219953165476 -1.1613071341388645 0.5177145043430503
Ni 4.5643447672783966 0.4578089275035577 10.517243489449621 0.09153230098304235 0.11013963167158451 0.2596801337382947
Ni 8.672610991296768 7.478043514313106 4.713105791176983 -0.8656025026768448 -0.834491383094337 -0.5903949627269123
Ni 7.514914570979115 6.224537105658876 6.708283543817087 0.48663500932942644 -0.9824611982398177 0.758607587281829
Ni 2.7971989850689636 5.315629052845042 2.3596919549796485 -1.7568748993159677 -0.8793903004895565 -0.2817880213809276
Ni 2.6670824863344844 5.786364753779721 11.305232729397297 -1.9500976727619768 -0.3145335912430648 1.0608191666244309
Ni 1.4936702344379034 3.4737007363976673 3.4681290086514798 -0.5900450355866612 0.4620454929155204 0.20599292862748392
Ni 1.7339892107075479 1.2063224079207466 2.642337809121971 0.2109962953793463 -0.1400523600706169 -0.9502059377505376
Ni 0.8631267950035129 3.423231195961273 8.353133324434888 0.6309075781289779 0.733784357590562 -1.248485014807953
Ni 3.2734835975018957 3.2122812940359893 7.461075527047401 0.8862859991681253 0.16528259539231535 -2.5270205691443834
Ni 4.309788452296134 6.649512539731336 5.855617542167678 0.5779629076111467 0.9872956435139835 0.40728896599993086
Ni 0.8317380263917785 -0.02234258262971735 0.2279014614924733 -0.9635005979769148 0.4094263240579078 -0.46182592070554657
P 0.3056866139589089 5.826557856145342 7.745124124112885 -0.7926927018909962 -2.3346485737344436 1.3517382037723495
P 8.523557006774672 1.5343470412597855 7.924261787864725 -0.21017611347089607 0.8436555660921082 -0.3297702056871611
P 1.6704505234529048 3.3231682590092606 10.331654303431147 0.9669124518719413 -0.04020948233935011 1.0126364362716176
P 4.308967067370406 6.263917949597944 3.481913673005029 0.14332588861556605 0.6706501481342385 0.9293895152258187
P 7.115958786053882 3.9799385191221437 9.985012524425525 -0.635612182693499 -1.199619913676134 3.670654968593833
P 6.366673203806508 8.226818012606692 10.188540757221897 -0.26066795157286077 -0.16548365565952788 -1.0131653121918938
P 2.3285349994469526 8.724084446642385 6.038135661213849 2.139585661755902 -0.5952337788764522 -0.18482246519745588
P 7.200424535916238 3.976370057944815 1.3219688422136529 -0.106773543412829 -0.7529287917294969 0.23864439611391802
Ni 5.333133678262221 3.264055923854374 0.0027342991527565534 0.532522001669528 -0.4054362290619081 1.1438272321865461
Ni 1.3319395425620724 1.3929775690428328 6.93297156495013 0.7582800287390812 0.15172131176811288 -0.059600999492084444
Ni 6.680387486439532 1.1062320914712103 9.093528783836133 -0.671546948916895 -0.5910606213353692 0.012823634127229528
Ni 2.8204806844637638 1.8185644785600013 9.086743231699701 -0.9635754170789084 -0.7379073786200002 2.0589311840276285
Ni 6.751911860472085 1.7570153681254543 2.521545854594338 -0.3610001102357202 0.9550804922340197 -0.3484235591222903
Ni 4.536016113839957 6.884218719008507 10.611748388404209 0.9928399703709806 2.1150686504511444 -1.644449299823684
Ni 8.414805642608293 7.101803585833837 0.4430714566361636 0.6074732583654376 0.5779991601657207 -0.16167199522292156
Ni 7.650406577727526 3.896969515124448 8.004875242425417 0.950374345007602 -0.36309530220185204 -1.7684235233855157
Ni 3.19589010151813 8.16849968288001 12.461261738315722 0.47692780934399154 0.6794641468814427 -0.8422836254452463
Ni 8.933948295165875 5.179918010116436 10.206881369963487 1.1655797933722896 -0.38106242820323405 -0.27446346269505634
Ni 8.996528700007168 2.647935091065848 5.53976492077801 -0.6903620247408692 -0.845906052689182 -0.0856987250204008
Ni 3.7300914777140557 2.8996895708014607 11.414150195848656 -0.5467378881585939 -0.588381017620677 -0.6560773925263862
Ni 1.2548023715370444 3.478674678447909 12.581760732219845 -1.3322692964144605 -0.7692136449324495 -1.8658570203443412
Ni 3.3703613862419184 8.799533215320084 8.155307328322902 0.23640933613581216 -1.0518825262564335 -1.0371961278888526
Ni 5.63470971699282 8.018469162946214 3.432678035257062 0.7776440350879897 0.053824502019623424 0.11780151909221646
Ni 3.374833370837548 8.745951538665098 3.5763245690181154 -0.0028071304314919395 -0.29618774174602536 0.12383898353554802
Ni 3.1922668813457515 4.608772565261103 9.295495472623704 0.2743559905829146 0.49056108385671 0.6051168423181191
Ni 7.59701655755521 6.884182213011807 11.33759803342073 0.3745449387996904 -1.1656813519471603 0.34936766820311443
Ni 8.150739515485936 8.803850049429743 2.415847304401915 0.6256229326912709 0.0373118490765809 0.5035850069202037
Ni 4.801934920294789 0.381758722530243 1.4401980757730146 0.9315839517739761 0.5405790676460496 -0.26503111363756293
Ni 6.406948444664701 5.800802875474184 0.4003101574027672 -1.5144728359318305 -0.4673062270938274 -0.8337503911632544
Ni 8.0059658590768 0.1773306169152392 11.160810443206387 -0.09467547459771436 0.3027389126009818 -0.13035647293909164
Ni 0.13749618596718668 5.199886790310799 5.270009334070111 0.7194784824908512 -0.7696751579499003 0.6513069677209363
Ni 7.568697030615946 5.957404474813802 2.4815133786141934 0.5150518699092227 0.6254552967651551 0.4864455190264397
P 8.929950888527332 1.5796509831632686 3.472483261407755 -2.1519310706951327 1.0664887062053827 0.03519505984389422
P 2.0296330249745567 3.2447716310981165 1.2505886668680601 -0.535835125203161 -0.5762073583726206 0.67036115613891
P 4.559498596216602 1.5227746403061964 7.864553492313726 2.1098827353748306 -0.8648278292943492 -0.9376273297545787
P 8.880330112514189 1.7502891382336603 12.390093297750981 -0.12390094712173501 -0.006931437012510643 0.5231487879847442
P 6.517132669201517 7.850222150659608 1.4188128629067291 0.07624914957172674 -0.3219388825682004 0.2881535585876392
P 1.827590586243834 3.4789941059190252 5.757132576922982 0.3183938455294194 -1.1093631369714057 0.30334852116052274
P 7.379714612204297 4.0628710171231415 5.637275175910844 -1.9894198674003676 0.4462859160884185 0.2341940736520483
P 2.661150261870893 8.471964906939784 10.190397999803961 -0.02487773707828619 0.17528495802066585 0.40364982658544674
