# total energy = -381172.5518903346 ev
CRYSTAL
PRIMVEC
9.19372220682412 0.00000000000000 0.00000000000000

0.00000000000000 9.19372220682412 0.00000000000000

0.00000000000000 0.00000000000000 13.45594176536536

PRIMCOORD
 96 1
Ni 2.062602369074182 7.010424589695306 1.0079803889489958 0.6840491951489639 0.8879435893762062 1.6392538716656737
Ni 9.095174635412128 5.480580031367376 7.343365124011998 -0.8580228905573739 -1.2012731330088406 0.25456235289575513
Ni 6.4074267417760495 9.028915479927068 11.184470976728695 0.06414182478523148 0.8265091362198088 0.5538696141073688
Ni 1.4137738162717524 2.135186805393669 12.433061187256024 0.3415116624938054 0.1705908949791062 1.912135848806223
Ni 3.0447860930619552 5.070209049789588 7.340970159393731 -0.8795545939815625 -0.009004003270823202 2.088704815745635
Ni 8.856422865078908 0.9598797540687011 9.607986665969003 -0.34724393699189227 0.6008002172206363 -0.3794657731400755
Ni 2.100177111472883 1.8315365504525638 1.954650603042543 0.22992784217652656 -0.009012487911255446 -1.1176109788024944
Ni 1.1911202534110374 6.256999060071243 9.370354690992809 1.6648885415146424 -1.6444868379298387 -1.8173881262096765
Ni 7.509533377397944 4.057630880396846 1.7140849113304972 0.7179823575612989 1.2077245450611394 -0.2170869816581165
Ni 6.633105039221832 6.897130351726333 9.673759473552694 0.7128992866114368 0.12567397986175777 2.2238723369201248
Ni 8.320539188804018 7.776905204762522 11.163668341635585 0.913102605140337 0.8353041088036195 2.1087697048163103
Ni 8.379654822183916 1.0358382864146929 12.208750915665128 -0.9512271799262003 -0.7347228102444315 0.0822318495177229
Ni 6.103004214174927 8.757617933207404 1.9038948212073317 -1.298963740283795 -0.46518480987545047 0.17062303376862228
Ni 3.5444556978153203 7.314479368410708 12.839215927859003 2.329288852084427 0.5127805573765427 -1.28142187474529
Ni 5.2453218754485205 0.16131764558326595 13.095349349275898 -0.9760362685500804 0.6334434571769543 1.1013407808875613
Ni 7.128085845682235 6.876508832959441 7.449545259786669 -0.25544912637608264 1.4509223648736946 -0.4541398649151985
Ni 4.218677311176892 2.5419630416135193 1.0146798542746462 -0.8456556272412726 1.3574445101285073 -2.2952217351973894
Ni 3.243857758625712 4.827393654269134 5.221403487921126 0.9964138037651679 -0.18373411722928357 -1.0629696373085307
Ni 0.4210439736136707 6.743567610770741 12.990204426614538 -1.0017845811587778 0.16346508256760237 0.9146830622535795
Ni 5.1726271144633165 5.779274870073371 8.500669948008634 -0.610891025797735 -0.5274188761150078 -1.3986978603513396
Ni 6.322026256789131 9.184206640645558 9.003344061158352 0.39114809457401023 0.24987163228830514 -2.4255293571764165
Ni 7.209827229256214 8.277530956618765 13.456749050486444 2.2367386513598317 -0.6237737952976742 -0.7314744785104628
Ni 7.044137968793922 1.4775874416667572 2.996059365703718 2.5775031512749678 1.1966132656393265 -1.26567412499273
Ni 5.063727475678728 6.054525717314552 3.669744985064349 0.9037137077262694 0.19140628906256066 -0.061256018597004185
P 6.293507330701348 7.0955860379065046 5.155320851901214 0.23280696349653454 -0.43834917773984505 -0.06333604105448447
Ni 4.396879227475894 8.009065076319164 10.33229291944934 -0.3704957084309813 -1.2297534998367208 -0.1907876816419553
P 5.078998248158356 3.385156074242457 5.761094284535462 -0.3064670121848464 0.5778122409658952 0.0944312197973922
Ni 5.744743249704023 8.799853892732639 6.418484031397512 1.2621365441531167 -0.3758754846856559 -0.4084482764153546
P 5.338150887927034 1.984133950583134 11.907081907845853 0.4409115391503826 0.5197425905166727 -0.027602335098300852
P 1.0238312852958518 0.3606265091783137 11.227153751150084 -0.3760384926260814 -2.0696169458762483 0.7440859966268862
P 8.027985756489588 -0.00720144255466174 7.585841271185373 -0.32383172871553906 0.7156107720053287 -1.4986770065501547
Ni 7.491219482888962 8.597913785860246 3.705712664832442 0.2927782018438441 -1.560347744087074 1.4367417024979385
Ni 0.5805182779072524 3.4386083747822287 2.740733153090984 -0.39768023926557317 -1.4766326251556054 1.0386171766060952
Ni 3.9357037373355364 4.8475187120403005 1.7174222324684292 0.5845076507081998 -0.10845967286600029 -1.2065171550165994
Ni 6.829850693083395 4.868406848749341 6.302022556150254 -0.36367868550914784 -1.105589014640954 -0.38403282368546765
Ni 2.0748392132465994 8.633282034944612 9.313005171636593 0.32635706624055405 -0.13384880236306626 -0.8256200487466362
Ni 5.798351843520227 1.628566746700148 4.711893842358041 -1.0495623627636892 0.05820617602708685 2.3520132902651367
Ni 9.045500954673157 2.94679020873904 10.99966704855876 0.42236231539328545 1.7582900344959398 -1.2235728249473057
Ni 4.389662155593589 1.2559911568524946 9.76760071483916 1.1173281574547533 0.28141418298127663 0.8127496205418713
Ni 1.1073562509655848 2.494624566298885 5.172908442360894 -0.6769817467792212 0.32897007838336895 -2.379895104277069
Ni 0.5141166197289753 3.502752974174384 8.66557222585548 -0.5254980049432111 2.6739472877373302e-05 -0.1922634948565334
Ni 1.6846944203835512 7.248707480199229 11.281313048922655 0.8027503432373143 1.414850815962118 0.5496964565662855
Ni 8.786513801903054 5.552318645249702 10.741542266925677 -0.41349843724475244 -1.5314649996144527 0.7932526881595242
Ni 9.00560020057226 2.3843550629149797 0.8502528918625961 0.17800055717961602 -1.5337370834780812 0.2240785824846012
Ni 0.9809241840541737 7.409312612316408 7.233335576776028 1.602197076022692 1.0130755806915648 -0.134180217560556
Ni 7.880123123262696 6.539834728080452 1.928734419693461 -0.6738863956833491 1.1768355687917669 -1.0942897875780508
Ni 0.9011879512795973 0.10020329700946479 0.23155124715077194 -1.7220701329319565 -0.9210485994602912 -0.023384697472527468
Ni 6.567802030839651 2.1333204797986274 0.9110050077839605 -1.2384651686781059 -1.0338529224482322 -1.0294565931527495
Ni 3.043342678685494 0.18842349657766044 0.4960610688122126 1.63365220920818 -0.2236031855100794 2.511205456488998
Ni 8.512026033599746 7.165053802419494 5.486215783041074 -1.1826873995868534 -0.7477899278410347 1.1263540151024474
Ni 1.8626205250182617 1.7975289722453713 9.936418598946737 0.001974607227867567 0.0328206460744467 -0.6342484695767528
Ni 3.085624606821444 8.952883397803934 6.124215969903403 1.0210184896877255 0.16898704082709604 1.4198426127497548
Ni 7.949425400777111 3.2375416715134273 4.403928054242981 0.004151303164212206 -0.626078789281767 0.6582180930184728
Ni 0.8691892013606644 4.971597186083088 4.470682751351551 -0.3645299777658496 0.5514275803247793 0.9347453802210934
Ni 2.7022739746221203 5.189957280702991 12.719699378743604 -0.2477800398665991 -0.5614620817426459 -0.624683451596137
Ni 5.318237285765158 3.4083702226536925 8.679876738137873 3.317259153067932 1.053421331498463 -0.11833939387355746
P 1.8794358428179252 6.959702824632024 5.251423748834872 0.7997316110156485 -1.1319495069123537 -0.4347468051005674
Ni 7.537509873879287 3.291968506600364 12.69673070271359 -1.6956389353236216 0.9219615981928637 -0.8091616460802967
P 5.672122038495963 7.005239330406619 11.93002484145387 0.05466885229778972 -0.47928576805320683 0.3791222737577277
Ni 7.584397856808912 5.383356419704478 3.875082172268603 -0.39464608042493965 1.300013264594232 0.426632146413233
P 3.9858095230152326 7.683616506176855 2.015390767125121 0.6894472262360836 -0.23908482608544632 0.03320091223200088
P 8.373973101899502 0.09825514728734962 1.5866571643109924 -0.3104221401778524 0.3928013139067171 0.679802504057468
P 9.037704678295837 3.5266290705799204 6.404342247997052 -1.2238643880457953 0.16184940134105028 0.5814755487500953
Ni 0.9875252765528933 8.915630435680239 5.402896756747345 0.4205034078076758 0.15311947766722017 -1.241219077274159
Ni 3.224210774405985 0.5193129114842349 11.76081622415521 -0.27184736522844793 -0.12935451403713852 -0.9843093071921499
Ni 4.739299408694299 1.2766402567858155 2.6217424848821684 -1.0740564912503117 -0.3655723029874349 0.9767898588866533
Ni 8.403622855810882 0.965920029516694 5.436603700240459 -2.6025986607910148 0.36748417529816707 0.4397812822006813
Ni 7.448349156535857 5.9234048521101785 12.848984257636006 -0.5499517671102013 -0.6976395322388887 0.011840187168037674
Ni 3.026536554607974 1.2671155606456015 4.426600692419989 0.326422886481483 0.5223535457769584 -0.4833036309633483
Ni 2.8080109729894946 6.07153410327922 3.217463501725191 -1.9014549720536091 1.476706415816334 0.859608746987255
Ni 5.657476439122063 6.543328342494816 0.9080418711372511 -1.0431947686744485 0.0036903043673936443 0.15525786416646165
Ni 0.8191735141579695 1.3441865333709038 7.24504194318079 0.21021159469452183 -0.3740955099670977 1.3066420827646592
Ni 0.6847493445875933 5.407388809386447 1.8510667744010738 0.023509395975849834 0.6807206449963631 -0.09468961566510145
Ni 4.4996558473132025 8.618535304627137 4.1417929710110934 1.100222608122718 -1.183907902257516 -0.026447138447935097
Ni 5.275697933409203 4.518548946317198 13.034313147340313 -0.3830486053953274 -0.5059756186395673 0.1726583190310962
Ni 4.2270987606599375 6.911408202214512 6.302655084233696 0.08093987017917673 -0.47299556416912086 -0.12693459174173624
Ni 5.699675623758725 3.770428194369681 3.1049580851160927 -0.6116312463978693 -0.9040137554651914 0.6163029408419257
Ni 4.904611726548726 1.5342575449566014 7.199184576503404 2.1953508324416644 1.5518384210644822 -0.8716885609699246
Ni 3.265260743774764 3.1032213910032675 8.69165021871428 -2.442274437845239 1.0080182207733155 -0.1955493646966568
Ni 3.2580344781703166 2.9907913629157425 11.45850089766928 2.072982519914372 0.06528416591979079 0.5963825477689149
Ni 2.94873927783337 3.369894495484971 3.49049774255768 0.3403523520783816 0.6867640229769657 -0.4973595948357822
Ni 2.9046277989909504 2.551037245368723 6.390549826038027 1.2956788988849361 0.6331305539222256 0.7936486380463622
Ni 0.4595031520825344 0.871279853775997 3.36308378612139 -1.473144923717321 0.40744477485150477 -0.8555903698564814
Ni 0.34002797471677965 7.351116351150815 3.5451700500258365 1.583554007000208 -0.29206909159196154 -1.632746409564459
Ni 2.3533078632378537 8.841253223542855 3.0050480678429916 0.437817216495775 -1.4377475180546335 -0.9692837803175952
Ni 6.976812341540266 2.2569116865678316 9.944721449414137 -1.0590499905391504 0.2915931803968074 1.133789902555202
Ni 0.33709425798092807 4.432449738447407 13.061292124969134 0.1322025250088949 -0.31820358389548425 -0.19455511910418752
Ni 8.814094968332245 7.96046706107093 9.074081478699298 -0.24705190345132294 -1.3940176812668508 -1.3056529793785125
P 3.2850640212709235 6.783891276090219 8.696992690651614 -0.05838975279280267 0.4595751769981569 0.04927056410035385
Ni 7.297930668553192 2.1532708568490753 7.4213554689516075 0.6466046771492606 0.17131157519521464 0.036596053956478906
P 2.1175992149339886 3.8763766483463464 0.856929372882889 -0.16230114416648822 -0.8950411196529359 0.8534810368229625
Ni 6.339255292085233 4.730969896432684 10.911826549715073 0.058736080388627876 -0.20626649400384478 0.39425141608968234
P 7.482191247744474 4.6761569250157375 9.163199904920871 0.2541499479486849 -0.2575700293738274 -1.6116052567104697
P 1.8843912590530365 4.19214422907201 10.296392353852893 -0.5475105046585603 0.2143359012755405 0.016801387828054935
P 3.2469560429879247 0.8689621164237306 8.026253659237836 -3.467118729036958 -0.5345827408532988 0.655479096820755
Ni 4.0419188092543505 4.9210041331298084 10.430789861629053 -0.9494117239840164 1.3635135991407228 -0.012778639821907023
