# total energy = -340865.5691477331 ev
CRYSTAL
PRIMVEC
9.35774577457451 0.00000000000000 0.00000000000000

0.00000000000000 9.35774577457451 0.00000000000000

0.00000000000000 0.00000000000000 13.69600683652647

PRIMCOORD
 96 1
Ni 4.16640535823627 6.529573079506684 9.029969337231762 0.2623983040004062 -0.16908499985754105 0.7310510178197991
Ni 3.5137306542121003 8.095975525222052 5.013395527642501 0.1030133050394484 -0.4743929587372797 0.22461002950803896
Ni 8.047455612675774 4.92809780211852 6.788850016999889 -0.1519776507532931 -0.029970321109845155 0.4839839448598245
Ni 2.7272588991586737 6.133497126096115 0.627092498253867 -1.228871868562716 -0.5144905980891139 0.959739588272586
Ni 8.586901591182109 9.25272392821062 10.868247053759726 -0.6477801855146005 -0.06875309830499772 -0.9352917396428667
Ni 5.453806609628145 3.723166365436453 1.9414094342083004 1.5692530169965038 1.638028998119637 -2.960157863665986
Ni 2.1356996336764036 5.866501919775877 3.8394157713342185 1.732430136010042 0.3820818706066839 -0.28269639212780995
Ni 7.929398290268086 1.3753453474593642 12.60959910969524 -0.7045997656068058 1.0112354421590326 -0.028728735393260197
Ni 6.495576388613602 8.607395054726245 11.743640789328294 0.8070821378434488 -1.062220932067964 1.5952016185414657
Ni 4.880008345884127 1.9291741814302368 9.00790470814924 0.4993853670165592 -2.7231553740308647 -0.6460130663118487
Ni 0.4299210488199006 7.587718913835632 1.08960189720731 -0.14967162832793576 -0.14932247251863315 -0.5382118529654538
Ni -0.050991293241259145 7.169830054707535 4.515929333065552 0.014890801068903389 -0.22311544724038349 0.23569842611171668
Ni 2.6806198935404186 3.463283046008245 5.431617522525014 1.8073991333177646 1.8535902871618466 -1.1984737158868328
Ni 4.349227640090976 1.8560059661555297 0.6458323202143644 0.5125576427324592 0.5140715082738243 0.17313448733656633
Ni 8.152674107694166 3.98601609031831 9.279935317543952 -1.9684633197533583 0.5742142392019917 -1.5927395301542182
Ni 5.683567344970245 9.068731928117094 0.56342800972593 -1.1165146604145224 -0.021788299519685056 -0.8287418822050695
Ni 7.85772731433907 0.5439816779491851 1.1829089174561438 2.992929144559736 -1.8841609608598522 -0.84515837588988
Ni 6.030954946408145 4.346036648735473 11.068194946405356 0.6341399690233466 0.08238148772170972 -0.10873195269078048
Ni 1.3897562761616342 8.81490307029302 10.926345555020058 1.8591958062740819 0.057134797339779025 0.8226090298344542
Ni 3.093193552991314 2.7707069134214266 7.648548941127258 -0.7544444570430748 1.2552745269259606 0.0017226391180615495
Ni 5.7178073372570015 0.3529395520866386 6.800231843350909 0.007522790739606398 -0.16941075862807597 0.5853491727728887
Ni 0.8557293683121081 4.02992263413068 3.866506445745304 -1.1344025964385367 -1.5774304106009736 -2.1472380360948375
Ni 7.976383532485033 4.465291762619712 2.501274014291487 0.3805047559275511 -0.5294243365808109 -1.0510548881488158
Ni 6.173230115232373 1.2093482927518535 2.6134172412836967 -2.06955909605512 -0.40190661864209487 1.8357650860549675
P 5.640867950380336 6.569128271470643 10.665915743230673 0.25879850246428976 0.4425986970448184 0.3989907305468806
P 1.8176672811599455 1.4878441687961754 11.582740898818269 0.46880183780274753 2.4000587237091375 -3.4089472629025486
P 8.111762042573176 0.7288214898222092 8.630977510195459 -0.41923559683884576 -1.2993764023411816 1.9633478529036639
P 1.8780621732667313 6.855297499161628 10.350497009147036 0.414397294909938 -1.4027810292817775 -1.1332540846563903
P 2.247000663536663 8.186586578874053 0.009359617459747003 0.9773863548200714 0.36940401802869927 -0.3154663874699793
P 8.458691114461457 7.751077084196362 12.891544250882196 0.1187973073465825 1.6881081741642154 0.009856581079105607
P 3.0142983972193416 5.1519818730287845 6.919756460317371 -0.11267319672671561 0.019075528574212307 -0.13276842481469392
P 9.238734098074326 8.611905488255138 2.9158661395352916 -0.8618373792074575 1.1892835647471325 0.3570789208044431
Ni 6.67873554932109 5.878835428886003 8.263033748315822 -1.150491017359967 0.2940159309056872 1.2308269354065577
Ni 5.111210174096454 7.139408022752288 6.816885823747941 0.5466425002313102 0.7715348368664583 -0.13506004906234806
Ni 6.717252031488974 1.8248446722733487 10.421292100058823 0.995156534319299 0.1301109325871888 0.39989987262471133
Ni 2.2143327725628805 8.122261433484828 3.0792870067936233 -1.0304747500046187 -0.4559095552211116 -0.809719832576612
Ni 2.6092670809723613 1.207167937954692 9.391913848208137 -0.264171593850745 -1.4147016919787634 0.8118926718582146
Ni 3.843263676452643 1.096110209488108 4.9078822636279265 0.3361367713351372 -0.7546899973949777 -0.7919643083654039
Ni 3.850403636582404 3.1430422654568932 11.882861589887316 0.41438983871077023 -1.147214146380908 0.3212115174838726
Ni 6.072091597430989 8.584571512450378 4.693525313829207 0.3701486095042077 -0.12766941302523174 -0.33066289270475957
Ni 8.71516821437822 0.013144825680570502 5.623018985830525 -0.7000617685271362 -0.08976209645649702 -0.5435286371926769
Ni 0.558442202704781 0.9625283866147941 7.500741472920704 0.25422913792605245 1.0698733064068995 0.5876528812054008
Ni 6.794612516931615 6.114107876569425 3.7706887422686655 0.5799758242761173 1.7767852650866496 0.4993398584906046
Ni 6.32988813952114 8.685232785210323 9.229451214131046 2.163470695903616 0.12929203623031926 -0.008152711014121444
Ni 4.339570446311273 4.0162509673553455 9.500673314279085 -0.8606988947276404 0.7084265955520638 -0.6980529656272236
Ni 4.906631132999684 6.977331863581304 2.889103922005667 -1.908376895984423 0.6630533096235871 -0.6185865946697798
Ni 4.0837951773378025 7.304104350778231 12.776566562653677 -0.011482289607986676 0.4656116130002239 -0.31610402105397817
Ni 2.257640420636975 0.7981923318064087 1.8163094722283224 0.29327159654049495 0.17930744891649764 -1.3898841187144515
Ni 0.7411147606249182 4.261367763736682 12.919744753958275 -0.5487361495355453 -2.6528161621856703 3.355784819946956
Ni 1.0393929115241742 5.448510125442765 8.71268747593733 0.03192693061558372 0.7020235202391975 -0.504425243433312
Ni 1.1994945863080286 6.202220412063304 12.334623617662475 0.6055166488596991 3.897415725896288 -0.44328723847141077
Ni 8.453198117611956 7.118362452199428 9.436042170598586 -0.059652678665626305 -0.2759187070843442 -0.6598306889212314
Ni 1.5492029087317494 1.6211452592921722 5.4354111527171565 -1.3615199657494617 -1.753503411740574 0.04321227372141591
Ni 4.1358803910760065 2.62133857319699 3.232956167038556 -1.7258146875760534 -0.5755733243330475 1.3469981179842028
Ni 7.4299941065130595 2.24778671419315 7.315585369235902 -1.0897384207619425 0.05911531810491754 0.8534257581049945
Ni 6.908121974826766 8.118284391472839 2.314474690424791 1.1270446134115686 -0.9201466564713121 0.7258926135473112
P 7.225246625989899 7.288102605271165 6.3819836467798465 0.4553639671302867 0.1509150138167336 -0.40357552170408556
P 1.8103401661119731 2.1008888188891026 3.3947469149592675 0.15042496155419255 0.9432320775358658 -0.26463516375072493
P 7.463728780520646 2.4878128967991393 1.5635633056061022 0.33590125828556344 1.9144860942059545 -0.4641478839705038
P 7.992441424467563 3.471667586344111 11.689308780796964 -0.30546711016542233 -0.8168744413435222 0.08700741652949531
P 5.614020577362927 1.172048317552342 12.34985428490651 0.12652552922877564 0.4931134179649185 0.6338419781669535
P 6.55533495399847 5.883252284955789 1.4000610259583484 -0.7910919330627795 0.92305765947052 1.0603437696499094
P 0.7797613154609601 3.3510743147946616 7.837978727369414 -0.39581156148795055 -0.18470727977583026 0.045429078867076596
P 4.159555488229736 -0.1871530466621157 2.763635264836813 0.7184652107349885 0.2891112945152182 0.41488220496615646
Ni 2.0014253376057085 2.4909570994250894 13.444493456737478 1.5759101173017054 0.2859760913203462 0.15587415759422185
Ni 6.181099979543159 6.092397906056915 12.854812290859456 -1.9692379931358537 -0.5460652875716016 1.2547698193754002
Ni 0.1502021153850681 2.24778671419315 9.801656789521086 -1.0334335755226267 -2.5607159045142995 0.4550068409011841
Ni 2.8011663763603156 7.3630862232525205 7.346894515503471 -1.2741330543933604 -0.26803056258551905 -0.1740109764042487
Ni 6.510127683504531 3.381730290397672 13.40702129901321 -0.361997441151983 -0.0016349645002617006 -0.3267972391017662
Ni 8.638743503526637 1.5523658268495204 3.470773921609652 0.3609288906781526 -0.4462044121182057 -0.009876121463131379
Ni 0.880079158945989 0.5328178870778811 13.085083023353683 -1.8451920357958222 -2.3746135441631555 2.1313121088932006
Ni 0.4551149081349145 2.8802954757800525 1.437477972981742 -0.6519358595541869 -0.12145171425029405 0.9038191229558821
Ni 1.9702172549939745 3.4570882182154508 9.85700224193453 1.796504340782132 0.9329978014023674 0.5900764030452289
Ni 3.1400945754950653 0.46992821991133876 7.040541565657988 0.3444830864173035 -0.5361598555324315 0.9371491045665795
Ni 4.454287053428888 8.69926940407617 10.835445347019423 -1.005407779733662 -0.7039515904998457 -2.1885114409223276
Ni 3.487987495212136 5.288876337954439 11.068715237077985 -1.069448560164655 2.0767227036830946 1.3654552962481257
Ni 3.5369097908325697 0.5694525265431516 12.464776762434157 -0.5974084179302679 -0.4219280560693443 1.3884759255130152
Ni 8.751972229044473 2.889026252714609 5.620773126811991 0.7474016912636806 -0.011311311247761165 -0.7825630696561618
Ni 0.04452789814083198 7.3290988901053495 7.080986679258041 -1.6596442623965675 -1.5380693923048478 -2.3211202002307054
Ni 5.209167058288247 2.684194552478254 6.022627488322333 0.24592550315636358 0.1659423404635013 0.6730983525644149
Ni 6.206749561084018 3.990451661879918 4.074096809476093 0.36176295654367374 -2.6705868559055297 1.3687051706439912
Ni 8.302257676074545 5.70452869580991 0.1318553187528146 0.21623620362204693 -0.279849409597318 0.21652622405864
Ni 0.9361489008929117 8.320842159452926 8.699018616485768 1.5553556901891215 1.1002439482789568 2.114505835969139
Ni 0.14979973231091384 4.672734273965115 10.931742167086682 1.325056580716105 0.5523912297896293 -2.181071696814831
Ni 0.8221060514808574 5.070195173770448 5.839100568200562 1.3367047064779947 1.043631341991235 2.004386001791896
Ni 7.991683447048807 6.257936431214807 11.502111752729068 -0.5176643678314052 0.06711941935631666 -1.164658824219917
Ni 2.8854983825063263 3.8586665262214326 1.5370340959496507 -0.1210321102143722 0.4019199883785336 0.14866786965376977
Ni 4.796050649574539 5.03063998180649 5.62819569086825 -0.6210797934052787 0.6625360036675364 0.07672120411213884
P 4.3747087822054445 8.768366999879783 8.59535350728853 -1.8711180116329647 0.8369915238083714 -1.31553270038607
P 1.5405750670022085 8.686402503449145 6.004411700132828 -0.6226846759985534 -0.17842453209091205 -0.36084173028098504
P 0.4957986442556864 5.216194725467082 1.538992672168732 2.4464964463463867 -0.5878889084756068 0.16604698436216564
P 5.837146670854436 3.6110324961901537 8.125252169077847 1.6659882023367243 0.8351886662716778 -1.1549521384551142
P 4.1559340405623475 4.738219779847247 13.388421843241373 0.1789930029998724 0.027442926702301126 -0.12910306014796477
P 4.237711382074774 4.9462143982013735 3.4155510556676356 -0.7753434119792711 -0.17754727169228132 0.4771988036171911
P 8.284084933516228 4.912563943906982 4.680870834034351 0.46709359686238916 -0.13482762133656778 -0.3411275396815093
P 6.911939935158276 1.5576623110349 5.085409932846435 -0.029932011672742 -0.5965941495590886 -0.2381170628555383
