# total energy = -381167.04218837817 ev
CRYSTAL
PRIMVEC
9.33011121774975 0.00000000000000 0.00000000000000
0.00000000000000 9.33011121774975 0.00000000000000
0.00000000000000 0.00000000000000 13.65556086927144
PRIMCOORD
 96 1
Ni 2.2738600652563252 8.247939608502822 7.10411462368427 1.7103898683805512 -0.3822428216645804 -0.33420638708164374
Ni 0.22056103016938003 5.473173862264779 13.619564540266643 -0.12829547664500487 -1.286564338178178 -0.5159049619381373
Ni 3.47893723022361 6.948245785669842 10.300403598635722 -0.21311334172234914 -0.1368716483497901 0.3359519090178408
Ni 0.3390245192981592 1.8992747600603932 4.973669563988064 -1.036145832247467 3.4919026208498574 0.9680920740023392
Ni 6.474388097110237 4.231158786983888 9.633178422063859 1.1155224717045822 -0.3189193790155862 1.3720684306892692
Ni 3.3468135252599858 6.85603629649849 5.245223384010434 0.33716341282743867 1.1655096022559863 2.1143682819500107
Ni 1.3652191939197353 6.51384513745281 2.0016456733596932 -0.8547971845312248 -0.9298415151615728 -1.4659949429361012
Ni 6.377214988770703 9.122674855671782 3.820688941030905 0.5878331155370069 -1.1875735240345613 -1.0269176287809798
Ni 6.533233108564625 7.672271746328143 1.4939868578781046 -0.028785813883440745 -0.16186328529812125 -0.43395799065068486
Ni 6.832113891334538 5.666689699045412 0.007449160796762777 0.15665654428620115 -0.35465848428840857 -0.1870043033401231
Ni 5.847749837349493 9.003557325746593 8.273098253403212 0.5640056741001062 1.810931314840739 1.110001798996669
Ni 6.323734791266889 5.304028275986583 6.968965163652521 -0.800074596177364 -0.53476528917775 0.7325222030486869
Ni 3.101263658214391 4.870374036667021 1.515726017016954 -0.7485106080571432 0.7164792906532111 -0.7061987346628096
Ni 6.995017633207632 2.991998725735823 13.50861365669091 0.6205306057700282 0.5525393253317193 -0.4431473704594368
Ni 0.969631808371207 4.2147377912395205 8.614296688615255 0.8647769214517559 0.16724820375911842 -0.29984462177232235
Ni 7.334167175996117 0.719522315973185 1.4440894230821537 -0.7554515581513507 0.019254734464553936 -2.0035329097629817
Ni 8.452996792860603 0.9510368967129551 12.718720842875262 -2.470077061879804 -2.804901285051105 1.2703507045327926
Ni 1.3429575485526561 2.6425300799397973 6.972856753041711 0.28398065815687223 0.32262331022973467 -0.40960398728635267
Ni 6.351025366580681 0.45461713320503977 6.099679634446223 0.30173823925060933 0.7280855074335718 0.554880057649754
Ni 7.429922107430457 7.343935802441772 7.437624114241238 0.8887408884665211 0.2670496867294884 0.43790103445883294
Ni 6.03741233819693 8.541847441993333 10.605468379121183 -0.9815970504673093 -0.49222947269806844 1.045868715962186
Ni 3.1756712951810533 -0.004699577020703171 9.351901693140803 -0.4276325626532893 -0.07943448927824384 1.1152031406919505
Ni 3.906890771588734 1.135241282497634 7.5223293949596375 0.39678472403449727 -1.3497345430787593 -1.392544439155434
Ni 8.30011359043606 5.094445987687882 8.483558505167561 -0.25691388384706726 0.7286701762924482 -0.5316455126018457
P 3.7272488101898484 7.134372174365509 1.5354172167433666 1.855191827321011 -2.664772563216598 -1.6178671784597813
Ni 8.434103317643363 4.631401898030393 6.021775071794908 0.23680322914012122 -0.2515032543544572 -0.2703301572529731
P 1.0283275380460999 1.0962694079384179 8.966404822874964 1.2266553205273714 0.9562076638599273 0.187667905066051
Ni 6.126813463891545 7.297891703579015 5.527579606801456 -0.6051623508440739 -0.021681084517859436 -0.8251683059211983
P 0.7783048156824091 0.3254482744642796 3.877987953056405 1.0746743273399686 -3.081398747457054 -0.8402449977486627
P 5.566857509008637 2.153884165099045 1.7020427399814761 -0.12954169034728014 1.1293015277665455 0.024093550614093993
P 6.006790913178174 6.769182291166496 9.118527621235208 0.02341529360014677 0.047500102463492386 0.06991189449978928
Ni 8.223942562449123 8.638087539211028 5.303983491452734 1.0696473064390224 -0.3496165509891269 -0.39538372992191256
Ni 5.202311403483693 2.1260151228897133 9.328004479277139 0.13528682036117348 -0.3319780119717573 0.035198145167687774
Ni 4.407815112792888 5.090032845081583 9.19073895002106 -1.2503554923577884 1.284021774261982 1.166870744269571
Ni 2.803801052349673 5.319366978829616 3.781825295761822 -1.4653547382489407 -0.2543507511055813 -0.04909932862981222
Ni 4.787392027490659 7.103153622228774 13.140978351341557 0.53608889308518 0.45541281809035117 0.5227996321754416
Ni 2.3997232655924097 8.488880400606531 0.9537836814556492 -1.342401756862772 2.4806458385345858 -0.6209918616771628
Ni 4.713469556307353 4.860054933659483 5.243735231271102 0.701184826387986 0.972618501117783 0.8932508605217325
Ni 8.08316984438605 6.749523746829348 12.000615770796148 -0.44770747902629343 0.026869313587018242 -1.1779403718201713
Ni 3.880365265394851 2.768551892166595 5.849919088207768 -0.19872339154926422 -0.3311362327967523 -0.046921347141886935
Ni -0.53577137359372 7.690642735317153 0.38017217579350393 0.40395655919258816 1.3204280808051583 -0.9141523865610902
Ni 5.414020957140185 1.195970976418136 13.326857492089939 -0.06924469322943559 -0.18839038505437233 -1.73696890442066
Ni 4.567285373737614 7.63768502404157 7.222644356602698 -0.9365053003349936 -1.5492506057326478 0.3035197566310644
Ni 7.387777995056988 2.5178984542845404 5.273558931780685 -0.07134142785746424 -0.9721515887836935 1.541476361103868
Ni 8.232638226104662 9.361367090971859 10.580465547078141 1.58004265141284 -1.1978247694489241 0.37950588234939153
Ni 2.1779278617088367 0.7718231874189934 5.673462426778841 0.7811638753157901 -0.5202915210416071 0.15213397382549929
Ni 1.4223847853548124 6.7560361644597835 8.96868603506786 1.4472935098718558 -0.7909736623173603 0.13091671631793583
Ni 8.218232534383468 1.4040324565882387 3.305942973067827 -1.194905281809284 0.5410881460719843 1.4450815898222016
Ni 8.71447315975599 8.370499949467597 2.5488790885852053 -0.5588292721054893 0.38355331294588785 0.7008336136961543
Ni 7.361037896305081 3.0048929394396384 7.969235191242677 0.05043553094273249 -1.4381735498484587 -1.2817059816446121
Ni 0.20916243329387268 4.458477616708747 3.592914801878587 -0.2502187312150787 0.4539596305835924 -0.40014464164566566
Ni 8.229363357067006 5.8631258606374 1.909020061228002 1.0769057877736485 -0.1621263091515208 0.39398299291964406
Ni 3.0902074764205985 2.502298508327392 1.442655384987887 0.16709393756944127 -0.12310493358300088 0.8269881327387564
Ni 4.529601054526537 3.8341625546413822 3.257055989316828 0.707445205475401 0.19918773278019244 -1.8185399804259326
Ni 4.927679579770374 6.98928894491954 3.312115774649914 0.8612498821351038 0.10567645369390832 1.0571463457585342
Ni 4.355071994075328 9.055964560460291 5.244363147756099 -0.6944760469092427 0.11596009500810352 -0.3058016106867056
P 3.0524018657636813 4.9288085232278 11.168296142237114 0.14879513926025342 0.9131200886418339 -0.6343415435111913
Ni 0.5048075334932483 6.679351980355834 6.71879502553158 -0.36641099683864636 -0.943272186745182 -0.8531120835193179
P 1.0146122745550663 3.550303250933077 0.8698350727570612 1.9316816321486343 0.5564558867773062 0.830072685201351
Ni 6.952696248721013 4.0957322226489525 3.8262879407730606 -0.07886601836928353 0.4058679172826881 -1.015313211772832
P 1.2355306479841106 4.4597091913895754 5.404078790625868 0.9818821858078962 0.019993412402791372 1.2753630701457197
P 1.0103764040619172 0.031134581135768273 13.229452996992187 -0.2635581286364622 -0.7991034905133464 0.23846698999578927
P 4.453532657763001 1.0707422236449022 11.200823708977786 -0.3523126097640513 -0.21919631469163542 0.07689912445089982
Ni 4.988829128695705 4.289565283211011 0.2323440276270851 0.05241965125229681 -0.31070598996685844 1.2524799948999592
Ni 3.0847586914690583 0.8607755347640043 3.4635416137021444 -0.2503809678245559 -0.6195877822407845 -0.8168482160912771
Ni 3.036092831353935 3.0234132102081426 8.49968560240855 -0.487132003570503 -0.20122121827045344 0.4232768567877549
Ni 8.47822541359513 3.356376889258836 1.799434172923521 -0.6135652301957883 -0.45956566391646014 -0.26236976475531587
Ni 6.95219242271522 1.9814263893383195 11.132982604286628 -1.521233808804748 0.23419818741710635 0.18138130072639086
Ni 2.8852622533974386 1.2744558719872348 13.159317617952425 0.037777475859089776 -0.17563745626407817 -0.9485205796283147
Ni 5.626551560583896 5.763013767264073 11.231207216160474 0.5005760448905507 1.0067118432570663 0.46456028891757417
Ni 8.987593505451928 2.752634722428021 10.32968055462791 0.08886066768815018 -0.6215207375974393 -1.084778505653506
Ni 0.7225518030857963 1.2185871660115142 1.9442514941997653 1.0916400086600297 0.3780287835832328 -1.9199846554266804
Ni 2.6711455310466006 5.349568548843545 6.94572385660751 -0.15659278092780127 -0.5350720217848914 0.2697110356117355
Ni 1.0105630062862851 7.650140722518122 11.383521281800697 -0.7205249214774946 -0.8724228680327878 -0.04932841392148279
Ni 0.48753656461688605 4.994763079430601 10.73012986113234 0.06119122679733977 1.4010198236162967 1.0491733548553865
Ni 1.2234574840675136 0.6814619932800057 11.22954085829687 0.4096723786304428 1.0940748433537673 -1.3700478007148147
Ni 0.8157353558683471 7.379287593848253 3.9887615645189864 -1.5389299405329304 -0.44465223713973745 2.9714344650210696
Ni 3.111246877218069 8.481192388962578 12.013834672370365 0.7094594076919524 1.1401541542103333 -0.23805664193124812
Ni 0.37190289822064465 2.5858589843992954 12.780102711569928 1.8998143511263925 2.688976671266627 -0.5540873865451297
Ni 2.7932393664504556 7.777412769648183 3.2766249645862797 0.7259010981877434 2.1795352055656463 0.3124363423944039
Ni 2.317683597649104 2.9731705612971115 3.9592933412468234 -0.1536576095588773 0.40630654748200346 0.04302715429380332
Ni 0.34141116174782343 8.597230982185698 8.04343943178478 -1.259210114534941 -0.33590151539587954 1.3848133890597634
Ni 5.319441619719363 1.8000956778089048 3.8919989810730615 0.42719958888092874 -0.18919822566764835 0.5513067384761989
Ni 2.3363158297522295 6.422008852730194 13.159905414959185 0.74979590252747 -0.5598566849287391 -0.3671432470189806
Ni 2.019110708549398 3.020212982060235 10.570223883993714 0.1351490092317285 0.09715350382456171 0.6551489671748458
Ni 8.635204534844545 7.075919027582294 9.595639652587785 -1.1896018673184996 0.2987691293199564 0.9192305724149459
Ni 4.949763953024304 0.07895513317450567 1.6684776648733173 -1.640458690607052 -0.5569302553105634 0.9372740601802181
Ni 4.977101178894188 3.4924005807117475 11.71257937629537 0.18175976711173214 -0.897520434431364 -0.9912001207747123
P 4.644184150399587 3.9181428857181126 7.604563129216285 1.820686337344974 -1.1975257501512668 -3.458334297976109
Ni 2.95306417162148 3.6814006436626783 12.84005054217033 -1.7506996237431915 0.046080339297830314 1.4140013234776294
P 6.167632700472002 5.576271591227991 2.3583013038272442 0.18258843366061459 -1.2353852442012014 -0.7143128791295118
Ni 7.763305641485977 6.315542953617143 4.129413924147341 0.000547387863037767 0.6735377540946788 0.8469496634623478
P 7.626395589467319 0.9334496370662896 8.86413840682131 -1.22533711593658 1.2926323987491286 -1.421844473671132
P 6.767540191592059 8.696130161100635 12.750729655432194 0.33645430257555603 -0.8794242390512854 0.6799176894790936
P 7.855300538099304 4.292009772350228 11.539235239968898 -1.0851968241378471 0.14454870527907362 0.679472631521875
Ni 8.954238357846181 1.0332631668806285 6.974004356721574 -1.6666788006458455 0.8821341817832808 0.40640604917434525
