# total energy = -340865.444134826 ev
CRYSTAL
PRIMVEC
9.32671856397989 0.00000000000000 0.00000000000000

0.00000000000000 9.32671856397989 0.00000000000000

0.00000000000000 0.00000000000000 13.65059537754745

PRIMCOORD
 96 1
Ni 4.109025807900068 5.3111932100070876 8.538106360778329 0.5253594224828179 -0.1731419435357341 0.8539098968302649
Ni 1.335837933989543 6.489605459678663 0.506866121788644 -1.2675546298448945 0.08961400091440695 -0.55105297059418
Ni 6.046166620831708 7.26077586563558 2.0685841243973657 -3.7712663490600082 -0.4285309060978426 -0.6022163808418726
Ni 5.829413679096442 2.166820586734251 0.17278212659710304 0.7033748920607693 -0.22818797666728444 -1.9367400205081484
Ni 4.966328460712629 1.2809408679373149 6.688832564373708 1.4098363934666625 -0.3955675637979446 0.7448958941226913
Ni 5.362490162655279 5.712344706434606 6.230281643276596 1.8348672568310462 0.3282735665369766 1.052017252062085
Ni 2.3969387163140365 5.787881800888734 2.471453602402666 0.727847680391153 -1.3296403434320456 0.3926043674045625
Ni 2.7401060028117734 7.918552026084005 13.083959296664933 1.31914818565147 -0.5135578018621993 0.6020436027094341
Ni 7.937513245126509 6.5455564449398445 1.3516821636547696 1.1863882454772086 2.0757695957412055 -2.47640711786289
Ni 0.85170848695831 7.007462186740149 11.235286140942229 0.5741733586617273 0.6647042149634489 1.6701860424681558
Ni 1.775853867087064 3.585647663389904 13.653325625560132 -1.5051957815052786 0.6299441857744441 -0.04792947669142713
Ni 9.053921469124417 6.278392588829402 9.436629379395246 -1.6602173612912183 -0.29315178313317897 -0.5845948111053674
Ni 1.97472748914477 4.006282675105072 7.23220812636987 1.8812576711701279 0.7408119538613048 -0.5990045587727942
Ni 8.813329434485736 3.0537635514588044 3.8262891296375 -0.2981862602332929 0.12439202782554061 -0.34259255426281
Ni 2.192608963838296 9.387901937738794 11.501882932557944 0.3025159979568984 -0.010998150882716542 -0.9986396077718931
Ni 7.41124381783072 5.3831301910571785 11.27427275762672 -0.46633872097423557 2.1369022013864685 1.3772805710178282
Ni 5.619618469484003 2.7632735719714288 2.3080149825624643 0.9383410679921517 -0.23575447616063266 2.3255792644433235
Ni 7.756164527437158 1.875826964439057 6.041425849735149 0.9927008736899549 -1.4031127015895835 0.6132214737031245
Ni 8.960197273276838 9.208838266121955 11.588918938452062 -0.29893316570164646 -0.8097825674937473 0.2196475432964411
Ni 1.186190733036774 2.55951274933415 8.637919038569313 -1.4840962805225022 -1.2484780728294178 2.19493071418511
Ni 0.9152532865551566 1.8551309757251777 12.50096942981824 -0.8110562919998483 -0.8504059974420644 1.3943128439097665
Ni 3.221513913337053 5.347446165451364 13.12581201399466 0.45706449476116123 0.39966641645766654 0.8130483827292126
Ni 7.452318686823927 8.081144712541445 3.5748314677560664 0.968027539312991 2.3174921165598152 -0.8232016691131308
Ni 5.2437050737593935 7.506628169600366 13.159993505223815 0.8316410581297355 -0.5735534656895412 -0.5353923812387876
P 5.793170050370829 6.2829906611304125 9.638508070206267 0.20620710152081906 -1.3296408576526777 0.2817993342348373
P 0.8783372014139192 1.282004113864932 10.434215207622614 -0.3185517112635224 1.1665874087011974 -1.7654536421239144
P 3.6109603778421206 3.6550850838382285 3.436155285966946 0.8479590785634686 -0.28132933657695425 -1.2097562307791876
P 3.5297433117220387 3.0143022047943497 8.704861561775202 -0.9761064596663834 -0.48929790087357034 1.1322171587514436
P 5.88287443047452 6.656740258125134 4.254167271066593 -1.0442779744362982 1.2196110120860804 0.7850958633803446
P 2.5124034933657837 7.6515373974721745 9.806314392396496 0.5485559152039391 -0.002150727794415651 0.4386168295789349
P 6.142688832278277 9.370087905091877 8.086039374495948 0.0793136474296634 -0.21898728400462286 0.08665157585197333
P 2.765894379915818 8.550446542241751 4.400952102061592 -0.12690219584190404 0.1172721289513077 -0.1922480682375657
Ni 0.13363695569533515 4.81919014708029 1.532211062773616 -0.5328315624901467 -0.21837304745939165 0.8992428164391095
Ni 8.00832169321834 5.189899233790774 7.031612792046917 -0.7997771195416032 0.9919943345412335 1.0027490019545762
Ni 0.2257327064642987 8.695859412921378 5.1458789870436945 -0.05391706173342973 -1.967824657728095 0.5455878337145508
Ni 5.1416614448641464 9.199035884806818 4.127230630058977 -1.4244713697710176 -0.9397690586879298 0.5669362174833398
Ni 4.281504816140614 8.379515769299314 11.080147368040505 0.5525791774307193 -0.10610222837741728 -0.669261238206512
Ni 3.008249164381864 1.0730389822135276 2.364733556769636 0.20420755459228704 0.24055112621832764 1.1517416019376165
Ni 6.922672987372021 9.027582815619235 5.695411116029505 -0.39776251456673434 -0.07952139256509531 1.4919882816760692
Ni 5.67634357239424 2.2514325784477767 8.957534495098464 -0.19671587420093217 -0.20587234388921963 -0.4530813417436971
Ni 1.9735429958745299 5.098749212294269 9.734621771375386 -0.4940156180642137 0.8651055084357681 0.1840390500642121
Ni 3.105023197232342 1.0276644959165366 13.664246280443 -0.3397699972123503 -0.11279455279592833 -0.6964881922432651
Ni 8.89745643682877 3.4934810295590992 11.184670038756458 1.1572177945608393 -0.057982747162371104 -0.9298453718163148
Ni 2.5633367039861064 8.106103011684455 2.222603691059493 -0.16213402246100464 0.20532624157776252 0.23250742997824475
Ni 0.25106967038503986 6.8257124201482755 3.0134236278962665 1.7600455837344653 -0.41843675508663425 1.0923637741999317
Ni 3.9030732063769116 5.827632275831751 4.572976899103235 -1.356058171303942 -0.41083143193555055 -1.3470179154785444
Ni 2.377315300246438 3.0588652665676332 10.984347977290343 -0.21926393470477726 0.5880819983230196 -0.1817116874826161
Ni 1.4909319386416833 3.4015662171322036 2.5092118902392 1.7836323699154701 -1.357542212048636 0.7764695551639144
Ni 9.02133391411482 0.4616417956621322 7.447245884542953 -0.4210873053356038 -0.09773945823501877 0.8148589535753903
Ni 7.131778019803375 9.051655076489233 13.015651341846734 -1.1617776460173797 1.2764509038932597 1.7142089850163251
Ni 7.209674774079318 4.093674028980264 9.51804137393539 0.726458256242794 0.36946006807761533 -3.8044335798405964
Ni 4.577907935260526 3.5437986767476435 6.950951598359168 -0.07051507530142695 -0.00042268935971540104 -1.5557873784099012
Ni 7.263471287329276 5.344526902509749 3.4722338317722183 0.7177355316578156 -1.776933617739056 -1.2188718199272106
Ni 3.354587535225124 9.40627557350551 8.689805439837025 0.9303433944986557 0.1284165756039014 0.9941000680303266
Ni 4.247527580050184 1.6065832500666961 11.06929479820388 -0.2466335849669817 -0.19706554423086708 0.5072650268749521
Ni 7.854486795585746 1.4743397061396593 1.8781036164647704 -1.0832643830018247 -1.0158462014581666 -0.041173131804200055
P 8.93222644400558 8.369648100953535 1.8815302529016698 -0.9177897262033613 2.2516965582212443 -0.6242895585918281
P 4.987425498329031 0.3506883524278272 12.958333059629512 -0.2523110949677332 -0.4027620246638548 -0.6902679223651661
P 7.987261962476591 1.6639798767206908 12.312059541308546 -1.1979972904710465 1.265680809860949 -0.5077090563909062
P 6.759100995454933 3.431467677166768 7.201385186531371 -0.7635266218500012 -0.046969683881319106 0.10866870355301285
P 0.7109916191256581 1.2530539791340256 5.716187314523888 0.4524676194190982 2.5052608088697887 0.09708305559794247
P 0.29859489800578953 2.2272390702351568 1.1424362977715996 1.3447761706322194 0.5602755176337125 -0.44399686294392565
P 4.265966502847543 3.6788682164296627 12.004197615638894 0.10690415545342233 0.014258566801543185 0.38338464857850746
P 7.948873188458418 7.254900032877697 12.378373443676528 0.8108030383384618 -1.1156147743080722 -0.1487887115023502
Ni 0.4914789013379192 0.5535566080890276 3.2389725980028983 0.6086212559269518 0.9447269169138375 -1.1331214157332679
Ni 4.0298606198859135 1.9097202600615166 4.742749293587688 -0.7499028604189795 0.5916542890553101 -0.9681465813893585
Ni 5.532544224043364 0.24435723096305745 1.8874545845966024 0.1765399134736895 0.703774184381717 -1.2634033266806823
Ni 1.786831414953777 8.538760163756626 7.149021257268098 0.19537401546105707 -0.438535068498406 -0.5221362875598298
Ni 8.17294760434438 1.5932740225341566 9.679842221978314 0.021626577130840176 0.13464121635737458 -0.43187334020751433
Ni 2.553263847829734 1.6548023855559961 6.964506118592553 0.33385106062475406 -0.247593891997722 -1.0780743541604532
Ni 6.697861760711657 6.924902073132551 7.812371997461581 0.2513135069411543 2.0440959187870087 0.4367903178931574
Ni 8.039435626679134 6.859754943269348 5.352234502813106 -0.2618354895184007 -0.9021589616446397 1.6775697365267366
Ni 5.592048689115266 4.758006872648994 13.517324346683651 -0.26287318675429566 -0.07167104328274108 -1.2579754707968915
Ni 4.797999842277256 4.950743513826242 2.1390624066485153 0.20822696016432526 1.5528028418602806 0.4733601465973913
Ni 1.2411157792449918 6.082009200654799 7.321169166996095 -1.2201949096140083 0.7325173179526804 1.2517929961352636
Ni 4.315948388164208 5.811534359418882 11.127965454627281 0.15469170725034648 -0.17407988196897115 -0.829992466782719
Ni 6.441470264657333 3.0802887393372504 4.886366770924629 -2.026169930436207 1.182634434861731 -1.2838340837312083
Ni -0.09661827664880136 3.6388006330520937 6.119984801036188 1.5484425080090558 -0.948833225772727 -0.5689874435854136
Ni 0.9938924476367003 -0.12470662257521821 0.6053497421701068 0.2987925263587241 1.3022282699676797 -0.5788957038380611
Ni 4.2910553760518395 8.437770454070334 6.451175648098371 -0.5562579118338872 -1.2793305394339 -0.34177674322973395
Ni 1.6396091608534682 6.5939900949584 5.131763931018645 0.3245158992667572 0.29906120663907854 -0.8307527419875113
Ni 6.242792503691557 3.2325194413597553 11.22680908634915 -0.3399774852374661 -1.4224656521948984 2.1121756451740654
Ni 6.284426975804561 0.6330892688185159 10.705165711510361 0.5657895054734063 0.3865432488121472 0.39886834603640337
Ni 8.331669702556548 3.9958554036394944 13.358390531957825 0.18873157044387495 -1.4810155847146493 -0.896630832737559
Ni 2.1347086943764833 3.7871794002666523 4.881848908404122 -0.6536011630717518 0.18448976444838552 0.40114685765793495
Ni 3.607173730064818 3.002419965217296 1.1355830248978014 0.7775620168971448 0.7346598182169799 0.3352083459835969
Ni 0.4874693449845633 8.57822151042108 9.500541651707426 0.7408170960676274 0.7797855069110249 -0.7204562730230882
Ni 6.965725120721848 7.798983492820403 10.488517229024122 0.515224648041661 -0.31747261926673065 -0.20664521749950215
P 8.985220859450493 7.609492549737984 7.6871691934534745 -0.7060809781380227 0.05771303844075222 -1.257588262660802
P -0.07529366709701509 4.352387877981751 8.579631710282973 1.1063336061164626 -0.8923016092345858 0.14159347930549163
P 3.994391108809355 6.889003532997481 1.054482542761011 -0.7314647083184499 -1.0112750371477164 1.3437384733963245
P -0.08711808101835634 5.310316498452737 4.448702103602128 0.8060380128496505 -2.603163789265865 1.1245652986331407
P 1.187365899588351 5.163653847472227 12.166885434626698 -0.33430383189145646 -1.2838343408415243 -0.046317652119617005
P 7.165885829955089 4.6956764118221095 1.2428393568539713 -1.6366843111662843 -2.411048647061738 1.9578693462875958
P 6.900923079449187 1.0490320083741742 3.7863474569618853 -0.08536910959512395 1.1290644720550749 0.4581919234973851
P 3.3326137860543716 6.311763588206716 6.848926622901248 -0.019222595675037864 0.7944618779762769 -1.4595633283781444
