# total energy = -381164.9782805596 ev
CRYSTAL
PRIMVEC
9.24598776529844 0.00000000000000 0.00000000000000

0.00000000000000 9.24598776529844 0.00000000000000

0.00000000000000 0.00000000000000 13.53243769328775

PRIMCOORD
 96 1
Ni 0.43504407269547724 6.005352366358358 6.634277408895118 0.9985010253114996 -0.1730954065685148 0.6182418097358513
Ni 7.414311481166443 4.695704407772981 0.6474808156885478 -0.3237365978985715 -0.5334609685440296 -0.04299321573207434
Ni 5.924477710043301 0.5719078088454298 3.6295486163982367 -0.07654508354559075 0.6854514748131292 -0.7616198917455915
Ni 4.535129335608398 5.380360567081736 3.791640030581301 -0.8871496327200011 -1.7392355889676498 0.14538559935807222
Ni 1.4272014489694673 7.831462718043823 7.923093232103399 0.0020419701306932576 -0.28896062786996685 0.10312052004127403
Ni 1.7594282868238904 4.880476230317865 8.468653673778897 -0.07534206437642509 -0.5683577804212148 -0.7951889859502886
Ni 5.349922774857069 5.004437190328838 12.731466474843614 0.7331176705408406 1.386152162475845 3.203375995193515
Ni 2.4435944087730137 8.972805958565523 1.1980562812105409 1.1536730146323744 0.47411733647838983 1.005075593205224
Ni 5.546159622419749 2.6246400981871143 9.631062973172007 -0.20095485198294424 0.6037292179419732 -0.3975583689757282
Ni 7.936034841391633 0.8277683340934069 13.025133844686568 1.2221669457387143 0.7640616684178647 -0.4188491600337044
Ni 7.874733941498089 4.659228985438134 5.77925745001344 -1.0623266044078932 -0.8629660934952622 1.2491758702273905
Ni 5.025231417155471 1.0378251597964927 7.904648410806622 0.9400760484053875 0.3299468404743414 1.1577086181543286
Ni 7.559270079738235 1.4417546339517353 7.851926863101799 -0.9732705328794852 0.33254596866008534 0.0814530623701694
Ni 7.635604955985762 2.231556167859191 3.144275714340515 0.8049612348457039 0.6596342566397091 -0.8960898726324243
Ni 6.169024844475328 3.0646659091725823 7.282630121244294 -0.6141339582150649 1.5073413670933717 -0.860216812884899
Ni 0.12409040384181824 6.846469133208372 11.63270008408357 -0.43617402446539716 -0.8882086701121348 -2.4467065054746633
Ni 3.65573417877961 4.193804445643079 11.700646075493479 0.2323415938243418 -0.4578304263929083 -2.1727654909419805
Ni 1.578493549264801 4.769949690751134 10.678676860376841 -0.8867156305063761 -0.2640872616670548 1.2631930104420892
Ni 7.656223509041961 8.731208294279202 11.28184442977281 0.12064593051954708 -5.110502563710606 2.136294135488824
Ni 9.033690789002774 6.162857770534304 9.182855387478273 1.282110159061566 0.06786066839771537 -0.783918812353108
Ni 0.2684119538460895 8.927287960047284 1.3242002189688535 -1.4052212632921541 1.0118015990751477 -1.282731594695649
Ni 0.4277351192466316 1.1425914488905724 7.50379137843639 2.81619639834895 -1.0814527837143826 -1.304213675828825
Ni 7.588136054016914 6.991390747828494 6.4618878133694535 -0.9926047144317228 -2.4184678223439446 -0.5099335748460507
Ni 9.059792212894099 3.0070264204943995 0.12554664693883683 -0.8320125825365414 -0.5563291313914548 -0.6126501745806868
P 6.250888821497567 0.6842243716730039 5.664827254347909 0.9651576739643636 1.7068049792427702 0.07827183642871036
Ni 0.37474543789219866 3.8820297330623386 4.305101176003343 0.30811894596597256 0.21650025591671104 -1.3157934102466244
P 2.008875794852235 7.619831300598373 10.277169835056004 -1.2098819577237745 -1.015415284568335 0.12658286482927233
Ni 0.32499555070408515 4.662705476895145 1.6417962055425006 0.3651519276205647 0.30105561136128794 0.8923124078678633
P 1.4662472559454005 1.2337661357458118 13.133447819344623 0.27741868866863834 0.41792124890279636 1.058991369387073
P 7.1517993922105605 0.327725890936146 1.302771717371074 -0.10606366182999798 -1.4167495756467279 2.2895704504488825
P 0.0068142930952552 6.272718598970969 4.549903499701897 -1.4186863876581244 0.3316406832369966 0.11616963991574833
Ni 8.200664261580641 3.3686647459146393 9.205684656245566 -1.7532565858370899 0.018447665182226295 -0.32635783757150244
Ni 4.929590918136041 7.048799086808738 7.752300418691101 1.8538959913277233 -2.4317941071392055 1.600591164988153
Ni 2.048300687332789 3.3066519049514413 12.789399061338784 -2.4719398261201557 0.04396175029293074 0.5792942248280604
Ni 7.550837738757404 5.212629100268948 3.6217671929668027 -0.999563148027427 0.372390611460849 -1.668616898208823
Ni 7.330533584645266 7.839386529689187 3.567732714977683 0.0075896394217998325 -0.8589050360520111 0.7838090262481211
Ni 4.127390514431114 1.0900280075791398 5.753803245276347 -0.8173948326233665 1.1264098080410472 -1.61564111734274
Ni 1.6906288907291904 8.381867132789342 3.711325681134049 -0.5595532947557073 -0.9355331662297114 1.2660153103822325
Ni 0.031424339135473336 6.921740720845377 2.4784527078210754 0.22754622931822746 -0.3192435951242244 -0.0816050145670014
Ni 6.05780485581478 4.69288438145812 10.781252774933247 -0.06334606835681349 0.06723691877078743 -2.31699435098779
Ni 2.9983259458639586 1.7220652496489566 8.390111780215445 -0.952669825909998 0.4171478610718816 -0.297038776892411
Ni 5.177309426423799 5.072515399365967 6.358026706492505 1.7069247926500863 1.6496789236537397 -0.6790728249802951
Ni 1.9978823152182346 5.822069147868203 4.400031583150704 0.935236718035215 -0.8977047825280281 0.2794573163652219
Ni 1.1678607338693139 0.42011365140617185 9.62624581346695 0.6505078688584087 0.03210613650592535 0.13075267993624579
Ni 3.6320182197710214 8.54062074533416 7.138361273371152 -1.0197110837302115 1.0532374976224312 0.178562343220357
Ni 4.9373575479868075 7.795505071032361 11.048355496890204 0.3218982591382521 -1.392072641725338 -0.9340907773562299
Ni 1.403503981936714 2.7939988588733953 6.090260122603063 -0.02481294527862178 0.21066539440248883 1.6425189155701905
Ni 5.595070898503739 0.7953777892205467 11.217159498301434 -0.3250781995281305 -2.179988748163297 0.028081331617248413
Ni 2.9194761609028506 1.6099484001604023 11.193870703934637 0.09810635465613426 0.10603383703332706 -0.38577783140103233
Ni 8.08544076015178 7.548433781898834 13.47993197056795 0.6587418267324269 0.16324602457826076 -0.08657881363250897
Ni 5.949127513831564 3.1452354478863596 4.749547493812206 0.03812843144060531 -0.1857174662078995 0.21656504771637541
Ni 4.829956152336218 0.6343515128455866 1.4164945949609116 -0.01290128144270036 -1.8284626388562832 -0.8807231603683672
Ni 2.912819049602194 6.005694467911308 6.9306788173653 0.2552766053539604 0.656990648369275 -0.47295725473201766
Ni 1.2782393376293635 6.999314559473859 0.1260181923226333 -0.9842152048164469 5.473326614528942 1.3059165174525444
Ni 4.521537733369558 2.5543613440256014 2.7242147650654736 -0.9898523484975661 0.14979092751461945 1.3732459959371384
Ni 8.324329349978251 4.671073095960552 10.98350876063027 1.472279490393232 1.6975847461960827 1.2893791819191536
P 5.731846797768474 6.6643046792562455 4.830660696615538 2.4436052408415208 0.814988537174719 0.6924538742728913
Ni 3.50961983171812 0.26096338597968843 3.2984239003035882 0.8231448477332662 0.6468928978136408 0.5682827042089051
P 2.0390454534272933 9.114121637897789 6.001338683003337 -1.558824108353696 0.6164551501490738 -1.6053870437148996
Ni 5.032378565815759 7.738300143786304 2.9182427461146454 -0.7621397688048035 -0.7393358835364107 -0.27911124587971287
P 0.4417085807864677 5.325088051310452 13.043741395370693 -1.525202563644509 -3.9233229326803527 -0.5505315508730713
P 4.237843086094504 7.387340934410867 0.5886772571315416 -0.6743144843597032 -0.7201924778387403 0.6596805364966124
P 6.421449560613134 8.942830465736733 9.449322910065296 -1.5551518017084314 -0.7272385860522443 -0.05503806271175037
Ni 3.5573198833849062 9.027551453025502 12.756988175292504 -0.06857337819402383 0.05639380540869642 -1.0794421810422572
Ni 7.3343521776552265 2.828338457999281 11.784696728658222 -2.025471618817602 0.022673016117483534 1.151352594029314
Ni 0.23526786095794663 2.231010654572054 11.35843819368203 2.0118913090300063 0.10831517686833604 0.05565024237445255
Ni 5.850546790654345 8.299642562238317 13.004970194235915 0.9028361902173225 0.7502422460362692 1.13954403143016
Ni 6.365159986170918 2.238555380712797 0.895361128764863 0.6386936498323 1.8928762292456627 -0.9733687490202463
Ni 7.822050302343729 1.153187351044117 10.210711523102033 0.8223673461372933 3.6377250506350323 -2.6794839012848435
Ni 3.5530389909790676 8.750578638966529 9.48212490140049 0.5924158498116828 0.9159637287382161 -0.2689577023854787
Ni 3.642456940129968 6.0469870499512135 9.797485208095665 0.39525748875669353 -0.773837516857706 -1.3968662064592396
Ni 1.0298921021632106 2.6938278257743526 9.105097553690232 1.1252499834049912 0.9848412684362201 0.7431321173540492
Ni 2.9554338079143125 6.468715050847794 11.999537428509864 0.42877079002279056 1.2541309002398207 0.10164804926080558
Ni 6.440403835844169 6.6902674133288045 1.1930985824891356 -1.2222013985210756 0.28750409792909837 0.9501581152317378
Ni 8.356986179303139 1.939114816014107 5.379455384864605 -0.6035605535745928 1.1269047453995948 -0.09719129904103262
Ni 6.489980823058223 8.701334507317505 7.322252877866283 -0.47744280130719713 -1.6171907212180472 0.33386443036119273
Ni 8.977706332161839 0.2503591624370179 3.3912425238105732 -0.9861458461802565 1.0750224547080065 0.9591875724238578
Ni 2.50103048571701 5.3972714789829865 0.5102084068726381 2.4534042292098133 -3.4551510151521203 -1.7675413778908784
Ni 1.3287501696230937 2.2960191956205462 1.7954571279423177 0.3461175366969329 -0.7576655350835338 -0.13236630428026883
Ni 4.672903801568233 4.795662783149919 1.5769485446837737 0.6462277534258161 1.1775709042958946 -1.620687678627712
Ni 7.02206893573902 6.810640930027756 9.970659787995533 -0.8021173376390056 0.9120309693427132 0.674833847198283
Ni 8.520298063891323 8.656204840291807 8.656659742897352 -0.3617907244578156 -1.4845279687432817 0.08277975160139292
Ni 6.823169243656075 5.238749016136107 8.410288375049184 -0.3283527565143442 -0.766017506592655 -1.0290349322342986
Ni 3.9213251817120462 2.817668587942396 0.45773187784763086 0.414881433635208 -0.296024990915916 -0.9515632231093806
Ni 1.7628862863050647 1.6738011927191978 4.13176479131492 -0.12274600758168537 -0.9856712205366831 -0.2965376688862764
Ni 3.4813918306057534 3.671859181707866 6.641896102939202 -1.1319240529910573 -1.7837221014157991 -1.1194629444095687
Ni 2.753298020060216 6.692116610912321 2.2838560985149723 0.6476976531031232 1.5393446594728455 0.17966174693212283
Ni 3.7189582441600106 7.2784971646451355 5.102040612583169 -0.2488524469951714 1.2295673519678438 -0.32613363737583834
P 8.769911999702183 3.280023459748816 7.1377251494024225 0.1849636187610105 0.04982540816255935 0.3768782149185574
Ni 8.343930844363516 9.015448454841392 6.011082105070881 1.2290945260964832 -0.15697407552661996 -1.0122546274521664
P 5.136996919103157 2.587961264118081 11.845403111528668 -1.5542624571249428 3.2088760990761385 1.7291157269248285
Ni 2.5990194656675043 4.335036911084087 2.4165554417068478 -0.4663243227965324 -1.7099489241883905 1.9741567705937098
P 4.379602572846814 4.14622459181922 8.410802451977402 0.9582979707300529 0.7947395571176957 1.7171284726559655
P 6.26282539189916 3.8185930099598338 2.493229645710949 0.898952281781884 0.028469053973970326 0.24929621940080934
P 2.8372423443639097 3.5154170661424415 4.458478246574091 0.20594896276342597 0.38508311932685296 -0.21783337290583776
Ni 0.8526733271481957 8.949580036916565 11.763599233427893 0.3328825260638976 0.7501054633480888 1.2675623431543783
