# total energy = -340870.13856576226 ev
CRYSTAL
PRIMVEC
9.20331340960170 0.00000000000000 0.00000000000000
0.00000000000000 9.20331340960170 0.00000000000000
0.00000000000000 0.00000000000000 13.46997946012786
PRIMCOORD
 96 1
Ni 4.306800982711398 6.974436614760144 8.288657815391627 -1.6565445404253214 0.2950484859352596 -0.18900847825434544
Ni 4.1972999589267745 3.3610500828832315 13.243805543157471 0.4390911981121922 -0.19927592161862454 -0.6593054125453807
Ni 1.0830183203818455 1.914197170697928 5.69385444522928 -1.5771275346485742 1.4533026921804133 -0.2287055397336513
Ni 2.883775449125724 9.07881105520807 11.09215092036892 0.21601148920575053 -0.019062930168722004 0.18630213506677593
Ni 0.9754315858010543 0.9995534704320426 8.01028703322582 0.5657241994531095 0.4548510320496102 -0.43947454959353993
Ni 3.940858832121029 4.850137000628094 7.1966865116564716 -0.5169830254936645 -0.49480288985219945 -0.48370523727714115
Ni 8.385755533599301 6.0453068990767935 3.452167487991625 0.9550403830247036 0.6815112592184586 -0.2979754297740675
Ni 8.778792239074688 2.5705314715216345 0.2819950470142167 0.3758795984507139 0.6946079445014166 -1.2479581957702055
Ni 7.9411986792630715 1.8228450810957948 7.166662542090782 -0.7413356875752587 0.4891171523213318 0.1262859024141438
Ni 7.104884380025168 8.53894468647332 3.307728845574358 0.561868058931813 -1.1939501169848663 -0.34490731843891564
Ni 5.577051512529653 6.636803856434146 12.493621373453168 -0.5829922425049379 -0.2088494242396726 0.03517834767334587
Ni 0.07314885587011011 7.952150622304229 1.293763155096869 -0.9102178273933742 0.3902574644389408 -1.0274547322313725
Ni 6.333149731476181 4.581575109969235 7.001075605627903 0.8144041254261587 -0.5511398738810315 -0.22581227734625625
Ni 9.028063984679543 3.3146285696902873 8.837047372740171 -0.2322104675631162 0.01005841267726655 -0.09648218878914995
Ni 3.8861083202287166 4.106776167537839 1.8357692942157098 0.2790001742231453 -0.3658931766619634 1.5884905250698773
Ni 0.5479744879105982 4.20634681607758 3.9993044743755464 -1.4213983872726488 -0.8312019137097879 1.2455400732470163
Ni 6.323118119783018 1.5208567558777022 3.3367965908694797 -0.030674803376037493 -0.6376963189160372 0.2688800550700079
Ni 7.885794732113681 6.014485002232391 1.0654556372680284 -1.3972647274492387 0.7373926437671107 -0.637642068639334
Ni 4.507617282844235 2.0769669729045894 11.447448518588363 -0.8643362343699115 -1.454583615775366 -1.9628919963131681
Ni 7.089671302842786 4.858861741807101 12.498955613946157 0.5023444496448833 -1.2792639478620227 1.1644518504154333
Ni 3.9672999517489678 6.454808332367838 2.110287569358803 0.3733311209972474 0.5122167144532727 -0.4158995904870773
Ni 1.0968140872883132 7.69394245931033 7.467298900558667 1.7211702468255068 -1.1561009073475768 -0.10502262215999332
Ni 4.979038609228484 4.601675146609478 11.237949812518526 -1.0250237541923766 0.7614633115630692 -0.7145111111832468
Ni 4.718179891952356 1.6753251693254354 1.5844194404270806 -1.301204970909488 0.6520718709114189 0.00971722728776391
P 4.095051146164363 0.6345896320645931 9.298125095104288 0.5360814368860123 0.31085819927400654 1.2179181977646896
P 6.845636242608033 9.081682489013819 6.78430352091485 -0.41955878450621936 0.13248740323916539 -0.341006954943245
P 6.424225721673914 3.431676310528483 1.1291803001346543 -0.8553494574902689 1.6758396412095076 0.7608061375950446
P 7.957801456780928 2.89295115266525 4.963485009447344 0.13193950115549535 0.31404611008368494 -0.6204642713084668
P 8.362590793570229 1.2632284016330408 9.301761324260221 -0.5631320132459011 0.24353103478225802 1.4417201295491362
P 7.034230542439476 7.96794350823585 13.324503877075195 0.9910918773316221 0.17373766813820402 -0.08670891145247002
P 9.222456372003364 4.6731480790948865 13.082057308747084 0.47813417094726685 0.2950037487402532 -0.6543362414655635
P 6.3364353143885275 6.209199505528011 2.8086791721232536 -1.730013813259066 -0.20162770968025273 -0.7922628134424291
Ni 3.50345295235873 7.632786441235963 13.1200163751952 0.16418293457023336 0.925874817204341 -0.24325849784716166
Ni 4.981017321626677 7.497552952961357 4.123645841146614 -0.02335512978617268 -0.9622191601613299 -2.066532136303338
Ni 1.2157208974494613 5.252312596389086 8.148906420529705 0.10259344389321041 0.6732706164762211 -0.4464995747611214
Ni 1.137409903048439 1.5725793776351056 1.8175982720808668 -0.16491132809582568 -0.704975917999302 -1.1081958561361818
Ni 5.234596217940154 8.655154925784839 1.0735232618645656 0.17305606869014714 -0.5902666646791641 0.496679538049622
Ni 0.41209860835509043 4.658054644987744 1.788382353438718 -0.07875109005797405 0.18500655618380396 -0.2661960804799416
Ni 4.975458520284778 0.3953182068870702 5.161210836913609 0.4186707254743113 0.3971570197722515 -0.4870047339640193
Ni 8.47847891690995 8.57314419936487 8.261744565782164 -2.482054803066971 0.8425667039033038 0.7239442315716886
Ni 4.281547090522374 5.024346521490352 4.1090981635288335 1.5057737654959358 -0.8231713300958274 -1.4822319736202536
Ni 2.9487140290403575 0.9922644461559103 13.370099853048986 1.7806866570235849 -0.021450970784924348 0.9960178538783298
Ni 0.5320113406795989 4.763331347885064 10.643937589587098 1.5823011084297136 0.018501401238297167 1.4117099563402913
Ni 7.885214923364444 6.840206287654854 6.513274221912011 0.3662341049411499 0.823696349361362 1.3960012873557828
Ni 2.622217280025118 6.430934937200809 11.254868263688747 0.3404235716359492 -0.2920163839771552 1.9919737441704728
Ni 5.478511635099667 7.488690162080149 6.218793039499526 -0.29538118668433 0.01430510376876246 2.9188042404198637
Ni 7.992543965167797 0.3923372536509095 11.969626118814618 -0.6195679847464427 1.6786994792558059 1.7624012284508357
Ni 2.347277493124643 1.1330383291454555 3.677722294758608 0.957376487357048 -0.5127844140312845 0.9665409274651354
Ni 6.613924419122953 7.117456106238801 8.900854865428117 0.11384459132699748 -0.7318781417067847 -1.2227140764914362
Ni 3.3664064113285708 9.120225965867911 7.444857540969121 0.9192339148490556 -1.109102170000535 0.3127032229025453
Ni 0.4862598287079967 9.059254014063143 10.522519195177269 0.1865078233196788 -0.7575092120113276 -1.1158626286528202
Ni 5.329307516962474 9.153523554038426 12.19349671921477 0.3550582908299885 0.15808067832723743 0.9576713928896475
Ni 9.11255040242562 6.738933026121319 12.156009782748175 0.9004052121783267 0.1299127005334537 1.1539697199371868
Ni 0.7663479491691646 6.018166327624376 5.572947755048936 0.945038020396353 2.383829663444785 -0.7853290624370732
Ni 8.536699077984208 2.864678573654797 11.130971416958761 -0.5649168730604658 -1.4883406576211529 1.0222845008843424
Ni 3.977018650783811 2.7946965779531427 8.733221112047294 -0.49839009298282555 -0.00021854376870930105 0.21856922263059778
P 8.729904237869114 7.81239830711096 4.734536020668949 -0.44859322406535646 -1.3022508956754992 1.3088496319389393
P 2.362693043203584 3.0225614164035974 11.704428959564034 1.4284776627169335 1.67008216990044 0.3249941244547564
P 6.387274418051855 2.9611385022383105 11.236912599089335 0.5482833782688429 -0.3029692834442331 0.7634947401708012
P 1.784191164479942 9.164171787734745 6.069612849977381 -0.11360804983615917 0.021991159559110515 -1.747722029172106
P 4.151559490931348 9.158760239408526 3.0130589952355336 0.35284842766286334 0.9058027290448142 -0.08191817493204602
P 2.0138322424320294 3.283254474037087 2.875261463825409 1.4410130761797826 -0.9662498785872778 -0.22803628158076858
P 5.338188714470641 5.17482069688778 8.951811771503987 -0.8420275435703821 -0.5543879485046839 0.8928924487410493
P 8.360704114306836 0.7441983346169327 1.9300866914210875 -1.3993120968965709 0.37005013625313044 -0.4729976210516499
Ni 8.10979417890255 2.875207164275877 2.5346054170212433 0.5179916692638369 0.14108182977639575 0.6407399908383675
Ni 9.134942064122376 4.110595542632024 6.438879237396714 -1.2567783651649969 -1.0458584315495407 0.10425103410129144
Ni 7.224232949233355 4.746710163740247 10.226906925538096 0.668593522715526 2.0555247294492407 -1.1969379959685966
Ni 6.63582830520527 5.838020669567541 4.933958939140919 -1.0698802483854348 -0.5291212035180952 -0.17341448047083036
Ni 9.101451206368784 6.735398953745012 9.671283563794299 -0.056034365186748654 0.15989330605594398 -0.6476161491329105
Ni 2.9355901040179275 4.5644109303291 9.731305733647934 -0.21531292047682918 0.4117904534147101 0.5710067880082876
Ni 2.023376078510753 1.9245232884224486 9.910927723167761 0.009675575416551077 0.20079287248378322 -0.2752214239070034
Ni 0.42147310346578276 9.051826940084812 3.356651819371156 0.8467594018284127 -0.04457907216195549 0.29800448323979
Ni 1.8595663018808555 3.372931560585866 0.5847141153226187 0.8758640325038529 0.09955105752246081 -1.7563059141863755
Ni 1.120273333348744 1.4236789688427514 12.160118141885631 -1.912449780502216 -0.13095451153440674 0.21069213387536617
Ni 6.287280417092035 0.2515633706613643 10.033666793061965 0.3592003380228201 2.599420263063033 -1.787485168002657
Ni 6.446166421010151 2.93759642635656 9.024037535032058 -0.05072812248248683 -1.0374326693796907 -0.587597088266801
Ni 8.276006020350719 0.7236942725149187 5.177806251780681 -1.080067730441398 -0.7572107069343024 -0.6194782532461138
Ni 1.7865472127308126 6.433143732436001 0.7166592596908333 -0.5441382457522177 -1.5579324497773621 -0.589104783160579
Ni 2.3694022587304784 4.283222093575728 5.300261859619704 0.7760895461166762 -1.4278197174179603 1.3715187288333863
Ni 4.755223228709214 7.8380019252122235 10.38501709012985 -0.48531037698073193 -1.0966606018030727 0.2454907296117901
Ni 2.4672979042168666 8.391848127123039 1.7837622900717753 0.08002661433628798 1.5846454402921741 0.0662555286941246
Ni 3.3219360005933796 1.7845040771382605 6.061504730801532 -1.0994803306400547 1.3532857507651272 -0.16465241800748417
Ni 2.5046449503185646 7.81769941567542 4.143339091331043 -0.26875921322142743 0.17609254152362577 1.2363764044698773
Ni 6.166164811695694 3.8437178583399976 3.542146443222547 1.262669019617819 0.4826264023906655 -0.14119701519802133
Ni 6.8074608982931375 1.5113681396798584 0.5469704064099341 -0.700419151866555 -2.717547026705152 -0.7898691163992719
Ni 7.397761424898095 7.748214398901684 10.96060335914304 -0.8996791326455795 -1.886110885497371 0.700227347570723
Ni 4.056590499131588 2.7051851510470026 3.7304167864194957 0.13073982442043935 -0.4526895056219171 1.2359246616444393
Ni 5.241066147316569 1.648598746979617 7.271148680360173 2.3206676860743194 -1.836116555857115 0.22023452614816263
P 3.6708612245592946 5.436185596405307 0.10522700500452824 0.46808629979296157 1.055489783991718 -0.7926387087246092
P 1.4511876728343667 6.237214391761025 3.027041589405644 -0.4111775024210596 0.42882221208601634 -0.7963642372053124
P 1.395866555506297 8.550310778621077 12.87559017413755 0.06525331268185537 -0.8341982773339504 0.26570602821740047
P 2.1467372923962045 6.928797383212997 9.392737918672372 0.022881018363231562 0.20370773213773302 -1.9983562506580488
P 4.928834534195275 3.1980041812721707 5.799943800706882 0.13032330570831105 0.8630447692519976 -0.8176370305411597
P 3.4501381573692926 6.215678638217907 5.430987564951823 -1.1414114236562019 2.2805181104386274 2.4554495417746165
P 8.09685432014972 5.340719625677631 8.194435212315094 0.7908574484544703 0.0433678254626737 -0.022418991125148485
P 1.730664693280465 3.1919944175697537 7.805247332537028 1.6990641589550868 -0.5484132189784877 -0.8043408276528857
