# total energy = -340864.6736887104 ev
CRYSTAL
PRIMVEC
9.26042354019691 0.00000000000000 0.00000000000000

0.00000000000000 9.26042354019691 0.00000000000000

0.00000000000000 0.00000000000000 13.55356590903597

PRIMCOORD
 96 1
Ni 4.647750913133452 5.981242614050985 7.473124595821117 -1.5968872337740048 -1.1970536956108546 -0.7799901667226631
Ni 5.494959263482013 0.3491855611081165 1.0827212888833753 1.115290301089118 0.9202860102626538 0.5683685790544921
Ni 8.358263640181152 4.2480988229349235 13.332981580696712 1.0431220064549842 -0.6906767277678105 -0.7129874754498688
Ni 1.053789874276284 1.2231907984832884 0.07620494972895969 -0.8299947807755641 0.12254674708668574 0.7862528598029233
Ni 0.613027060690417 1.7797237205295655 6.588104084879869 1.5602073618544678 -1.1441535051777134 0.9611146142432414
Ni 8.274410506813501 6.7283365276422105 6.501564502700518 0.6568178702368366 -0.26922484000393637 2.993435651882509
Ni 2.2231313110220916 0.33282980140033697 11.856049626370947 -1.1216972330567263 1.228150159905343 0.6568512945779333
Ni 2.656991405048351 6.750793054248125 0.786183086562864 -0.24579103446102832 -0.5825723813586998 -0.010473388727498091
Ni 4.270379401497328 1.690036520456049 11.904381627880879 0.07860505139841302 0.655729008048032 -1.5452926495261645
Ni 7.833030949033013 -0.34873920870300107 5.65136225748528 1.2896378348971789 2.201752107982318 1.2413075232229072
Ni 3.0554581610590215 0.9943101751464752 9.833477785976857 0.358086536133351 1.128066884028496 0.28536802542270207
Ni 7.812380204978916 2.460661169760935 7.600108150907135 -0.7792129222370064 -0.12999214762113742 1.3471127891851962
Ni 4.999137676870116 5.480587086454228 3.1465418329726087 1.1202797838839094 -0.8435488653109149 0.8911710951745684
Ni 2.132119870410577 5.950081289502984 12.332525262577722 -0.47253893624767646 -1.678570152766793 -1.4336607495797695
Ni 1.7794829495226567 0.9970605208792409 4.5866487878340125 0.8815883365821398 1.1308616731648136 1.7557410428218405
Ni 5.272357207171513 2.264645788867169 2.5459561510430353 4.074541336670118 2.1011931780206328 -1.571882741309867
Ni 4.128222642764385 7.383409614477573 4.6235552790237895 -0.23792860099381608 -0.500394525007364 1.3129813947191258
Ni 1.5598905307985167 3.9221226608504787 0.6963616103508792 -0.17237421213177412 -0.07101361220440028 -0.4546772254759073
Ni 3.690852848291263 1.8193120303193726 0.5175446876890734 -1.1122574278000652 1.234572518491919 -0.4367550937798478
Ni 2.8124646525480173 4.0079945665068255 10.036117147687616 2.115005915534009 -1.1962574249618043 2.385655146689298
Ni 0.5960517786610147 1.2424524790359899 2.6623541162060764 0.4811827279656036 0.4791860092505489 -1.5710900702052428
Ni 0.7479208693957234 0.07610771528386191 9.860896973452093 -1.3068521418929364 2.3162726423304174 -0.5302710008518222
Ni 1.8160523613027617 4.5248928766465815 8.004911814611178 1.3110250423237035 3.401424986383574 -1.5116978442898545
Ni 6.348714733133823 0.6282660133430735 11.785923218524097 -0.3259480037275935 -0.25044550251390413 -0.4811426187562875
P 4.959780877663874 9.381457075733335 10.147554304066004 1.5988191606893947 0.8778352972976107 0.9018841107166983
P 9.370529776189015 3.808043505692435 6.835456474658256 -0.9513799034539809 1.1554954125530938 -0.7537898541782114
P 8.253565293869206 5.143174301541616 10.882320742103499 -0.3045312286147142 1.6243237327184026 0.9262728239737079
P 2.4356580267357932 5.979760946316162 9.671973224754124 -0.7552849506664994 2.7612521809025865 0.6265187050326629
P 2.3617968901548574 5.220193242482394 4.023051088819631 -0.16748680213248573 0.3370482274058131 -0.7703012215696734
P -0.08578485767692591 9.24192101680636 7.523895792839503 -0.2771199264812969 -1.2179354241558702 1.203470911991108
P 8.797698509059682 2.179357289881409 9.750204355110455 -2.1487601291663188 -0.6650001489373129 0.6144124086874321
P 5.374008874203726 3.636290433956399 10.926153103911242 -0.7110082402363109 1.080008080848056 0.15887669186597156
Ni 4.460208819598207 5.987048899486823 10.60612583778211 0.14163924494176253 -2.10820586189304 -0.15425359127166338
Ni 2.1161734214145422 9.307188480525323 8.110711225258562 0.2852926921000764 -0.8007281706009629 -3.326439276905303
Ni 8.553954906257923 4.891364870008414 4.908952266020766 -1.3730709038118547 -1.7689963651698501 0.13004305546373088
Ni 6.57071486192705 4.869176895679436 1.0674369601563398 -2.533787712664888 -0.3499438524215586 -1.8244573743516321
Ni 6.422390661247906 2.1639109037458772 9.744877759603767 0.4846372621731074 -0.43077496493701295 -0.1441118748519712
Ni 5.744935131193371 0.10660506747819459 4.680831923440383 -0.8160694289437235 0.9248440619469814 -1.5562522338614615
Ni 6.507901410393889 5.593814282664748 12.173161711231812 0.29230126220742564 -1.32482646698317 -0.4374978854831433
Ni 9.277832938529139 6.90923889764078 4.107909904162293 0.4063921652172743 0.23464761624969913 0.11957815137666503
Ni 3.506440777845831 4.499121118484001 5.729295202209978 -0.3487387763698639 0.31138861785617983 0.2855197205092179
Ni 1.2369054854537453 3.213218733124321 4.634750204802714 0.9189042994237787 1.7679532686173163 0.404631987993058
Ni 3.725949852759887 0.9355064869206797 2.5108795195057647 -3.861740383981865 -3.6294720665976206 2.240572423283625
Ni 3.9795835876915904 8.5973585104649 13.368397143728323 -1.4224358273982276 0.019855344163030322 0.4786139387971628
Ni -0.15696973191183775 8.272373213678119 1.7186873442358583 0.5493858673044023 -0.551708859010624 0.2488524469951714
Ni 9.116414499243493 3.814349853988776 2.7756757687346916 -0.31598626452919126 -1.5942875913676284 -0.7142264900632925
Ni 2.9294145389422805 2.0969210012851836 6.298992742080159 0.4874071116087606 1.7068988245081569 0.9374409247753854
Ni 7.024012584549522 4.775415109335157 6.828001833867427 0.06758761724198682 0.5234341804356469 -0.7513161958267384
Ni 1.219153253905895 5.53087118520479 5.9559385072672075 0.9992299330577243 0.20552807317592348 -0.3590059626238269
Ni 8.356726409906273 2.2512737375603895 5.050994195504259 -1.4521199847262216 -0.023567760017611024 -0.8755912384584404
Ni 8.422808790879387 4.836293132389704 8.781463134855358 0.7871116082587927 -0.008320346940237283 -0.1855439167445127
Ni 8.225932190614754 2.025958377210495 11.843715668520877 -0.142060134529265 -0.9918840342156142 0.9098586442817427
Ni 7.953370150370684 7.528844563073812 12.73280243135188 0.7926927018909962 -1.8118725957080861 -1.707398389852395
Ni 4.681292166480512 1.2149397612849917 8.032574551220327 1.417005657521592 -2.1665318513274427 -0.5257646283410364
Ni 6.196862311161131 7.321846320095669 0.9279823929547808 0.9037990683512241 -0.904788428847687 -1.0409075153021685
Ni 7.028124212513656 7.022438312581272 4.8308165180248634 -3.5223172285859725 -0.9841311297430729 -2.574873426961604
P 7.550708422585797 2.2475232661066187 0.6274862856976229 0.94563991564641 -0.015069235628296629 0.8883415961455732
P 6.3849415092502495 1.437004713041618 6.307558633672105 -0.09379384332370944 -0.1832803175213166 0.19904426522379268
P 9.393125209145069 8.97554493935518 4.107272787036319 -1.8822377756952102 0.713559545903255 -0.3608766972839785
P -0.07905067782215448 9.175190406199262 11.899543056684346 0.20977039339204517 0.2773608388475094 0.8726735505910133
P 2.161873610610495 8.780400038255621 1.4676881997451379 0.03028888079152848 0.43124933347027017 -0.7202382434750112
P 3.59434997663756 0.3129828620923803 5.63081523017262 0.8872553050599301 -1.8383688422264017 -1.0364319960293182
P 6.798048994565642 3.891322492812841 2.9209829234888023 -0.010906362499858636 -2.168675894253639 0.6616901107274733
P 6.074754368965014 8.295857647275065 2.7457896044809735 0.14793356259090648 0.46904017906579865 1.6175031102521433
Ni 4.112674391972083 7.38084447721166 2.411423498848092 -0.10829460804304575 1.855290814792721 -1.395469840332345
Ni 1.0070617780892974 7.813009913766215 6.044958030817719 0.27463366972433345 2.981494163249917 -0.3115737372837924
Ni 1.2982372692520832 2.7722095922775396 8.942005538092788 -0.7463745355507468 -4.079589183506671 0.1772909327071011
Ni 3.7935787244312236 3.9847138622234155 12.817783484282664 1.9971660870046894 2.2708193950936244 -0.20633102869319303
Ni 5.286127456682025 3.368645678507274 6.890984751147759 -0.9976438195175269 -0.8589659711969336 1.415744274310665
Ni 3.8284997808563377 4.123073847385874 1.7063533863857894 -0.4975560271173044 -0.10215147125978535 -0.5450247621222291
Ni 0.9139565557600107 5.819305591058153 2.3568434897088766 1.325536605676317 0.4007455084544582 -0.9281011354316984
Ni 7.568849591914038 9.41942481143818 0.13409000395916484 1.3432569057742156 1.7897917046486467 1.1231499063428527
Ni 6.060854473527704 3.1007045895111847 4.758548174258863 0.08542670230593674 0.13479393988515495 -0.4319687281347979
Ni 2.1141824303958736 8.379951551649626 3.633033543066791 1.2830714945335708 -3.0166894802041275 -1.734599632857535
Ni 4.1624491674388 7.841411632158107 9.008974141579793 -0.44039808984907375 -0.43955399668122364 -0.8724516643881942
Ni 5.503043613060141 7.6934578484126686 11.846372483977882 0.19580801767468214 0.8080090205330922 -0.252394655820475
Ni 3.7650010579958213 2.8975401617968966 3.9484518964982867 -1.657723648335087 0.4341490236155685 1.5657851130525613
Ni 6.894051803358842 -0.1404056126788487 8.398928011163372 0.187076037118323 0.20832183387097672 -0.694822631615384
Ni 7.6056319934310235 1.629158497401501 2.8533642382831435 -1.078600658977568 -0.013033950365822713 -0.8470432516174187
Ni 5.967055645490053 4.7022114628115474 9.034305103591263 0.1775552421120813 -0.41974236127193515 0.645277730807721
Ni 3.1364776048838223 7.739815527665949 11.339726388520766 -0.0978574718701218 -0.4884602354636233 -1.4957824586111788
Ni 0.48900498898937583 3.6558854897494357 11.295338401312467 1.2298871972011078 1.0323074323379833 -0.8337763593051833
Ni 7.022669823164838 7.148528236814725 10.014160683942205 0.7331642075080599 -0.6733076403617436 1.1434382242782435
Ni 7.648294763770589 5.705819102994038 2.789201543068959 1.0107924410843432 3.5099278537826843 0.9055476756112146
Ni 0.5452009420018825 7.338440998725689 10.607712148300704 -0.1463515628157673 -2.7545485436301655 1.9550722431584329
Ni 0.8076126322200787 7.025410908474261 8.303957739572878 0.786408154433865 -0.06546825690613886 -0.027059318110637266
Ni 6.133020952636936 3.1070387190775537 12.896245199180228 -0.6619845020394406 -0.22394719911305946 -0.19815749174346517
Ni 5.067590726218947 8.183769483135691 6.606549922136084 0.4780259275041767 0.5605735084901056 1.3426429263393005
P 5.41046716090372 5.448305250681766 5.270792195626606 0.8654119839325934 -0.20916952658325264 1.0088160340842627
P 8.616536847207518 6.193723027647974 0.7961241510211933 -0.06380629582268366 -0.15362212833525157 0.19563472532161147
P 2.8243735569666586 7.054618283696963 6.776769467766578 0.8692930641545544 -0.34419949373861364 0.6130314691795056
P 2.1542430217761557 2.8678142028670064 2.5398840914572625 -0.5273476565574402 -0.3684969328333976 -0.5276731582176589
P 3.5458994417088414 2.8726018417351535 8.213677872405432 -1.0571951967185986 1.8462068502135818 0.9174166591346586
P 4.706008236382032 6.209002726163337 13.30859888603553 -1.7176349799787387 -0.20116748221438258 0.4113083715719691
P 6.477943940880433 6.789742394827289 8.055277405087155 1.20264327388349 0.36315520890551006 -1.072357506281334
P 2.2306785560463473 2.8526641502784393 12.287432557153048 -1.3925534380164986 -2.0329640705399052 0.20246974596557385
