# total energy = -340898.06634631596 ev
CRYSTAL
PRIMVEC
9.01654708435435 0.00000000000000 0.00000000000000

0.00000000000000 9.01654708435435 0.00000000000000

0.00000000000000 0.00000000000000 13.19662806450459

PRIMCOORD
 96 1
Ni 6.3963566618784355 2.0529415802555584 11.254335275977128 0.014102500839653134 -0.3086614487330039 0.8861384178466674
Ni 4.637832399420567 0.36831693916999425 5.932148742560265 -0.44530349757049115 -0.14714603369260465 0.13128104163589002
Ni 2.744961582735351 1.6170456193450293 4.8261393824015375 0.10984883990404307 -0.6422016629855586 -0.19885683180333497
Ni 3.611100129422144 4.4120219897514605 4.9867547454266 -0.41780066416453215 -0.06686899390840742 -0.6026043603089105
Ni 4.9692265775462 4.65435973055471 2.6926006894662873 0.4137879434607132 -0.4176474264161194 -0.30203443033478955
Ni 7.14778669427796 6.006381976181323 2.684748178454435 0.3965232428429945 -0.19656263645251956 -0.9759151695911839
Ni 5.074810346002726 4.403330038189369 11.835461665316872 0.5934741158728682 1.043203767535513 -1.1130837803561024
Ni 5.473594198376357 7.796031359793069 12.377236235779447 -0.19574656830912737 0.10068028603089757 0.29387272045960355
Ni 1.7489486892639465 6.43784179583817 0.32325494091079865 0.04358071280442817 -0.47915489890229734 0.35194082824692935
Ni 2.8688579586842087 1.6875099362099097 0.3183887103526443 -0.18679990063880086 -0.4761657343669864 0.5092362916687101
Ni 0.5030944843565408 -0.0005400911810884637 4.564727135862184 -0.5232971406371504 -0.10350207175040885 0.03547968096384858
Ni 8.62277661148528 2.196115334253951 1.2940323219008945 -0.15835552925517887 0.12415805743786358 -0.10200157594548241
Ni 6.803300489525608 0.7696362446341453 4.85193842908682 0.7554140200451958 -0.2068215951763664 -0.5755540410593378
Ni 0.6968727082170517 7.171536279770231 2.447354210515807 -0.4062373848069649 0.0040158060276124395 0.352235990889845
Ni 7.61632255628265 3.837208085150949 3.9195832609510193 -0.17203894027954242 -0.8303094838025056 -0.11951361668731673
Ni 7.541890958621794 3.8935615055483264 12.715703895233359 0.20799556087980953 -0.511273633813713 -0.4464954609960633
Ni 7.964189966258844 8.778411233801942 6.891767244656953 0.20838019791273787 0.42218233817199546 -0.08120623646668594
Ni 6.975417360240094 0.45272985465163357 0.3065247374632253 -0.3808336000218796 0.7985810423509732 -0.02280697059218653
Ni 1.8064291780692712 6.612248869557605 9.210863775312509 0.6606652690073848 -0.4409986995475502 -1.0094570101023712
Ni 0.0018042111074424306 4.662970533191429 1.4132004204647308 0.42376485216776694 0.6382066828935525 0.19623250680661042
Ni 6.314639694028608 2.030048566753328 6.98545007238028 0.6358248129249372 -0.3278102537473129 0.38508491909906584
Ni 3.3643172308179494 4.382646078766716 0.6312953599690317 0.28606505148972666 -0.14958138260697465 -0.8483051490489778
Ni 5.966799333694205 5.492574030366194 4.7488062598312615 -0.35201024803228403 0.8870077078254982 0.8506080861505415
Ni 5.305679038686701 3.0158907949114138 9.107138317247006 0.8597995228418224 -0.7570451278907157 0.1620070099648371
P 0.12681773726225778 5.452152848983564 12.23880428398697 -0.06469126953079826 0.250379168052343 1.496222888582707
P 3.8812358854390117 6.137121911503237 12.531861004802588 0.2779689047451535 0.04731729702872496 0.9113840797873336
P 2.3669789048987986 8.292825080921821 1.502422762256764 -0.7467440030750236 0.6523174112633217 -1.0380412494979672
P 6.29006960273535 7.82740894427033 5.814447636236213 -0.5991611389553165 -0.21523553027167447 -0.01723770403452515
P 4.836241521955653 1.0399324951923046 12.653204796221125 0.3669411583105035 -0.42050932134494673 -1.0995296958207514
P 3.9619790661843743 6.380153926445782 8.121851508400358 -0.5382722738897439 -0.9577333564758346 0.6817452296061356
P 4.607284337291557 1.0659903167840519 3.585431822672184 -0.15874736537695885 0.20505421886329844 1.0022445515143321
P 0.14729341444312244 5.409342282576085 3.7018787272718714 0.41998070253498637 0.794514071370451 -0.5315758357061748
Ni 1.493140226848908 1.095447376694169 2.485044279732299 -0.1749334882185181 -0.08914888835253035 0.16512061589315433
Ni 1.866831028187996 6.384022025221858 4.732997547514026 -0.06277116968994996 0.16528876603990242 0.027501290744062316
Ni 5.957827869166941 5.680010014881503 9.047357707234744 0.11345686897027557 -0.05834013050178986 1.160316488090821
Ni 8.617556030619667 2.3653919925804083 10.263994692389243 0.41225633730753514 0.4081464289042196 -0.681715919030097
Ni 2.389917001137347 5.214620927871803 7.0593118242540775 -0.07335974383907366 0.4177561840798418 -0.04207430346223076
Ni 0.6815310530480698 9.030793408256818 9.066809104646465 0.28831039588047763 0.6460919991789001 0.0036121428312905534
Ni 1.5844147347981319 1.2069369836083401 11.292632158824459 0.028410432821893004 0.27165453249135146 0.05809201904672576
Ni 4.104855274123069 6.846111055933088 1.6276589971289896 -0.3596250842650645 0.237532651106978 -0.166493584981281
Ni 5.626614021986581 7.835749250489141 7.962317229392198 -0.4543504382641078 0.701494644318921 -0.07182350970020535
Ni 5.3028207932041465 2.735250761332475 4.822536370115011 -0.09992258192926662 0.5144944547438558 -0.08182458677697521
Ni 0.6530035991608278 7.112513961382834 6.811505547535467 0.2432029620188779 1.1776619213478041 -0.715329236209168
Ni 5.011802713724826 4.718260001011704 6.996126565995085 -0.4448748946735048 -0.005202627246862008 0.2944877283357831
Ni 8.245875919320358 7.290933398634562 8.938498227157357 -0.7642727559874063 -0.3275009500370102 0.9489751506672301
Ni 4.774487189747392 0.24050197178038443 10.428358234111775 -0.7694000499116427 0.05673319102598617 -0.17991885724825143
Ni 7.879272124130444 7.155640106944539 4.588877056052958 1.2001243641163784 0.27884667936441654 0.39222847212238254
Ni 7.290807166972871 6.1729807199704965 7.004572365816881 -0.43838671584599986 -0.9417176977738685 -0.8751428380671122
Ni 2.308145934003937 5.118459451305719 2.5952355038405144 -0.4673507071785177 0.48379162634336037 0.4849455374421454
Ni 2.2594565787806027 5.2267211342995274 11.40023743717748 -0.005520929818229201 -0.018976798212818932 -0.5649202154945754
Ni 1.1655059489321882 3.362423755892598 3.924795726924095 -0.36193959133085407 -0.2095269099226714 -0.1825023017047115
Ni 3.498258040418436 2.846487904923266 2.787194188463235 0.21738908627956754 -0.6202377571199577 -0.1287850146869137
Ni 1.177930751061402 3.4161894272253277 8.190725306327941 -0.3983194155114688 -0.11678361935066339 0.4562219442552078
Ni 3.8368564398076694 2.58847038842865 7.149880336552563 -0.3724556603708295 0.7812872882675318 -1.3576604827940555
Ni 4.043326355596396 6.940288892101185 5.910109596083895 0.34533772110811495 0.4378205589298847 0.16818948462646519
Ni 0.7926654080000558 7.292889989390759 11.251339978976167 -0.47534298135537495 0.16626989900624914 0.43617402446539716
P 0.17271647110751362 5.517369535341041 8.026519554182522 0.6067950013514904 -0.8646146848422787 -0.15309479507687182
P 8.48756446872063 1.57315306726592 8.013665564403562 0.35896353942166564 0.920478328779118 0.008163509647398844
P 1.969736882107239 3.2898315338735125 10.414330289879096 -0.402226720985675 -0.9385544695545385 -0.8040034989181251
P 3.96597339662214 6.27727512216833 3.8200541039819873 -0.37343370801338266 -0.6335900100571475 -0.5255144600034434
P 6.794157710600338 4.040296795715833 10.385086922139127 0.24774661552550237 0.022279123113174534 -0.06421073034995392
P 6.469679224225872 7.711600411216904 10.197549050639738 -1.1869968255954848 -0.32954137750580664 -0.16921612611876666
P 2.1040563866927955 8.378653594323842 5.737894445004237 1.6863811641707795 0.7031905439641051 0.7606829817536189
P 6.9339953421112055 3.854078045081108 1.753488520811159 -0.6064643574849491 0.3751314074307798 -0.6090951102395769
Ni 5.290729603323684 2.8996224179475454 0.5477327048943481 0.21015220221149614 -0.311059002430903 0.36984341955896305
Ni 1.4348843149789152 1.2688175474782923 6.910071737256748 -0.042702681074849036 -0.6501399439960287 0.03944072249412563
Ni 6.893979905355437 0.5867986992232628 9.156150464862376 -0.0003067326071414072 0.7048501910547151 -0.023000831770547483
Ni 2.8026855183167925 1.6132135867580075 9.013415816715721 -0.03685110739007847 -0.31579651711588835 1.835125909809072
Ni 6.418032441500084 1.8006856374623705 2.572220766950226 0.47114822654773697 0.7616402034605657 -0.010071525303389107
Ni 3.9643684512092228 6.797151204291847 10.433043232069931 0.7257280629449888 0.45669451301625225 -0.3565770414673601
Ni 8.03776499192966 7.118482915671324 0.3508077060388475 0.919004829557385 -0.594737298856008 -0.3383664319966044
Ni 7.714116027903442 3.7633715796094895 8.264243527750997 -0.42830413479901724 -0.10037946696102712 -0.5199071411189949
Ni 2.9029675569823334 8.30579087588685 12.473162380461952 1.0994559051600226 0.2681542326475768 -0.026850544533940857
Ni -0.029039593771813272 4.953817298272741 10.0578628971229 0.0375213939842257 -0.6336650862694572 1.0801903720621915
Ni 8.519392880561067 2.3707027389186575 5.819633954222224 0.06298997056897539 -0.09597876679017019 0.06537621141296483
Ni 3.887637633996154 2.5933573570455106 11.448035055876447 -1.2138013473828386 -0.7265058216512778 -0.9963330711259034
Ni 1.2543459891202455 3.3745059292257955 12.540056144610455 -1.2482883254161148 -0.12575111295659633 0.5307137448161957
Ni 2.992267441080833 8.476032304770511 7.812720988777957 0.3294251636429166 -0.3831576201693659 0.13623375765547507
Ni 5.553498840226207 8.017658091531874 3.5953815825775446 -0.10927471256812792 -0.5004716581022025 -0.017067239894931897
Ni 3.0125276227820983 8.416441943905507 3.568671864618641 0.5454970737729573 -0.40514055219836037 0.7086937331705214
Ni 3.5109443224182937 4.352774257682475 9.259097794899033 -0.7157804648139736 1.0383325554861407 -0.01721482121638971
Ni 7.034845423254352 6.049697469235562 11.428913664094571 0.5708206401394105 -0.4629942299820349 -0.09500020492698477
Ni 0.5969702661913077 8.965892301053568 0.03812376513987049 0.38431358815068006 -0.23647335660452823 1.1754258329284337
Ni 4.712859089200819 0.31634465908799064 1.4907310054200793 -0.6299207887356765 -0.5912704233533301 0.24487032241897183
Ni 5.873496102610675 5.553309492733672 0.5507009522535187 0.4204116194248179 0.3522884413943352 -0.02513253340156962
Ni 7.986677235134213 8.770242241981137 11.350169451877546 -0.09461171123931447 -0.04751964284751816 -0.43211733789752027
Ni 0.13358645929302757 4.739394787797536 5.832514091988249 -0.03064677835157948 0.11930664288283323 0.6194895661000235
Ni 7.95176516412963 8.818471753294029 2.543425521609256 0.003620627471722797 -0.09732191108162594 -0.02390714563490076
P 8.527174160849539 1.7062553379708933 3.602375718289904 -0.4114952907717946 -0.26338920715876574 0.11511831583309852
P 1.6953633488764883 3.106128399925326 1.6134200656903437 0.11417343542132595 0.6164042423064803 -0.5893240982602367
P 4.805738542562961 0.9773666737303205 8.221974855834059 -0.05996455347909028 -0.38233512426807054 0.19523414744908313
P 8.55142867298857 1.6156660876137015 12.314209668752294 -0.21646348914150462 0.7527963799166906 0.26597239450490967
P 6.286408884546337 7.652983837456368 1.4271228710944253 -0.19949600804923062 -0.1963060403570232 0.39406166867637943
P 2.020013149648963 3.2939340628784417 6.044174834036618 -0.770020457104461 -0.33060504288363063 -0.10993677163215906
P 6.819007314858765 4.000082994920264 6.142634628500191 0.8612398548327749 0.07218372125310149 -0.7639552247469876
P 2.4250635023707834 8.49290226470067 10.275779319662742 0.6679222076801142 0.38374331746950685 -0.5839085836716201
