# total energy = -340858.5468344727 ev
CRYSTAL
PRIMVEC
9.34745402520523 0.00000000000000 0.00000000000000

0.00000000000000 9.34745402520523 0.00000000000000

0.00000000000000 0.00000000000000 13.68094382102335

PRIMCOORD
 96 1
Ni 1.9888671229144834 1.5259812036551617 2.8551723289382984 0.03155283510561663 1.351720977381169 -2.4423927085906585
Ni 2.5739803499329916 2.866789344698708 4.440108859357605 0.8013310942922844 1.871657171965886 2.9936513674377414
Ni 4.653751462443536 8.78729841804903 7.2818330063080525 0.17887293248224032 1.5837769216442918 0.8058307819348509
Ni 5.72611942115087 5.791617030929749 9.267224745846514 -0.11722636331503682 1.8877088261121102 -1.057257931635734
Ni 7.789167938557316 2.1289480677048753 4.377053739294043 2.3321630883084286 0.7882729755567457 1.153986432107735
Ni 8.41738227570718 1.9359605335968793 9.166328327985344 -0.10798196189863338 -0.4794971127330646 -0.2074234904264234
Ni 4.705601789465577 6.355072207162235 0.028772397982070264 0.3809109902270343 -2.107201846108558 -0.8000972218851834
Ni 7.93205311953062 5.872192083918751 3.1591758345461987 -1.1075679927441957 0.47315780077859804 -0.25032003267963343
Ni 0.39874742928376145 2.9203128659765527 0.22577279406781323 0.9367153594632707 -0.4371047638097827 0.8847263679904891
Ni 1.371327578167571 3.94985079071688 2.36034615955561 0.5137557768056185 -1.3932751466738715 -0.4664042841048483
Ni 1.8680606281546395 7.340153640949465 5.867305234997329 -0.050042152159055754 -0.27764340308493474 1.1743338854158356
Ni 8.778119218276967 7.80274044168261 1.7319121572380844 0.00790202845589607 0.8234474665753496 -0.9102386533289807
Ni 7.838457063198965 4.265916250892879 10.111695234204783 0.5515821036247727 -1.1329702348673842 -0.32513990600400133
Ni 4.529486409724767 8.534234797449118 4.957221228431289 1.0263267892745163 0.2371421005367787 -0.9857424400942508
Ni 3.7447489562987046 4.877809933458195 8.750837739198811 -1.4031026742872545 -1.824793160424496 2.1452929965533247
Ni 1.2480253132049353 7.432562570630355 9.85189396880273 0.02564649692351067 0.32697593077147563 1.8646655711394016
Ni 2.4718126783355685 9.335937879781799 4.446812853325553 0.18836338847117884 -1.0885549419768026 0.05187277760989131
Ni 4.257634406699346 4.2380701855965635 6.683701580183072 -0.17701222512441772 0.32901867223311726 -0.7558989301014143
Ni 2.2565688563891957 4.8045819792684235 13.255301949463455 0.10458836283605213 -0.6565453333017403 0.7483758822514919
Ni 6.68884174510635 9.167898700247775 0.9983146243343919 -0.8599280779998867 0.8014604207812972 0.509735857012948
Ni 9.198137713753507 5.034202185379192 0.9321047385650536 -1.343059702161745 0.25819120789759403 -0.4610401915794576
Ni 1.9001130477253225 5.318159141260849 4.295446727389729 1.0127485363694493 -0.2194192293357189 1.399586690714196
Ni 9.244482390403098 5.311784177671696 5.721671902564773 0.18897531102356485 -0.9086450835896157 0.7738809685011317
Ni 7.326758739449089 3.9199482855530965 13.466071145207295 1.7777985368425124 1.0990103329821717 -4.194714184207989
P 9.020853902269819 1.3033435456398437 2.541987754067544 0.2814514639771153 0.2186746378602105 0.8170215084443477
P 8.90824512461802 7.31126066081153 6.080509442493332 -0.3741304769700911 1.1284939442635855 0.4984574558856512
P 0.41386693603662805 0.6188079942469832 10.221306283377048 0.6328361626102585 -0.41269625305843116 2.2330853708779608
P 6.981370316253776 1.5311690405935485 13.47665994103397 0.08340890054495957 0.9652733736066214 -1.4209692701550303
P 9.240874273181085 4.405838288966239 3.781440517261318 0.10911813238560564 -1.0053802689298361 0.5055534435004843
P 5.464643092002223 4.372682869830277 12.967810721245932 -2.647281862631002 0.5485512872182489 -0.965380331498131
P 6.3492300484478355 0.5011459829935776 4.990178481543658 -2.9561525991613347 -0.10439090211326538 -1.8636880377174807
P 2.7373644974033815 1.1811349327885436 6.3215400856323685 1.0157395006769732 0.8301781004309637 -0.5704146629502433
Ni 0.6418102089100151 5.803824805779358 8.265602057561681 -0.5653724725406457 1.8104857426628884 -1.9907041334294295
Ni 6.98759572057984 7.185051337672609 13.088435875399284 1.1670152402672354 0.6654482922183249 0.36202032397011846
Ni 1.2933698122826205 9.027527984385149 1.9294780742873814 0.2000451956844813 -1.1364797906825397 0.6140915350129037
Ni 2.586487243308779 6.949981565913048 0.6859750593000887 -2.101365441932439 1.3850167633198212 -0.985525181877122
Ni 7.07201257713943 8.167954814691111 3.7247323184250796 0.27659593565702684 0.8884665517592119 -0.7265068500925423
Ni 1.4473971583560274 3.499200688668997 9.092819950177281 -0.47730447595711994 -0.21128271627151354 -0.7892643929357375
Ni 3.7472540739554394 7.820257570371867 9.459811274180353 1.26116338160657 -0.23904754508960765 1.9624651931883943
Ni 8.160673148069483 6.888409886790246 9.78814059392962 -0.1096017568902435 -0.2055985214025427 0.013668241515711943
Ni 0.467206312471795 8.04282044875564 4.107703114943779 -0.9866898916091846 -0.1392776866881214 -0.20819636403670594
Ni 4.976846207984701 2.14833468718274 0.8748310187652613 0.6718092014393462 -0.10873632356615466 -1.4201904830074767
Ni 4.188388467889308 2.6583504692228677 2.9057093386813424 -0.2877943754760076 1.4346547380619228 0.5370108906788171
Ni 1.7856908640085745 1.1700955896818142 12.989166849269596 -0.24040354489686983 0.021873917254955876 2.84594457614566
Ni 0.2352230700042263 9.143492498002498 8.288135030036772 0.28585704924397864 -0.35132427770885305 -1.1742053302577713
Ni 4.5811965249376625 0.5545545305879231 10.331014546070323 0.9448570147337985 0.3374457199545479 -0.651168128150227
Ni 1.6809526425768153 2.5227563023251345 11.308188968567135 -0.8461163689277751 0.8285253953188892 -0.5379575708628026
Ni 8.205522232088187 -0.07843074705446826 5.504651129623826 2.894588048184976 -0.30937775807373813 1.5014725670174205
Ni 4.92351898323966 7.569951448685152 11.834864717769943 -0.49201221448093974 -1.543384119649542 -2.478448059552319
Ni 4.230190281922582 2.091801285735236 8.291007502633468 1.488364568880553 0.5513746155996568 -1.0137204133644155
Ni 7.433086028051165 3.0464474094839296 1.575579729022324 2.2228258979334816 -1.3030494803173944 3.350629500998262
Ni 0.9054813202444882 6.318252586080602 2.4423223958906735 0.5608509305212083 -0.07169392610087653 0.09412500141088306
Ni 6.927547676449754 4.020293203631627 5.663910245669153 -0.4692021585649597 -0.30400415246665063 0.18305920264944603
Ni 4.209074383465255 2.1386226825359214 12.261367542046772 -0.7676208465240327 1.3217061761866333 -0.8785518637486612
Ni 5.413400349486479 0.15839821553717226 12.499156488158361 1.1144117551389066 1.9802083761044285 2.193896616493641
Ni 6.411484091708479 1.5713350501867898 2.792526627357441 -0.7974546420560138 -2.480731456269857 -0.1479906410810871
P 5.278395072187158 6.77691345615767 5.97140315583399 1.2983605594821575 -0.7329808878526602 -1.9387930463824352
P 1.9369046264451264 4.5728118587507565 7.212661847129559 1.7778574151049058 -0.5332593940561849 -1.7340141926677104
P 8.966760186301448 1.861339808769594 6.959181330083787 1.385710704063052 -0.5653259355734264 -0.8924234795244307
P 0.4493797830570242 5.215318452979528 10.207064502549434 -1.5915496236111752 0.3412764065545478 1.203875089408062
P 2.7134911000328583 2.8848112359008886 0.9181265559386322 0.43151389998556655 -0.017054641489441594 -0.5028674120278889
P 5.9484860030018405 7.825146288784077 9.7618873347852 0.7841625529327979 0.22813938281753612 -0.27735312553802555
P 6.251296773486608 0.900775811929562 8.752151056477807 -0.8290313884210303 -0.17385491044235865 1.3360200217061444
P 3.4107083421902407 3.040203310249979 10.234221660490146 1.6100343126789238 -0.9674181878637661 -0.9017195601143762
Ni 5.889045543378051 4.871313452967783 1.6028864462261256 -0.2136072506396321 0.46058047833421967 0.8694797262440639
Ni 2.446864323761596 4.930277192440477 10.810653907031753 -0.14519430928287252 -0.8514706912611528 0.6119963430467719
Ni 6.910357708648503 1.3780857873683887 6.812371153199802 -0.7374877745840783 1.1615264492385222 1.166446769358275
Ni 7.212719801344006 9.105953122967252 10.866896602661628 0.49446221868332907 0.46559747193283685 -0.050747405756196476
Ni 4.595320527845595 0.3365849910717593 2.6376037951962914 -1.792661312886958 1.204090547852978 1.3360763288653765
Ni 6.481328267570871 2.1188902072621647 10.634786234820433 0.6106238881792774 -1.0942337375291349 0.4628528193081642
Ni 8.758639124259672 1.9067964772945958 11.957842626080753 -0.8632568852628035 -0.7415449753725875 -0.3093931846927059
Ni 7.255830258929305 8.226002503677387 7.824118068850342 -0.3165079413606162 0.8712586725213576 -0.030345187950760643
Ni 5.429403190636964 4.0254903880239565 10.635305953259667 -3.193237878318249 -1.5735439310623738 0.43625527132529385
Ni 9.17342304552811 8.509781857934128 12.260902973585802 0.4272237572506449 0.5407641870736623 -0.8672228118890871
Ni 3.8629007741387253 6.612482393845659 7.380801044420773 -1.2768103441152074 -0.8432287629673348 -0.32329899614052066
Ni 5.360017040017781 6.720894164677033 3.4451901650407195 -0.27191421391064136 -0.45945227826704743 0.021702938894730364
Ni 2.4748038635973417 9.297360937358874 11.315385573357881 -0.08755866104727501 -1.9067090213636968 -0.4696824406354879
Ni 3.221095238955682 5.376150745523468 2.1326262908314617 1.9313378756559703 -1.4000541172689178 0.6126434897124675
Ni 4.645750041868293 7.86055444432031 1.6531234026975978 -0.6625506589555558 -1.012062051825386 -1.3447658862195744
Ni 4.547741987275524 4.888129522611311 4.420559594181132 -0.2811745561666448 -1.4170141421620241 0.14687375386782447
Ni 6.630756666304302 5.65769605828782 11.350777838222411 0.6649119600988806 1.7075637117856655 2.744992010289982
Ni 4.91650839278238 2.2704872153103812 5.681326421855824 -0.6281811803367504 -1.1391611941694446 -0.8855871733288877
Ni 2.4503789664441786 1.1171890003642098 9.233255163472114 -1.5314148631028077 -0.738144948552103 -0.40911702034760505
Ni 8.615137011326127 3.8954859985841614 7.854735654240768 0.4490089714465364 -0.18382770538435436 -1.5063545777000702
Ni 0.7854581421250707 1.5033416702051194 4.867022971607928 -1.1769486973308634 -0.21364247475294174 1.4075627669411372
Ni 7.021433503853643 5.948149494659891 6.981809646589098 1.2048490232855573 1.625712642646129 -0.3531729008818176
Ni 8.975182242304127 0.6930585598981241 0.4664734720826607 -0.49719864377788564 -0.1373257051680732 -0.07226856765742393
Ni 9.316439090856617 4.460913487598629 12.221419328130402 0.3872279335839976 0.8261466106740675 -0.9858455413310184
P 2.965143255087371 6.807582452544783 11.300719418121252 0.22077857157709074 2.31472303845511 1.1549801634795722
P 2.7036575784847807 7.1633372021629285 3.2008346325341437 0.9308519587039582 1.3780781272184588 1.0377396590971482
P 6.89616827356297 7.184462448074197 1.57661916590079 -3.3978511529893867 -2.7591796146442737 1.0713545189381162
P 6.565268403979366 4.276366704401197 8.15781002292673 -0.8674398129958996 -2.0662367165501063 -0.4513584455153194
P 6.112029057189261 3.493480046855857 3.6563145640343957 -0.32570734847169713 1.4251144026716553 -0.1918325779667019
P 0.13761041271324642 6.739542335293397 13.369811999247268 0.3628338210103493 -0.40557095486755956 0.34410230603911707
P 2.2841718878829913 7.908319933969243 8.073753978089341 -2.2345637551957 1.2515135172216316 -2.4082484586087816
P 2.7530121353040298 9.068376358116232 0.4838597364167144 1.9643498118056166 -0.16560089796368252 -0.5974320720793517
