# total energy = -340891.1811577496 ev
CRYSTAL
PRIMVEC
9.12208396547840 0.00000000000000 0.00000000000000

0.00000000000000 9.12208396547840 0.00000000000000

0.00000000000000 0.00000000000000 13.35109195785207

PRIMCOORD
 96 1
Ni 6.30264832807852 2.1990059899090206 11.362633503715578 -0.4674527799740207 -1.036333265667925 0.3668478272657489
Ni 4.537096390298838 0.6092128879985397 5.608753312489284 0.8246949658292054 -0.657318464022339 2.087686144673133
Ni 2.72703780604865 2.014256428325261 4.905698812636667 -0.887483361910336 -0.42489562333810044 -0.16313109626695133
Ni 3.691670793201063 4.404862664691858 4.954603215668648 -1.5177702757361795 1.0044844965884443 -0.3156378800508371
Ni 5.151933955119208 4.904771096722331 2.4416342604886223 0.080036641638617 -2.2741865117936446 0.22483705791718056
Ni 7.258779533203773 6.443922038652147 2.486306928882835 1.2938747557966621 -1.724138328314895 0.4553809364111513
Ni 5.099518462063352 4.374404027150349 11.400751042748507 0.5414648126851127 0.305668427542951 0.34160036555286977
Ni 5.554172236758269 7.851797073765597 12.81555247603065 0.42258394448578834 -0.19524828851647022 -1.3073617345395034
Ni 2.1432426921278758 6.378753872555551 0.6786137009412763 -1.2096104492299427 -0.19450549681317472 -1.1281686997136828
Ni 2.605549895063981 1.3708028868748474 0.2907317546609547 0.32228752415687073 -0.05807479265554514 0.9312270826551898
Ni 0.5531768399141633 9.228264774630645 4.964042747902237 0.6942819286205655 0.6007572797978428 0.08406144652729393
Ni 8.700780283514222 2.076797434310461 1.2683746576150143 0.14982846562077423 1.2145189422751534 0.5434463618915157
Ni 7.115407743374516 0.5023257842163078 4.741546916092958 -0.6910600792491582 0.7222743000684335 0.50424937997708
Ni 0.9353054879921999 7.68432473874776 2.9098571347172304 -0.7963534385720349 -0.5469302066750581 0.04845989527360041
Ni 7.560474208079578 4.260305003978983 3.890774865726816 1.0682303714868377 -0.7718582816441482 -0.49211994370339757
Ni 7.7478144414398535 3.716419006333771 12.58890427171197 0.8415719440902023 -0.3080076171990889 0.11445728521033192
Ni 8.000715090496692 8.847563732654807 6.969683368153837 -0.11863532784742148 0.552730615406919 0.5964686797248179
Ni 7.0265860141916265 0.6786538381096449 0.11454965410713974 -0.9518648135101994 0.3357996997106926 0.8288557820751145
Ni 1.6782444744943332 6.7248548509809405 9.358487992985708 0.9210658258514718 -0.8988095855564326 0.6720434289373394
Ni 0.1736634932386875 4.591071759670837 1.2955566426842526 -0.5225381509839389 0.7706367505322211 0.4066209933986287
Ni 6.2945387956513255 1.9816176127746419 7.069977029823161 0.9594750217572896 -0.6395763095475695 -0.6009969066124746
Ni 3.5254937940714846 4.223251099907822 0.39543229497547183 0.49311033264112497 -0.5774988234905345 -0.1266070331989884
Ni 5.890311899761278 5.650747737103267 4.529264169216736 0.045532694324476417 0.9687250796006479 2.3743487205375433
Ni 5.624102130556772 2.9616213109954703 9.042800953891598 -1.0796884927251083 -0.06631029319146 0.9770269145981239
P 0.44149790555374796 5.641598287131979 12.609771950430135 -0.4056272620267918 -0.1886212701182558 0.5062175594470443
P 4.178169762162947 6.0504956898867315 12.711894589885343 0.3817080322070329 0.07496565487361281 -0.1503951367575216
P 2.291421820077641 8.38364192090024 1.5118239157294278 1.3607555767796113 1.219987935809525 -0.74756444209379
P 6.362197290603517 7.702313487843853 5.943398778178937 -1.1696994719676177 1.0666118620468084 -1.4386851993775545
P 4.781668576919199 0.8622248264767637 12.794123789163697 -0.18074238159081132 0.6608552735310038 -0.303768896527393
P 3.931782280882281 6.1079465731561005 8.39317723501289 -0.6899897290031148 2.1622134264577473 -0.8199147708317427
P 4.961629044549891 1.2463685428485767 3.618840076779558 -0.290238466141126 -1.6613640733011517 0.6781240879137804
P 0.13851519245666094 5.744987984015913 3.5146211824854636 0.48411892777579196 -0.2926542746714702 0.36244095644730484
Ni 1.4809794140465578 1.0808756999980083 2.7336759463717875 0.04333645800410601 1.076898331574481 -0.6268388073762431
Ni 2.0753287788315204 6.709630093252046 4.717741926416911 -0.9353894415629955 -0.5972137854209586 -0.3477658709336333
Ni 5.881052984785348 5.490600435312694 9.168541580306591 0.10020643171827259 1.1773114799869207 0.7276749022587145
Ni 8.593933316900358 2.2350290985198074 10.245708241063994 0.38280769302911494 0.8862464041794414 -0.09893270721217155
Ni 2.25581832731798 5.552895145037451 6.729537216554482 0.3200642912533069 -1.0477332799747503 1.9592137761306323
Ni 0.4248765568073021 9.06036370167796 9.301237795558183 0.6431840815034858 0.2561088714472686 0.2482322969126693
Ni 1.4567694038533372 1.0549324938979632 11.401378642108451 -0.0022414877360090427 0.4853967660469511 0.5627658881557339
Ni 4.386472543912078 6.747605327778941 1.382919750680294 0.28463757501458076 1.3877902122999004 1.0092603207105328
Ni 5.6750580902174095 8.002366187650036 8.011442660951563 -0.46981305267608114 0.20318656952694042 0.5352340012840524
Ni 5.412816427431159 2.927185444951986 4.979850406780848 0.4003325892867557 -0.1448371830537699 -0.1510721082198882
Ni 0.8908791158584309 7.521167149329544 7.275890737845989 -0.5584983711286317 0.4368607661197767 -1.2589404058133222
Ni 4.939936729463426 4.719401233445604 7.047787561173949 0.29524928909215603 -0.22755317129676295 -0.568688424287756
Ni 8.099543745520563 7.202569253320342 9.199422570324343 -0.3129199668990417 0.30945154873446706 0.5888828969577601
Ni 4.455143590157205 0.2792297192982448 10.619979126225513 1.145577896329066 0.7703680702518668 -0.30049176843801795
Ni 8.208406692636574 7.424026079793898 4.931639282111597 0.34804894939169095 -1.6190010349539086 -0.9963400131044391
Ni 7.207075562678085 6.171390665429593 7.104115515937369 0.37122718728036713 -1.0583887028060677 0.08635332788526419
Ni 2.394483121947651 4.888743595626066 2.5522477354705266 0.05265902095661253 0.9427150286901314 0.8599812998353253
Ni 2.824525514765662 5.104480875607101 11.350550391619898 -1.913543013566395 0.40053313533333595 0.35161172704228477
Ni 0.9856502680435882 3.591902563554019 4.0839924576279705 -0.3585621902181889 -0.530266629976448 -0.884785760473515
Ni 3.7791515760770933 2.8605668675438887 2.9703511451156337 -0.4175949759116292 0.3674363527793672 -1.6572472229193007
Ni 0.9976275639681169 3.4224324922014744 8.343084224472177 0.3887747092458272 0.014844006991367982 -0.07698962728217708
Ni 3.4408134908975327 2.7565203806321046 7.002620475842105 1.1058394400888634 0.09310555900743321 1.0121363567067472
Ni 4.162735196508491 7.090951436920851 5.851876912214889 0.7967190494415699 0.3163847855191906 0.608151772489701
Ni 0.9797574019603854 7.551917693550098 11.760816106932669 -0.7706040975220728 -0.4498543501659672 0.03292914662785297
P 0.107247426089177 5.665525512729875 8.201375390505099 0.4506701611990432 -0.418770227166653 -0.806452731789566
P 8.725008537874883 1.5201496415407887 8.025674935971708 -0.9902305577725915 0.5464548097005363 0.2761714465250986
P 1.8289321754671335 3.3945736485202023 10.447496030620211 0.24223571300960214 -1.4165528862548895 -0.5198027543306467
P 3.975130422720331 6.322461493918638 3.680748922362953 -0.33997568546525325 -0.07232050394128191 -0.15942510817027383
P 7.109587853961074 4.042360179737677 10.324479258404047 -0.43937530501151423 -0.5608385892260341 1.0528081233944966
P 6.237544016567964 7.650235511885641 10.333531102079531 0.34603911805051374 0.686005033323754 0.25717819325204744
P 2.422560895638206 8.560382292977726 5.987723895183413 0.19184234815871476 0.19916536418268926 -0.17085057639839607
P 7.134409043763543 3.9210455883436897 1.619954359522713 0.3104617351665363 -0.6811919282058269 0.318460951321929
Ni 5.43915188313117 2.531451209005378 0.7204822407999214 -0.537556735879958 0.6025480531496784 -0.34962632118113984
Ni 1.6214868695876947 1.090818771252948 7.23630454333412 -0.5541501214622649 0.12627741777371154 -0.5504695872868842
Ni 7.04898985180826 0.5430084531913363 9.398541238184047 -0.9125449328646541 0.014488937644794402 -0.5041840739567833
Ni 2.765067773077865 1.5466310505803216 9.365029439221411 -0.02558196223416239 0.30674726242942657 -0.5358919465830255
Ni 6.685347106389065 2.1776511919202 2.8467459984995225 0.6645782309085457 -0.14692954680642437 -0.606204418955343
Ni 4.062355787252199 7.0872296267630395 10.62925810978563 0.5294654742313913 -1.355500241917943 -0.9132658701910787
Ni 7.982708097233159 7.140155956507224 13.459902718310753 0.7428870912227786 -0.3296809884074645 -0.24117256185241046
Ni 7.763997017959361 3.979253604561829 8.24190936951549 0.2484287291941915 -0.6817238894498969 -0.6090909964745187
Ni 3.1356068137894786 8.287951262676094 12.631975102204926 0.180675790018934 0.03459470725573397 0.4202874351421278
Ni 0.13111079710103274 4.978751195692572 10.51847040300467 0.7452748747286649 -0.8585332545348892 -0.561164090886253
Ni 8.488290465337553 2.484864727446683 5.891115555337021 0.5283521865625546 0.04611453496987542 0.24059509208238566
Ni 3.506611080770819 2.517540031332182 11.654835738272219 0.8108909700665777 0.1197776689819808 -0.04732860988263461
Ni 1.1858800057004057 3.3609678920952497 12.604765750884528 -0.1559860005817378 0.3004020369376891 -0.09468447345877887
Ni 3.1839721016735996 8.325297073426299 8.141122203116907 0.3082423589177143 0.0006900840884891341 0.13338523246308642
Ni 5.723724406864294 7.9458640010875605 3.5833259804403546 -1.0793190252008316 0.4802872127345277 0.25391649178164016
Ni 3.1622524203359736 8.857233141398144 3.8948606470250615 -0.37454391035842594 -0.8295787762840681 -0.6166436120107961
Ni 3.419321861652911 4.249495334770631 9.121025558416815 -0.23490858322056962 -1.1175688127106496 0.22517104421783157
Ni 7.261944896254658 5.949879106453716 11.372405992004952 -0.4257294320933055 0.8257401192642682 0.5379107767852671
Ni 0.4099610377165202 9.075068500634808 0.4578939388323067 0.7002767127514198 -0.5993028067395034 -0.49551997052388214
Ni 4.425204911387744 0.14557933408952833 1.8332788483597746 0.17729221825868177 0.3752360513294441 -1.773015770741888
Ni 6.275199978164653 5.2417408693438725 0.33632210467741214 -1.2240489932527758 1.606848972972407 -1.366381407606821
Ni 7.988299934553597 8.801278279858876 11.566211046097683 0.01633139017017187 -0.3609129498385526 -1.0666802533908983
Ni 9.069038803295804 5.097894731161169 5.753011768856139 -0.1819060628816093 0.06189339507068695 0.6006207542199785
Ni 8.104570013650353 -0.16493457132689668 2.5121680362293985 -0.22363635274086002 0.32685328915068224 -0.013011581768319526
P 8.693619447793921 1.6882878886701944 3.660975893691203 0.10522908174384459 0.3687625277899585 0.6567286529571399
P 1.8478148887677992 3.0853167662404113 1.4449088706004263 0.18509037414686186 -0.4261670338513564 0.7517573971292151
P 4.625735677807325 1.1051130764423893 8.171015271467768 0.07195437885111479 -0.4557213504697054 0.27658308014122046
P 8.78306147866978 1.6080226740167851 12.419345716147339 -0.9810296079996137 -0.17852069134914417 0.26927523362589756
P 6.4857650366763755 8.03763216331205 1.3947082194718157 -0.8735235572961342 0.4640558384773298 0.5000589960448162
P 1.5614909249604105 3.4758240482153853 6.178137358549 0.6129515078711895 -0.07453165265998778 -0.6648659373522936
P 6.866666764494055 4.1131931598244735 6.148030833439089 0.25904712813998615 0.09954642953677048 -0.5233333931917244
P 2.375864949074869 8.528628319547959 10.417963284576295 0.2804636461425492 0.3781689087055229 -0.706227531018216
