# total energy = -340894.33695486333 ev
CRYSTAL
PRIMVEC
9.07223242955165 0.00000000000000 0.00000000000000

0.00000000000000 9.07223242955165 0.00000000000000

0.00000000000000 0.00000000000000 13.27812919595954

PRIMCOORD
 96 1
Ni 6.35457273365168 2.1469166236468817 11.47879650133667 -0.6781724246532127 -0.9101072699574391 0.8184883227978614
Ni 4.728874016260786 0.4819786858957146 6.066816938970916 -0.4757253043954581 -0.4909058687906385 -0.20661719247504418
Ni 2.761487803163576 1.5503356813387381 4.984171177212478 0.14641789727732848 0.5012733280678915 -1.1904619013259496
Ni 3.406532611920572 4.3934735777332525 4.831061829609079 -0.2044556660473511 -1.115304699266821 0.50032639077359
Ni 5.227765158134402 4.423901845810649 2.5864073226949906 -0.7633738983222208 0.27272693961992384 0.05865149109462157
Ni 7.352672545539256 6.171322707743711 2.7147531042447026 0.04094610339505851 -0.7347647192259604 -0.7552196446462025
Ni 5.035833005646209 4.6595621593403 11.518432178260742 0.7991495132599333 -0.3203111171567903 0.24471837022213982
Ni 5.779356899072298 7.762020751836276 12.241877406538086 -0.7458055504211543 0.9637409961224951 1.2403582719357606
Ni 1.834958834109209 6.537496159186727 0.30035168239652404 0.7752619080090584 0.787591890329321 0.9267078546285975
Ni 2.7860281922957633 1.4595044887356092 0.28726317245160454 -0.30257436199865956 0.8760720347496008 0.987286644652919
Ni 0.46646335373531994 -0.040467600651769436 4.638927366334325 -0.22175687632996002 0.3979702597021662 0.45875010999370025
Ni 8.571000803335835 2.293378746438023 1.2474601038381197 0.3340366942729989 0.5124188031617498 1.0701031630295184
Ni 6.798068823384395 0.8021831348497122 4.82671985909571 -0.6979809747387076 -0.2721548691665377 -0.08994310211905156
Ni 0.7036378228827762 7.48751313839386 2.5816534728224334 0.3459082488996043 -0.528347044356232 -0.21254692769591782
Ni 7.5914446348442635 3.8471255872272985 3.7583084302571996 1.0531436523570443 -0.1305449348008139 0.7572703565276442
Ni 7.577727419181466 3.9398800931376448 12.654110582795933 0.49149079475983093 0.28855182246732236 -0.008761805353030071
Ni 7.838127710960092 8.917061115146296 6.9152630166452775 0.764754066499199 -0.5332964179417072 0.09537121511315833
Ni 6.75675387620954 0.6761534942779841 0.3026832461698964 0.017309437812725027 -0.0772999594337443 0.028028624002442055
Ni 1.8873963384286339 6.459474958988274 9.133427511645476 1.0870768147693795 -0.2493093320269319 -0.17363019602606228
Ni 0.20915760049014678 4.792189127445088 1.336204682947569 -0.431806748635637 0.11635193112988348 0.516624356602665
Ni 6.323155592222931 2.0280975935307035 7.163165400820021 1.136608345840604 0.4196721701556321 -0.8763314590585747
Ni 3.356481104770007 4.265228497965191 0.28337481356729566 0.48599043376689205 0.5918044414799292 -0.11029364075094554
Ni 5.850029590879966 5.383254152343853 4.77554520955159 0.11575800629962645 1.2176580021247676 0.2800990637142789
Ni 5.276836864166197 2.8472748344515484 9.481287754400052 0.17643758356787032 0.286715540589532 -0.8149132038520934
P 0.2507419929726638 5.558511541347772 12.515964975611993 -0.04065042653151064 0.36589394799291175 -0.7251806750819512
P 4.072761083754706 6.355216862164947 12.660589971305438 -0.8346343364301045 -1.160144481289331 0.9156706229778295
P 2.3402005387896763 8.544437306338036 1.5512175023456323 0.8883403105939927 -0.27111511504811375 -0.401628939500676
P 6.291811028654832 7.874870252914014 5.725821654610546 0.6186467584837538 -0.8898374639648094 -0.2662500736463286
P 4.693020553099822 1.2207959050586696 12.59721407616284 0.16820619679701354 -1.0009764834351857 0.09104379138239804
P 4.068243111929261 6.222725977548877 8.147195087197389 -0.17237909722778053 -0.34954250321808183 -0.3782547835511099
P 4.641000371479134 1.2722082470964173 3.718274482322812 0.4266966811025813 -1.0063416044018412 -0.27089194329371413
P 0.31331771720159707 5.477886610398511 3.6211852636851614 0.0959114038873445 0.2312645587100791 -0.24907844696304843
Ni 1.4648933948888514 1.2097187090770056 2.580431443093744 -0.5915295905519877 -0.012131750266527493 0.06462107841449516
Ni 1.821822241331609 6.821221160931657 4.88704204075147 0.10102892761956796 -1.7678355120925298 -1.4345781191877165
Ni 6.088103118276222 5.580448199729151 9.177231879440617 -0.585627880355572 -0.013669527067292585 1.039648703194403
Ni 8.476776595747332 2.2552753695969185 10.565062101891593 1.55683278895528 0.511019865931694 -1.381233899238621
Ni 2.408986206220451 5.242017635519492 6.86236282846421 0.021565899096233826 0.09828478921552751 1.1508620275461408
Ni 0.7834344589973724 -0.11736293678689308 8.901777124916723 -1.230984029809712 0.239813990941987 0.5389060508190009
Ni 1.63178618545289 1.1391276673625688 11.495845948026549 -0.7036479432164979 -0.07949233909937277 -1.1502205373073997
Ni 4.089299763750263 6.777601866681174 1.7481584344419143 -0.026849516092676343 0.7209170147095907 -0.5241119232289619
Ni 5.775873161761113 7.895564015431766 7.8745146213968304 -1.3477167413177822 1.008105381170483 1.4451456102909177
Ni 5.217577040945698 2.8087813516094515 5.0019645469740155 0.40193310100465623 0.924943049418691 0.3766090204175707
Ni 0.9108884400843514 7.47601861971346 7.018526796777704 -0.8823948916438352 -0.19501123280499963 0.0605628491847215
Ni 5.188128573987072 4.460317787391648 7.140566469460214 -0.42237234269561447 0.48925059257540254 0.045304123253438106
Ni 8.22641019320353 6.922022737141541 9.275702799100387 0.31674448285145446 1.2264205788087459 -0.4378053894212331
Ni 4.425480414279781 0.3961263345331569 10.50467369293799 1.4037721895504536 -0.8453962029322989 0.3689409623493517
Ni 8.27865718063875 6.880862017920568 4.803495850911057 -0.6931994941896642 1.222019621527573 1.2034796537418564
Ni 7.104066156116209 6.2170467599530355 7.219106601362311 1.930760662996262 -1.299231135012569 -2.566652067493077
Ni 2.285621987581084 5.2020635232318195 2.602685629615465 0.2507139256839424 0.5810829412973669 -0.10354192384940879
Ni 2.343203447774058 5.362279150616082 11.48790593007147 -0.4834684386759867 -0.7438797941533511 -0.44438458530064756
Ni 1.1366237311701533 3.389005058573664 3.862036708697784 -0.861768216532419 -0.3274793527704554 0.0946613335303273
Ni 3.3768754836125794 2.8634959863067615 2.8749406077079653 1.1293619486908357 -0.22451155625696173 -0.050601624206951565
Ni 0.9608401526765236 3.383407491071054 8.134739819086638 1.060850791193315 0.1887829925071007 -0.5080332724995444
Ni 3.653560432874486 2.729780350292228 7.591956308761844 -0.7755254460830903 0.8804616791768642 -1.9879648801213956
Ni 4.062854205776019 7.143766245891609 5.993694744366319 0.70559169720643 -0.9992936964161242 -0.7541850327341011
Ni 0.8260485498778576 7.394931004902556 11.052383425554384 -0.6294155669644838 -0.428945625037758 1.6405818464484778
P 0.266530399333753 5.559981243025929 7.992278550863814 -0.5337977830581581 -0.0445872996920716 -0.620402564832596
P 8.585325858581573 1.5616668998326761 7.989583190563934 -0.315559718514734 -0.04618395475523014 1.4955037510284954
P 1.7390018300976935 3.4427126754544592 10.103501382643161 0.7878945091714044 -1.2421418461987448 2.235332257930608
P 3.982419791710964 6.079003668997262 3.840286938307578 -0.08029632305790688 1.722422374065053 -0.6090840544959832
P 6.935467785826903 4.002015814086389 10.458850753393529 -0.004041774169541426 0.24054984066674703 -0.21774646961898625
P 6.298497264067188 7.704829397644294 10.169387564540981 0.24436664330967595 0.539803880042922 -0.7606688406862319
P 2.353328059334695 8.63299136856328 5.804666613527373 0.47809046219352497 0.8472815928804698 0.5190730752534737
P 7.131210275999206 4.168845099022359 1.6075959844983372 -0.5985065360904531 -0.5934967415806875 -0.6441657286904648
Ni 5.43816837615795 3.0082434571400536 0.3596060622774743 -0.12759716502639962 0.11755803562284269 0.5708970019033006
Ni 1.5419438662011138 1.262455597071611 7.005394740116395 -0.12633141094009856 -0.815142803364396 0.48208467095458263
Ni 6.787989572986665 0.7858667245523964 9.412679902727866 -0.108223131375162 -0.45919465373028656 -1.2081413208835836
Ni 2.818234617959078 1.425701350138001 9.268413260221381 -1.5623226084252577 0.5608144208563179 -0.0018329394436807144
Ni 6.430099069890299 2.077659200121883 2.5658124475123736 -0.6118166229357979 -0.3488513906883282 -0.33804967208713393
Ni 4.235997764588515 6.6681000194259035 10.488633078511143 -0.4144119501979573 1.6591580667887684 -1.1045749715541429
Ni 8.13429981580645 7.116585837078287 0.498642562700891 0.05631692942417398 0.38123109257061444 0.032827073832349916
Ni 7.759598465737091 3.690874525481026 8.10762563757116 -0.9175511278299939 0.9114858954725206 0.6647234982371584
Ni 3.1989145692994576 8.396759504381011 12.402848750896366 -0.06654194958629185 -0.2502318438412013 0.2480147815852245
Ni -0.028277241732390296 4.798684845973239 10.318858946879311 0.31949376346181746 -0.44885393392591083 -0.27811262941186937
Ni 8.59365416809113 2.1701506112873745 5.887217579453627 -0.04286800300811972 1.2847846205699356 -0.8468187943114385
Ni 3.623014225773534 2.7599001624618626 11.308371890628765 -0.6947239012539906 0.015855221864701726 0.599200219723368
Ni 0.9169668359137657 3.3290920346073176 12.577615332117642 0.7823198432971044 0.08987111123053554 -0.14695448650708887
Ni 3.2975115929921066 8.351706797382697 7.968643570543231 -0.604862560215468 0.39019318685990867 0.5271805348519566
Ni 5.703358806739457 7.824401423064713 3.548434123393137 -1.3540336846747454 -0.44371995513345514 1.4676453340553304
Ni 3.3419836771052247 8.554108306269612 3.728498888441842 -0.5158121451140149 -0.6579928643815441 -0.43257627981180985
Ni 3.515608064244525 4.444414163676777 9.386667997471008 0.05164549209043364 0.6397326326197756 -0.38478667113235665
Ni 7.48661498736832 6.338678182169391 11.501794610930054 0.06730942387993569 -1.2247339351349424 0.15594769114463466
Ni 0.7208532914288905 -0.1592458057213321 0.09820963936143111 -0.27285498055735585 -0.3833784779309204 0.3314280530055582
Ni 4.669804709924492 0.3898365556846003 1.6438322958742275 -0.9145953876357797 0.13144430668663168 -0.16031933784976907
Ni 5.983409554288995 5.667151526507826 0.45179536809801085 -0.2540589308967754 0.6516715501492066 -0.2248846233256643
Ni 8.000284796116736 8.822501234952288 11.214004341765479 0.04743633910509249 0.2816270703230311 0.7087886068771728
Ni 0.11874010169272158 4.818816130070955 5.822353838167712 -0.3552426389266527 -0.489083470869919 0.40316208831575084
Ni 7.732073312085683 8.696052457235307 2.7902259143110917 1.2146446692197403 0.9105286737655739 -0.48990956631564014
P 8.32815528160186 1.6384089152371772 3.5896891938329554 1.9635607402454183 0.30124870120870056 -0.2984366856812022
P 1.8804197915736793 3.254817666464907 1.4580048486899346 -1.3705296254472397 -0.8349937766520522 -0.469330713723024
P 4.83541831569458 1.0557538499411991 8.209508623904725 -0.8127753315734841 -1.3894601438031555 1.2017577859547433
P 8.568424289282769 1.4670525862431805 12.569023927863231 0.20315623050963724 0.01687183605467417 -0.8376129594424544
P 6.209072267514148 7.925801766624957 1.467764756500806 0.6541657773259701 -1.5139591295202055 -1.2842410893616398
P 1.8594810787762341 3.2167324340889647 6.011141554843255 0.00031187481346397903 0.43722149189330506 0.15840129489144977
P 6.971194237731729 4.013183732393865 6.002949328822417 0.5051101853154785 -0.5250380345876571 0.147304670757656
P 2.4117713816228843 8.432014200191615 10.174446241428265 1.2401019329505802 0.636060325974511 0.46387406148382687
