# total energy = -381165.1955512147 ev
CRYSTAL
PRIMVEC
9.29616654249360 0.00000000000000 0.00000000000000

0.00000000000000 9.29616654249360 0.00000000000000

0.00000000000000 0.00000000000000 13.60587940585014

PRIMCOORD
 96 1
Ni 0.47287647386621356 4.343791886711345 13.468201599858812 -0.08766793293162967 0.6411074014801152 1.2868178489498807
Ni -0.3777478712559161 1.5987919194896363 4.761554177554264 0.4294999548793313 0.20157654472734313 0.45083214069820426
Ni 5.044202264316396 8.751829580914043 4.539833166801151 -0.3666593654040266 0.23046237452375795 -0.6698927011429237
Ni 6.796315859823235 0.38929556942778104 3.0727790836769415 -0.03923349157932598 0.0649110988510882 1.0226598819458905
Ni 8.56913201838654 5.245891895242803 1.9547291246283174 0.002745938176253335 -0.12075648795548237 -1.101431797939471
Ni 5.497985341567577 8.031237225583086 2.1647639243269694 1.936035795352272 -0.7549051987295774 1.4652490659090118
Ni 3.5751197576363167 4.342416054052002 11.384094005952509 -1.268813184842344 -0.2338217779142941 -0.6012337052136291
Ni 1.52392988972146 9.167953887199014 6.035881063987693 -1.4811153435173072 -0.30606592009168576 0.028919511247827615
Ni 4.082188461937192 1.574659070951429 5.261202681661303 -0.09937956494160305 -0.6970846881766833 1.8525847287154678
Ni 3.836871921076345 6.831130003804586 1.022480718140672 -0.898546561703033 0.3853448576286718 -0.7458338325559284
Ni 6.279263072575505 5.819167898191257 10.005777410889282 0.500118388527842 -1.5121030501480732 -2.443331932575476
Ni 6.459422781616516 1.6805331125545282 12.48282281230398 0.0736819030651828 0.11013628923747484 -0.9961739198402199
Ni 1.2797102965214402 5.038894153177984 8.542370213928994 2.5264847512455715 0.029857449681064713 0.881532800753856
Ni 1.8822041511477008 1.7977019965975054 1.6732514252432888 0.3649323554105909 0.8712789842363318 2.719468412097581
Ni 5.395206923448 8.209565589800512 9.413336430842843 -0.6792502310984238 -0.5954523226451616 -0.09779987915930899
Ni 3.5438381569694957 9.166373538874094 2.4601198708547907 -0.1702347971912681 0.8847754760608698 0.3575635737503455
Ni 5.252752466206284 3.0017136083552227 7.037831198154317 -0.1636507162158472 0.445167229102943 0.5782130759487397
Ni 8.777886735942007 5.771450674945256 9.780165024790218 -1.1992920980230701 0.286823526922306 -0.2625667112574704
Ni 1.3372256793819526 0.5348995679193982 8.591228076818924 -2.120978073957044 0.608419681439107 0.46813437942207764
Ni 6.302029384620987 3.4178472108068116 1.9888665076799374 1.0403580705566018 -1.182608466719802 -1.3864036163650189
Ni 1.2457421037022525 7.35533154318093 10.097413443701505 -0.22149179559403143 0.4844534282970753 2.3683567646201666
Ni 0.5991258534608552 2.2579830943140973 7.285145485221197 -0.698597525276784 0.8492927097732277 -1.2149424029658173
Ni 8.885945376700146 5.012353597485927 7.151128228801237 -0.05210700510788446 0.8911525832318072 -1.0250147553313123
Ni 5.238371296449502 0.7223772193214554 7.5565015183934365 0.6362991814581945 0.31608396644932013 0.7784277073315496
P 8.330136870825378 8.935949456933972 8.791085433305083 0.4446995454379051 0.686368844421076 0.27389062091072186
Ni 2.855986900464259 7.5255257616083195 4.4884978755077425 -0.7375834196216781 0.668589666060784 0.14843955569304756
P 7.98324111733857 2.6766545502521772 0.3848705941180019 -0.4705139353978477 0.6089377587261061 -0.15143231977278435
Ni 1.1143036039018992 0.15014796473409625 3.4410086099335238 1.4320628089650302 -0.19094194783163243 1.706240879209184
P 7.674515423981916 7.418266591179261 2.186001946580586 -0.48630307991130445 0.18302680674961383 -0.18488699988680415
P 2.2121994737244703 7.4748523573780545 2.3715050921931535 1.6247741899922599 0.22236597066886868 -0.05717002145308864
P 4.5118572829834 4.529064487391806 3.0840451080003057 -1.053246753593812 -1.0244776518809195 -0.964568634230113
Ni 3.8476275858524254 1.878253280335398 12.28697954056312 1.0756019813605604 -0.39895344955104195 -1.4713045280744725
Ni 7.52793346876217 3.363353082096884 5.946450081897068 0.30645107134524646 -0.3069357242911488 1.1215792194216232
Ni 7.538651948871784 7.045518198330066 8.162439602751364 -0.42526046287668695 -0.23876703773471136 -0.6371777274084058
Ni 6.904997343744724 5.07474946782046 3.590822842286063 0.7687919840139986 1.2258382239427146 1.003781814094465
Ni 1.887633112452136 0.9450297059696102 11.072995001258487 0.025773766529994323 0.8903691680985634 0.3234928573188816
Ni 9.097730644572813 6.526912951257265 12.041121962805152 -1.088751888478957 1.207899637186423 1.288298547260465
Ni 0.4981973724980972 1.6053550131213679 13.503699012086527 -0.8911595252103426 -1.6671364570085545 0.47281815805099214
Ni 5.860071031306863 7.885110782527584 6.493760032250406 0.588025176943155 0.068781637550088 0.5096864918322512
Ni 8.940420913076839 0.9003355961075169 10.517290612449834 -0.7738668274337447 -0.6818871545006385 -0.7867495969336837
Ni 2.0593797907045954 5.23989586777472 4.450210683678211 -0.2524054544537524 0.3024743460856855 -0.4818648416342928
Ni 5.246012745408827 6.519885049294675 11.669885126647909 -1.4307980833199938 0.9837711753004929 1.9995099046465177
Ni 2.9143203459870834 3.0039167998434952 3.868532805341147 -0.9309008096640227 1.548021104200921 -0.8675169460907383
Ni 4.879278972360948 6.414856958853739 3.786720031793303 0.889508619870481 1.5801886900724014 -1.4144132142040673
Ni 6.60240712035541 0.9110001584507494 9.91770645797475 0.22715413608613136 -1.8556404848226558 0.6402661365257425
Ni 3.943619802341459 0.9549951965832307 9.857472875995374 0.28312345236289954 0.05314958743978588 -0.25952201089387567
Ni 8.260387732696653 8.884253474375818 12.535777495822101 0.5010871801990144 0.3619755867751121 0.21020696670883154
Ni 4.8453944450413164 2.000451390518271 3.1479516054101317 0.4999571803596293 -1.445984304142129 -1.673868890636382
Ni 9.071190088880755 3.4882191920988888 9.405934822982243 0.6537268900163385 -0.9061981647110199 -0.35181278730949733
Ni 6.619363328265154 1.0179674292480299 5.418038308659802 -0.8809866984423989 0.7777669338190992 -0.1835266292041678
Ni 3.6596033198532782 3.9086104388611473 8.784649697156008 -1.7831227772689033 -1.6715348431865666 2.2827840236546684
Ni 2.888365448791908 6.490806640116126 12.224325236796627 -1.0919387708473711 -1.6909016777489525 1.037293315588349
Ni 5.409857682036681 2.7586467398157333 9.950904928198035 -1.8626200014642824 1.7456080681528972 -0.28208266980321095
Ni 7.256569069039976 0.550427884636741 0.7310570500919192 0.8319015108799738 0.2738793080568122 1.5735627001154515
Ni 9.078701391507439 4.695977159003331 4.748452160324007 -0.5808584839913866 1.596716255413779 0.7879731849281396
Ni 2.9289525122425295 8.467041516596636 8.792473350981028 2.0091620830243007 -0.3797671064305782 -0.4391197373572825
P 7.3292836843195825 3.0303829862026155 10.540256792077585 1.0169762012975518 -0.07384105435086637 0.9676405882872174
Ni 5.4287289002695625 3.6702288382967185 4.807732885225121 -0.985111234268155 -0.36098005563106217 0.8355571053546901
P 1.038028556807911 8.488896804313633 12.188201262938914 0.8215553917589594 -0.43902589209189546 0.3240669846547967
Ni 2.532210713354385 9.483763259517962 0.2835665480239096 -0.2391046235797882 -1.4109725639536346 -1.5602567270351646
P 0.38245266118087257 6.840305320255746 5.701584405117154 0.3429098283929127 -0.6832125581802815 -0.037425491836309735
P 1.8610274835937575 1.845577254675999 5.309816984985863 -0.6634731707698251 0.3779313387734201 0.7268763176168191
P 4.338781252904683 1.4180093672852747 0.675441803687959 0.160565135311988 0.262080001429039 1.7842036690379077
Ni 0.5123015164896876 3.4059388213702 3.1370258207849564 0.7695674287274423 -0.5605082024698089 -1.0290698992372924
Ni 2.5055586036629207 6.263255073660716 6.691929204878885 -2.022950652167961 2.106103470838057 1.4862583211708273
Ni 8.780675585927163 1.3248896662809504 2.448445744816932 -0.5806317126925612 2.139286899568561 -1.2544805702697555
Ni 2.0576692960470337 5.059243461902998 1.9065377968848396 0.419130181609233 -0.22495070067690937 -0.09436565666677942
Ni 7.595079680238085 7.796165060334375 10.56579522100831 0.007410947752090462 0.09344751572788422 -0.6356564056678731
Ni 5.619867382085466 3.9573316481018046 12.161751809679707 0.612122584211991 -0.052566204132490114 0.09941761726839007
Ni 5.331388739621037 8.792844268029054 0.16025382746363612 -3.6913523490421847 2.2814164538831805 -1.3280573152156419
Ni 1.2128522662106584 7.077366865160536 0.5138846536645939 0.828810530659476 -2.4028445139843906 -2.1210508361765084
Ni 3.4292071264130093 6.616537293613529 9.8751337333347 1.2098238507923291 -2.1247545102803405 -0.17340805271292714
Ni 6.6994126190057175 7.219784137735782 13.394062811853452 2.4033379086810416 -1.84484750797221 0.3652678843731386
Ni 3.3835443559894056 8.547964646999215 11.763398985116803 1.3792520929219019 1.093946288195703 -0.8883626791914959
Ni 7.527022444433687 2.054750299729238 8.048612690607264 -0.19598182424838506 -1.320831486891164 -0.2144729410740371
Ni 0.08202100768006915 2.8261090209566317 11.7200091274311 -0.48211578130283417 1.2407295392322504 -0.8764397025016648
Ni 5.888489412655592 5.667779824830428 1.5473692442300258 -0.18347957801631629 0.11763285472483612 -1.0108225229913301
Ni 9.59169175394346 8.739382013813634 1.4566321507296855 -1.7833138102337869 1.753881878125915 -0.9962155717114328
Ni 2.3633644390864865 3.0452475566234916 13.475508386819918 0.9688407792429057 1.7304717267320906 -0.13374878645009222
Ni 7.03240130723322 4.190033290863134 8.176712007358725 -1.3636804637358901 2.010283341112938 1.1726593259268903
Ni 2.3491877849952822 3.987637151273822 6.605994511052982 -0.18304763268522023 -0.23159520257662047 -0.9938699542973916
Ni 3.6286470850180583 8.715277053775278 6.603327440850512 0.410310526435074 -0.6666623671310842 -0.41246845331834125
Ni 1.1370327312809123 5.014119869143192 11.302403941804013 1.9213781933400975 -1.6983115970597784 -1.2941737750943194
Ni 2.9637108792241778 2.0609787313627512 7.607836809686845 0.56767669519379 -2.430627340524614 -0.17281387077235397
Ni 6.702452465489537 5.7242819255296675 5.964599917600456 0.2649408679166018 -0.1633586388967251 0.5380429314877573
Ni 0.35148991902902044 7.059759925587589 3.0781671418482603 -0.7937648519092524 -1.5179679935692825 2.113480737138734
Ni 8.00848950587084 7.9786488110296805 4.783854751652226 -0.29811709755825433 0.08962634220958113 -0.001675845040526146
Ni 8.277994672269598 0.26320701351561665 6.739346161943152 0.8002558589502347 -1.22953238496485 0.47525684939947177
P 1.960050250399993 2.9982461382070134 9.974374960056439 -0.3925966540950787 -0.009876121463131379 0.5097901072896511
Ni 4.180969528411381 5.664312354682219 5.622956498252356 1.8027963444384307 -1.5901337171002552 1.2932047263128308
P 4.640107197634059 5.2701270016138 7.850510450378429 2.3701627074806537 2.7356892448318177 -2.0359041270048355
Ni 7.541998568853969 4.836358571089414 13.121129219206276 -0.1896671948842669 0.0039024203781997304 0.597480408818784
P 7.238571690469109 2.9536338346111513 3.8972951448547124 1.582696029875287 -1.79267776794719 -0.6613592097506158
P 5.903168059744124 8.6871561497583 11.726309139547565 0.07696134514740294 0.37772616474114945 -1.2628058023059994
P 4.019420744937971 4.825584313980099 13.782620265651827 -0.4038573146105625 -0.049088272886218684 -1.3200892094085008
Ni 0.918024341946693 7.479537625353116 7.934254967349323 -1.6698579697047757 0.040361948756814356 -1.6671521407378385
