# total energy = -340893.69890872913 ev
CRYSTAL
PRIMVEC
9.05476652248513 0.00000000000000 0.00000000000000

0.00000000000000 9.05476652248513 0.00000000000000

0.00000000000000 0.00000000000000 13.25256607548973

PRIMCOORD
 96 1
Ni 6.298749151400757 1.993153324340937 11.367348504400367 1.4508670861557271 -0.583846362975117 1.108624201922852
Ni 4.8330269243128665 0.26119289066338774 6.208323725166528 -0.7609161808103476 0.12481703117810115 -1.4466075395484248
Ni 2.8202519208401444 1.4726672330380879 4.786455543473683 0.4189617743521688 -0.21574178048413167 0.7278996166750109
Ni 3.446235097313473 4.235394221933501 4.658462796265821 0.1289333673393199 0.42003495281168945 0.11244462565567732
Ni 4.815868141684932 4.593582677445802 2.436351550208961 0.5330210527931336 -0.18324097964294894 0.012869142653184288
Ni 7.183001434415805 6.337585045169204 2.7448845713923298 0.4117953385107166 -0.7164098708678565 -0.029658703406697306
Ni 5.081154692309317 4.460423280439789 11.52934823837115 0.6958269045101824 -0.0698015941741701 -0.520269152444104
Ni 5.520971868344481 7.9722058328686245 12.492756385161993 -0.02223952812449073 -0.5335172757032619 -0.6051631221750222
Ni 1.6777576955830504 6.4152568327061 0.5263707840890729 1.008750985174282 0.7263775236035296 -0.005460508893938983
Ni 2.5354342387495574 1.7404438444659984 0.3463574975272572 0.6967139351008259 -1.094706049179863 -0.5183503381548363
Ni 0.6819552159533145 0.23565935444570385 4.81082735314194 -0.4392058693131855 -0.5486713577358808 -0.2680179641800287
Ni 8.763501882396408 2.0624313432783103 1.2370305155087797 -0.11163087150513033 0.5610157382338467 0.9333009344650829
Ni 6.925565366397446 0.6418887794095969 4.566450069453928 0.08567867041574277 0.29780599407573877 0.5459056220652857
Ni 0.8378900672833614 7.468099814269698 2.6737847334234313 -0.8118708174813438 -1.103063677115939 0.3386320269531652
Ni 7.545798766106269 3.9702163285078163 3.865296031967099 0.8754277162973826 -0.5466707823660844 -0.45173948300382205
Ni 7.332233042062759 3.9153987717640106 12.701988497930712 1.739676018939178 -0.39490190518948765 -0.8398480194205602
Ni 7.8414097299343215 8.770302012081673 6.859912875990006 -0.31535325893088273 0.9125151080679832 0.14188812772777498
Ni 6.778217150194613 0.7345009317676487 0.48653886599921464 -0.5180405202239015 -0.285515863854476 -1.1077543977233888
Ni 2.046494954135744 6.5594902092128855 9.277763727167098 -1.1753093619552275 -0.10553607146130213 -0.5554220461961531
Ni -0.12636470018068335 4.919708204575247 1.6294695310044176 0.09976651596737657 -0.8709223722278614 0.07417426932056903
Ni 6.501684579504849 1.8527682236214182 6.883356572086041 1.0787004177802262 0.9043906791886359 0.6702513700339231
Ni 3.3609120320348334 4.170716024407733 0.2842897892002394 -0.697491950917431 0.7114710388053425 0.4841703498390178
Ni 5.78928271099933 5.384969274639168 4.730622947398694 0.459683420441247 0.8468956702959609 0.5793322771548474
Ni 5.369449404758282 3.002189345295594 9.504780306932926 -0.2768749003500264 -0.48021393629443104 -1.6424885765528876
P 0.22077875108383227 5.467068843023061 12.607921244586745 -1.0554093084627694 -0.7089081631741726 -0.9519779420492959
P 3.954506308529207 6.046220766856983 12.480895546447307 -0.6310484745822165 -0.09931194492846122 2.4369543111839063
P 2.166226132335834 8.512594301066565 1.3436250383861224 1.1809897001694565 -0.712199946551567 -0.7905496874060642
P 6.420852678439115 7.650426593687154 5.605729010713228 -1.476425908461438 0.46397073496269126 -0.022470156078058075
P 4.6261888918221565 0.9987950799772461 12.56198822478992 -0.012317641025088463 0.5586690923785411 0.5553891360756887
P 4.115844139064578 6.248259773071807 8.360156400581326 -0.24920314546637082 0.1556738686579577 -0.8539937147933228
P 4.7508639725630655 1.018344320976565 3.679190698464875 1.09555965542941 -1.0370482894570783 1.1986027852655292
P 0.20105565856659444 5.504075673946737 3.871750269569839 -0.3744840036547679 0.3669982368006841 -1.1513762481783976
Ni 1.647650596776781 1.138691223302618 2.5497806108844907 -1.2551976509414384 -0.17837208158642184 1.1383268711936074
Ni 1.9299601085307252 6.527798526258918 4.704634861899785 0.3749056645732189 -0.6536271312136808 1.678071872974136
Ni 6.136034996348528 5.827901290370379 9.277564522302814 -0.5897259616843455 -1.209647473115465 -0.11294161989675387
Ni 8.70821347779157 2.181592071185229 10.040316325732286 -0.0692565203039775 1.0141029935148147 0.4965970056381447
Ni 2.7062705194045598 5.071927885186434 7.044056947055708 -0.5882594044411482 0.8806835653796833 -0.10979073297259802
Ni 0.6190635238694935 9.09089507684401 9.017761538306123 0.46395016613740103 -0.2148220968833397 1.0080539591072577
Ni 1.5756108740391332 1.3584051338391967 11.365996627753217 -1.418211247793919 -1.2168707303367816 0.15707794809433595
Ni 4.013054429095022 6.809501368653458 1.4403552985748782 -0.12419636687496675 0.5727307126779297 0.09766155380923182
Ni 5.653587979356998 7.958777614062701 8.029332355084792 -0.2555715108865598 0.005896825100409199 0.21681161650954273
Ni 5.173721570834577 2.7034001584055867 5.091211821525595 0.3839541479287323 -0.04635519022577178 -0.6375829332666245
Ni 0.7116068600017025 7.575217702654109 7.119808218605593 1.8046570517962532 -0.022916756697173437 -1.0889771171158857
Ni 5.29149691945808 4.70450356778469 7.174607665816282 0.0565095050509543 0.15532008486296478 0.08260980168243193
Ni 8.076082114825173 7.307477310292432 8.963439277293055 0.11220654150294224 0.17011164134984252 1.2334057518773276
Ni 4.637271926089487 0.5193687331095578 10.342488373408466 0.0003874652464057843 -1.463225864831396 0.08913603283672392
Ni 8.39231078210642 7.242717619867638 4.990956540715702 0.6074843141090313 -0.5387003625660981 -0.9819685748741153
Ni 7.199915738346665 6.244438661584214 7.024920603411446 0.7670991696926079 -1.4266107847115237 -0.46055065353754876
Ni 2.250326804129106 5.171801960324223 2.659233723564281 0.02144557146828565 -0.11882738925356955 -0.5819442608563977
Ni 2.115899739804933 5.228339922714101 11.424666082190912 1.319434092323005 -0.3685750943695007 0.9147697084301148
Ni 1.100570656092274 3.3699215247603185 3.9787386747924667 -0.43662473884957065 -0.30749365367714787 -1.2832980087220802
Ni 3.6873544759938173 2.488521493211127 2.780733297673202 -0.11599429068014862 1.9234674717689584 -1.335945716824783
Ni 1.2444508967032872 3.3685723645431356 8.127361068798004 -0.37208722128781724 0.019803150768856217 -0.3093011391995318
Ni 3.84994186431423 2.9959234468372666 7.3567379567994236 -0.6120521359853717 -1.8784222586038617 -0.5078517526163576
Ni 4.233166749360166 6.853091014865001 6.137038264483184 0.19235374057749452 0.16458556932529073 -0.4659589690373137
Ni 0.6391451851424391 7.3049419756561145 11.484885712663386 1.1320770336291537 -0.4217406226488866 -0.713447445805423
P 0.2999264655697271 5.753271904397064 8.02311716331919 -0.013754887692247279 -1.4925243566851973 0.36150404645533224
P 8.61664262358772 1.5579631340170523 7.90707761344491 -0.001981549206403039 0.4391693596482953 -0.3808150880791183
P 1.693703139492175 3.334100868255777 10.26242974940681 0.8236693527781684 -0.6713412606639921 0.676217614919687
P 4.084369770508008 6.185265762125877 3.7574601005946175 -1.603556161153748 0.6943076396521785 -0.528331103516632
P 7.120188518801041 3.8386777347157337 10.375937586551395 0.041306572058270805 1.589844210884294 -0.1091214748197153
P 6.178538070573077 7.857282735710981 10.223413665783852 1.04397766958706 -0.46574839568840426 0.7410850050170333
P 2.563793767610079 8.347525906709185 5.844196248268653 -0.42777500176842465 1.0225511242821679 0.5813202541191537
P 6.777528987936183 4.082187571767463 1.5397096301122228 0.7307255161595803 -0.30806315302737264 1.6625570651679884
Ni 5.319240724192639 2.836849307941465 0.31228622192177447 -0.6615810959534348 -0.27955656094724757 0.32770946650339045
Ni 1.7213201774949185 1.0942051552018055 6.987905623197868 -0.3587403676672661 0.41299192992197903 -0.33979545113364706
Ni 6.986359069069715 0.639034716990428 9.187420699308548 -0.39012608106739904 0.2592183636105278 0.07728941791078302
Ni 2.8117857141081557 1.5583977628118497 9.17222046268717 -0.1778519474168937 0.7271064313497542 0.09115383459770107
Ni 6.434217513879131 2.1232884293164864 2.419150210178203 -0.031702216199287335 -0.2845938662608389 1.192607229803727
Ni 4.02788613671748 6.7259620923867995 10.551878944591955 1.005175609118198 1.4516047356527 -0.8324810375325277
Ni 7.84083927964115 6.809112013691452 0.33580959996352094 1.3783169827021424 1.7687845062693603 0.2844005193031102
Ni 7.844289145699853 3.8850381394941094 8.150659888629106 -0.3252216670845302 0.22445704886994247 -0.19038016179089148
Ni 3.1076954852326315 8.381263966905323 12.293067090869043 -0.7133446016789714 -0.07341168012293163 1.2062590162592064
Ni 0.19640241403229616 4.984332073501666 10.202222795607517 -1.84242012947764 -0.3682987007796625 -0.8646578793753883
Ni 8.788891447825815 2.3720319214389 5.86411492374355 -0.5164880881351169 -0.1960270756640237 -0.11587627704504559
Ni 3.547675647065844 2.6022040873502883 11.408445373378417 0.5864071817237578 0.7983164758356768 0.18990476481636973
Ni 0.8760133509236728 3.3324619555087285 12.752824673818843 -0.06739272762236136 0.6011210908951647 -0.3992447555392156
Ni 3.1466038171335455 8.452878115614732 8.119899941153983 0.6642434732769464 -0.5967016216712304 -0.47617858988279277
Ni 5.612361627217166 8.032166497017531 3.496239140154899 -1.2974660726923462 -0.46696092793926675 0.27558857743843507
Ni 2.868033923968169 8.301292268662626 3.5850845096247075 2.0181889691132597 0.4813526778845646 -0.45158418837288034
Ni 3.5367284342968883 4.383602640959372 9.392504823516921 -0.7030401344291698 0.37249474113888104 0.2774150891242126
Ni 7.205095064817999 6.138497892852379 11.375326659214863 0.4096361260758688 -0.25579828218538525 0.06943495486337074
Ni 0.43841549817194264 8.917224654256266 0.14287153961642138 -0.07492451722303226 0.053340106184037166 -0.08720641991417885
Ni 4.252860866624417 0.3622839264266097 1.531333971045817 0.61920288809754 -0.5882419209396514 -0.25768752878829815
Ni 5.924008582619925 5.58748818348158 0.34299093532089003 -1.71257890561207 0.9888200505783099 -0.13559689540242453
Ni 7.938205184442297 -0.3740750434387974 11.470772048029001 -1.340026571762376 0.9797114034088225 -0.4888932092359839
Ni 0.4193543090901148 4.680906846133822 5.973978217348431 -0.9950799154450926 1.5988245600060336 0.5862835116617
Ni 8.086314001036024 8.78970637681606 2.2790838372415356 -0.7722002383645992 0.7648486830955343 0.6593444933134323
P 8.546187484997771 1.7365140757797064 3.605015861772786 -0.14570338770880714 -0.43232765413611346 -0.7391412510271012
P 1.7942925411880688 3.1559664457548036 1.7841801778957855 -0.4106162306009509 1.4878274654301602 -1.1863028848522537
P 4.935626484184697 1.1912722527065296 8.203722631613918 -0.9666908227794384 -0.3038815108458573 0.3246179720622603
P 8.380639188012802 1.6194087798815167 12.345693394105746 0.4471215246158365 0.03151324011693283 -0.08765662007772002
P 6.10623575960524 7.815956781139007 1.368990155945822 0.8123670403914719 -0.14214523804390358 0.2641903629038224
P 2.0258863054491063 3.2156101930741703 5.925103303896821 0.5972451528795262 -1.1665190173571072 1.5685621615770662
P 6.938015670415076 3.9492364343922897 6.013881668094099 0.45865549339736494 -0.4234784312755997 0.03232005228894434
P 2.3877057223512765 8.574193877962522 10.284627509624423 -0.517795751202947 0.16651183981372614 -0.46106924504518015
