# total energy = -381173.56456103275 ev
CRYSTAL
PRIMVEC
9.16121312455657 0.00000000000000 0.00000000000000

0.00000000000000 9.16121312455657 0.00000000000000

0.00000000000000 0.00000000000000 13.40836143739993

PRIMCOORD
 96 1
Ni 8.184637033756248 3.2674474609906827 10.15695462350305 -0.4712569842114594 -0.158167838724405 -0.20854629117695694
Ni 8.566073306535744 3.7944004442329886 3.464560124193768 -0.1547816958609915 0.11601717349828407 1.0724490375538756
Ni 0.28944028595020405 1.5157960135831963 3.174911878703932 -0.3904428409768695 -0.3467844808569705 0.7087963201866566
Ni 2.719506138308041 5.930749556319037 10.101175660815827 0.6323157713304143 -0.4177875515384095 0.36581938600123454
Ni 4.11136009851354 2.003823001940305 3.5829559791004137 -1.288174362977775 -1.1385433580797877 -0.8030349643572687
Ni 2.163182305547744 4.660135091597348 12.334619890998077 0.9733589788282334 0.7989721071418047 0.9958191076039624
Ni 4.135353315883352 1.2945618760255042 6.239715135961597 0.23085729596933144 0.02995566582182583 -0.4561962332235949
Ni 3.5107967672122644 7.907537818107255 11.624177884701846 -1.5224291146644295 -0.5291939657375595 0.3483582531019936
Ni 4.973494389090447 6.228369889535185 7.343464515101397 0.130151298906821 0.5156794761908926 -3.06355529151773
Ni 0.8012287129831743 3.645649825510713 0.7096907868138629 0.04947188147788254 0.027299973366533628 1.3213701330034535
Ni 1.7205766122343658 3.50700402494762 8.862739041336491 -0.4629152971149834 1.1814345010163587 3.858316188791665
Ni 6.356333715507517 7.5245624615102225 5.460595178793073 1.1160701166779359 -0.6317349591262797 1.1046256222864201
Ni 1.3707556862067676 -0.15688852440750106 11.092978679141515 0.8361893396220501 1.018244526487014 -0.04895817506625762
Ni 8.105154348036319 6.260113493271878 7.567866600183519 -1.8045691200681375 1.3210150636568798 -0.9166982929113955
Ni 2.3770508276929396 1.5290064830170524 1.8264866496712457 -0.3543890326771058 -0.1561001575620989 0.3476195751637562
Ni 6.434900279907482 3.696796878804207 0.5733902568298742 -1.8356105627549744 -0.6666955343618648 -1.4373909060461632
Ni 6.791491342489602 0.8232467727871479 5.577784501921329 0.19413268685478824 -1.1451336097027955 3.1744842518598295
Ni 4.685108558779518 6.971142733334205 3.9613525613402754 0.5125784686680657 -0.4846550027849202 -1.4228626305230012
Ni 5.50806034050164 2.9938020227179485 5.093769208824335 0.9176781403261616 0.9021687318366527 1.5787452727576552
Ni 5.9298517574254745 3.852739049888187 2.910794102158806 2.223301037797687 -2.558273356511078 -0.937627843975211
Ni 0.43773925686173876 1.2978599127773685 13.48344793580794 -0.3308451839188947 -0.28886292594983803 0.7088073759302503
Ni 8.153094976709946 0.8082526151433251 11.004242251968646 -0.050921726550531655 -0.49193122473135925 -0.9294658769897088
Ni 7.880329014904375 9.160581075912068 1.424397337854519 0.7591901992581764 -0.607066252735006 0.6877564687972221
Ni 8.907291853368896 5.351192886884498 12.650413322838316 -1.3434515382835248 1.8190536868375575 1.1910488841776712
P 8.855750867907819 3.7169698702697764 8.044319311784225 0.6244348259204408 0.11886647002162111 -0.9350377146505315
Ni 2.569372176392622 2.4798762846455062 13.036923075487765 -1.274814139620785 -1.0439380745983764 -0.4323975881421005
P 7.1584437372004945 2.082838465787052 3.9088588097064365 0.7537312330261342 0.2688504873836531 -1.4767750642707407
Ni 6.881619357947491 5.675234158968356 3.7255804945561017 0.20196683818722633 1.692282360146563 -0.055722233262968546
P 8.283404073261382 8.391387293245335 8.834877043632478 0.9101905736998647 0.9056623468122079 -0.024080695098287558
P 5.684468661873576 2.400769208666763 7.31886024481117 0.1596210262311638 -1.2041342566067197 -0.5440091763735212
P 2.333003714629153 1.1194910917807117 9.21889219792767 -1.2973406028580754 -0.27243126275637597 -0.2538727830278983
Ni 1.3268643137673743 8.106244532407075 4.629062088666866 0.22796634757478157 0.6597407003105864 0.10327350067937052
Ni 2.002696172716751 2.408501272607245 7.2038302196340664 -0.20740857802808796 -2.6399444484293246 -2.4990677926851994
Ni 1.9174052778282626 1.4566878660192297 5.142669932641282 -0.504275348119009 -1.6240080012501967 -1.4674247334040922
Ni 3.734705979024246 4.106321431253747 7.498599583302491 0.049035565271412326 0.27353375179193534 -0.02231974654312285
Ni 2.3613759919083845 9.146546097290248 7.2979433628337915 0.066060381964183 0.6508778506033177 -0.7558811894896014
Ni 4.0137565330847575 3.229767391100634 1.1455831430945576 1.4432759040720304 0.24956515679147984 1.6555603221351811
Ni 8.64099370808226 8.396966472083905 12.67824966914537 1.3528556052062441 -0.42007017692499915 1.8992091134422258
Ni 4.331815532949264 0.9801032329484501 13.284682589743644 0.5569179140153893 -0.5291854810971274 0.3999425529371886
Ni 4.060964264702415 8.91863343531003 9.248416955827413 -0.08230821128161307 -0.17965197674010996 -0.04776621164068548
Ni 1.7878932068251943 3.5429343031165415 3.6235694694569816 -1.0435542088963963 -0.20116156867711163 -1.292697447659109
Ni 5.813311964313073 1.3819964948027046 1.8265407008291232 -0.1469323750199018 0.2725148236091178 0.2780452665090437
Ni 6.091858651647605 7.783183510135575 2.1459949534639318 1.0293624907770467 -0.2722535995279311 -0.0010554378477078599
Ni 7.013339281331668 7.143529282111508 11.76130567223776 -0.5101732016606827 -0.426340326204427 -1.7789779018625944
Ni 3.4930056911785967 6.82505802765302 0.480338898239985 -1.9199466030998933 -1.8423990464317175 -0.6992130473735958
Ni 3.1067231366164996 3.362165244261583 5.4249424853841015 0.9275748306145831 0.9309712578906418 -0.29459597177887326
Ni 7.51268952920351 5.63557526702719 9.915697738376263 0.7621533956515584 0.2333525515873594 -1.233373355977495
Ni 0.8172947325713529 4.5456565714548605 5.989595693185495 0.6434702452853369 -1.307702919929006 0.35267616375105715
Ni 4.677971973697013 3.1895038590882914 12.363394345536774 0.867868415892886 -0.06909891168019068 -1.994018028294011
Ni 7.715225630620772 4.7133250954343575 5.747910063280965 -1.2787353290520622 0.8568887769529305 -0.7060159292280421
Ni 1.805949958041651 7.736287259766706 9.011826792704513 -0.5088012610138205 1.2805021911444978 0.2832028994505832
Ni 6.775440896963862 0.9029190956203078 13.069102752972759 -0.16238264813670097 1.050942016720035 -0.8653646756344258
Ni 5.421908291572386 7.831710456453977 13.275860341432406 0.25598005917888816 0.5901540503606998 0.31567413260541116
Ni 9.122259721098047 1.467324034543992 8.615274518145638 0.44616250313667677 -0.33310904025240695 0.6011079782690423
Ni 6.3258543591923715 7.461954730504 8.877877030027548 0.9580362324282339 0.7230782840269676 -0.3092571733354738
Ni 9.19428517927348 7.229992812289549 10.711404072042702 -0.8728427291790258 -0.3022691720534149 -1.5712739040812744
P 1.4754500306520573 6.999835653075424 12.37732580244944 0.7469967425157781 0.22868137136393515 0.2590900655627796
Ni 3.929271824957836 4.514398512017747 3.2763466634927965 -0.8077441969074798 0.5300725116877709 0.2516845171273278
P 5.19907094170476 5.249082004561501 5.276002229548593 0.02805793457848071 0.23540866278543973 -0.04213472438652099
Ni 0.7155264796220225 5.701655097836069 8.681927840900814 0.6178016368746392 -0.7860026914653302 -0.5298277426668165
P 2.7905605078843156 6.126799518790967 7.79446829255487 1.7911171083282895 -0.7239601724112886 1.0758241246736957
P 2.486389907230438 4.648069773813444 1.5873084438194522 -0.07508572539124486 1.1089664157536192 0.42513910680747424
P 5.171816332435882 7.07063350868211 10.508212943881668 -0.8523744340223449 -0.9628465093326838 0.5764454425253557
Ni 4.965542456033174 5.224795628369301 9.227178515266727 0.34135765341444435 -0.31158993523370854 3.0228886670363035
Ni 0.9342330384579386 8.605851294248506 2.317085190573488 0.5855852000430948 -0.31692034630768645 -0.8241375506638388
Ni 7.999223239809081 2.4285002010220214 6.323745447913819 1.3704663763094722 1.460076263458821 1.3538439372614426
Ni 0.9289470184417563 2.1346084815781206 11.381553230444354 0.7784451908330464 1.3328261973591948 -1.2961165006429873
Ni 2.7000477214720418 6.737247799134635 2.7469174043226325 -0.6037487583259988 0.13501968274271584 -0.30535141052316445
Ni 1.0015954391147655 6.318910159587057 1.13265300678461 -0.026753613944760373 0.030300193645438137 -0.8906967266413112
Ni 0.6217403917335236 4.984945905589974 10.724289318407973 -0.24928053567152547 -2.2183238962980703 -0.4476010353554162
Ni 6.402909323414399 1.2350872799335528 9.151260457602772 1.7478171599890735 -1.6467933745758283 -0.7681535790990512
Ni 3.9029058533693215 8.668568959813124 1.735846522395497 0.5224527903589842 1.0357449972646227 2.0410095665522014
Ni 0.23732306017886967 6.187291009548075 3.4513789706421507 0.2352173727102401 -0.4295058684166022 0.6318977099563892
Ni 4.455849198458957 5.588101860226744 11.889274994938011 -1.279744487042867 0.334446785227224 0.575472537089125
Ni 8.057085462377898 8.236425371973715 3.680769336311467 0.004925719436391517 0.07316511132976432 0.5078936615978866
Ni 1.2330443293900368 6.814687534311047 6.689310834946288 0.08006286689086212 1.4478007885255775 -0.8106870815858879
Ni 5.817993344258079 0.15597606757281865 3.9031074000597132 -2.5013625022566472 -1.0316924244618038 -2.634115757562689
Ni 5.269062610549879 5.685027495878754 1.4826562409548807 0.38228678752863837 -0.16782901596325292 -0.1805793736503858
Ni 3.4459078941193355 1.2990417092801199 11.086234193983952 -0.6270504091664169 0.9219420578088381 -0.3026180707524014
Ni 6.468604383268895 4.788254658194073 11.63741217329002 1.2730593617132075 -2.1002629528968795 0.7872705024341603
Ni 8.054227163859617 2.413833098689425 1.59877278601746 -0.55857087623778 -0.18596094967727328 -0.26331644493930134
Ni 5.373839405913965 -0.06782320968076778 11.193179448512389 2.257013085338152 1.5526313492794226 0.20130015113750493
Ni 2.60828901006462 5.592032020689382 4.769018858838825 -0.7510531719733388 0.5432095632903612 1.3011805454294558
Ni 9.129203920703361 9.306418428836864 6.61615488306202 -0.027839905030403667 -1.041262327538426 -0.32794163711885455
Ni 8.236608596237708 3.176476613918428 12.612454752066999 -0.7721904681725863 -1.2315149626125177 -0.7738084633919835
Ni 2.2788151385533837 8.908959194171228 0.135709631732613 -1.3291536336036143 -0.1893146966408546 -0.7156120575569096
Ni 3.436636746361317 7.587133547663647 5.755244530568582 0.1257426283161641 0.7422168046286314 1.482394467340047
Ni 4.822893205301846 2.7703691939923467 9.290962546047782 -1.6899287723127219 0.976925098912937 1.3175710709723372
P 3.0498778087128398 3.7640585061158376 10.523606530420995 1.185225849737991 -0.1287970988717717 1.1175644418352753
Ni 5.180986706848705 8.621516968819861 7.275109038933731 0.15507634428327485 0.8521052395213582 -0.959016079843
P 6.457949892317733 2.191114844593394 11.16397624919595 -0.6745787937646834 0.7015550652432111 0.5471914307562448
Ni 6.792407463809563 4.115162001991383 7.980697434476803 -0.7665461254026154 0.37976016445204275 0.38128714261953045
P 8.681898525018575 7.076478362703469 5.51507324920595 -2.084065774311727 -0.05905515429094345 -1.20337912360825
P 7.391120230044515 6.720235426222935 0.35681826066947014 -0.3437737190551047 0.5911243846937692 1.538819125986679
P 3.3409295520648574 8.880055566526417 3.9798966890989522 0.010960612776561768 0.8709588818927516 -0.6149600536607861
Ni 7.9210231239371005 4.990506762002146 1.5346671966530994 0.7885208299014936 1.2476997999024964 0.6261116994022314
