# total energy = -381175.2991281118 ev
CRYSTAL
PRIMVEC
9.21573930426577 0.00000000000000 0.00000000000000

0.00000000000000 9.21573930426577 0.00000000000000

0.00000000000000 0.00000000000000 13.48816601299775

PRIMCOORD
 96 1
Ni 3.8012343339281647 8.368333449191223 7.077051735118479 0.7341198865531099 0.2641458828191322 -0.4521436604207762
Ni 3.432171630591159 9.071678656539595 0.13874755986941048 -1.341526296236354 2.0201311804412954 -0.8982069189754271
Ni 5.145626352376545 4.980996389272885 0.03142474872297186 0.7818647580375567 1.0820477369859043 0.1027713642319714
Ni 5.305279816371608 8.008762957116911 12.66062659738192 1.3371263673964455 -0.7243527798640171 -0.5025362539407151
Ni 2.582932057709087 6.494580161674474 2.7753926312906203 -0.6626370480217749 -0.830030519109506 1.183280295975846
Ni 6.538235117743777 3.0388162390129287 7.7215968407770506 0.3009715362879139 -0.9738935111754646 0.4012823547945347
Ni 8.443570743121937 5.6718450544152255 10.810279444005939 -1.429848832032847 -1.3940552193730056 1.2559661536763465
Ni 4.277651181924514 6.104385768604111 7.350928755690568 0.6264554558948954 0.12112492703849462 -0.5875294682536591
Ni 2.9379131117165804 2.08441586737493 2.2987472329648386 0.19853647234943872 0.9362427907022264 -0.7910752208922311
Ni 0.7808855144776753 1.285180894795167 1.103440990497024 -0.9153255809335848 -1.1593296986975195 0.8401511524832757
Ni 5.736530327087896 0.3646216386695369 1.0432935477522665 -0.615431851090882 -0.24687141200940063 0.843015361404948
Ni 6.952915729576255 0.9397289150067276 3.6812712150458897 0.6171274936257501 0.04662207073391326 -1.1776444378463073
Ni 0.8171466830750762 4.228734038834824 9.567628263537186 0.4310004506842577 0.756970051678406 -0.5599399886711647
Ni 2.425038799880213 2.6574505239907813 8.754372465505906 0.6516291269470454 0.008175850942573016 0.02102185366730573
Ni 5.791787898671502 9.123001107531772 8.348162961044952 1.8307666043991115 -1.5536443639249693 -1.1648663122450327
Ni 3.747810694423467 7.051690021142815 0.9572563291819879 -0.6530473474508107 -1.3637090029809804 -0.6641000057205466
Ni 1.7817709956595147 4.212790810209134 2.518793278364453 -0.8193203317808534 0.699037698137996 -0.7681713197108642
Ni 5.609002929560553 5.671255247113466 11.318162511551167 1.933195754800316 0.9190058579986495 -0.20645829829967668
Ni 6.14023499366419 4.693216504709631 6.1170048801400405 1.6157856133404043 0.888456524456883 1.1111366839320604
Ni 2.443203021626592 3.6532203484037646 11.249629667808422 0.2854104486248633 0.5449072627077582 -0.272181351529099
Ni 8.502809513992421 1.7233616413071302 5.192673622004876 0.5889494885296374 0.07615941807139787 1.6677764045853987
Ni 5.0802591150112155 6.699280158341429 5.268774430688322 0.05617706141220002 -0.8419113297074919 0.2834859779086408
Ni 5.07222299052474 6.1247064732975485 2.9770809244229657 -1.1042777520286982 -1.8780815874349914 0.17079118391537038
Ni 7.691981141637444 1.439461582900763 11.416302760268335 -0.6280719084523957 -0.45617155063324666 1.2043453441762615
P 7.142953485351029 4.287788494923508 12.205279693667025 0.18115092988313963 -0.01337025065931891 0.3866118972665535
Ni 8.870406914814117 8.52219942903777 7.3630004523245525 -0.6881313356381374 -0.05844194618697677 0.2921202565448711
P 4.667237336214937 3.2811072354279713 9.093384486818257 -0.014050821666111284 0.12092309544033367 -0.16413974003712375
Ni 4.559662013817433 2.837691949112892 0.23920003752425828 -1.2417942330513387 -1.6014643116217255 0.24351792215613546
P 4.58014860181449 0.7968997042943585 3.0376025261747768 1.4612877672684188 -0.5163690460587494 0.4810904253621134
P 4.955625459558131 4.199206810790482 4.54642913405811 -1.3132187075409125 -0.10690364123279009 -1.9686782639776417
P 1.3964425128286693 7.636981610748358 12.44713570719702 0.199426845374192 0.4809883525666104 0.5873548903490077
Ni 5.387908133052498 9.090911904020412 5.317426160492221 0.4377614235571751 0.8663152124731532 2.0775742530501122
Ni 6.59966723451768 7.123840042478381 7.026672975809116 0.33653786342829783 0.029311861590239845 0.16712993301369927
Ni 8.958776636948073 6.40242277077453 5.994032822444883 0.8191637515983311 0.06523145830498443 0.33978002451467937
Ni 5.809592706593372 2.553017768622965 2.432968021793244 -0.661769557815157 0.5796886320530016 -0.07427351390259467
Ni 9.281170837533347 3.219407862220459 12.147293341738871 -0.7121415825098059 1.1844884573513343 -0.1664629888536617
Ni 8.635359489323811 7.9475520180811685 11.391147478848286 -0.40759621282770453 0.3824161140176511 0.6524140847421861
Ni 2.869292718452482 5.437968027789347 8.913492338207659 -0.260488488572203 -0.19930548930497932 1.3251949060661823
Ni 8.088912239982593 5.297722910317813 8.274557774507075 1.5032132038576111 -0.3802697570986096 -1.4093252581581985
Ni 7.547533647140873 3.4978890660419095 3.9089644807423807 -0.19597796759364314 0.49681940606159597 -0.05201675938692332
Ni 8.094930117608358 8.523268454772209 5.098432552496685 -1.3392112749499323 -0.2835353430893375 -0.05532191250075633
Ni 5.671817407197955 2.1859825278857583 5.405005172212256 -0.014531617957271748 0.979034946167088 -0.0002812786858446769
Ni 3.391032571293424 8.145201974344278 11.224096541085682 -0.6109807572980639 -0.7586803495012935 1.4919240040970372
Ni 7.66626922957636 6.5269919160539835 13.47098220232158 -1.3506845656968545 0.19843157134045825 0.03155566331909404
Ni 8.015905154911657 3.3596161167356335 9.785597081345916 -1.755647968887402 -0.80688879088572 1.031918167319365
Ni 6.05750530385331 5.205196889854269 9.013750363767707 -1.7546182420713072 -0.8230072937141374 -0.1439151854601328
Ni 2.6979905602476664 3.48043445620546 4.580621369229807 1.4551484871399003 0.6658085037712211 0.8927669789067787
Ni 7.4309914106088035 7.457376071623457 9.392848085399807 -0.6518844374909613 0.12033019905134117 -0.2728724640588526
Ni 3.5055381294866046 5.815997645260918 11.985057627650791 0.46783047502841363 -0.40521871373446344 1.307386931350484
Ni 7.934696062050627 7.972240983103263 2.066279292845821 -1.4873163301216965 -0.8041078857064733 0.08038631166855188
Ni 3.84114769992693 0.6496570761317912 9.70252272289307 0.31137653367132184 -0.22682683465369968 -1.156209407900983
Ni 2.5186707090345557 6.002137143400624 5.202034969772493 0.252968526046074 -0.45779417383833415 0.07597815529852721
Ni 1.3762231812652217 9.01213576627914 10.315722335184844 0.7538693012658951 -0.42611638311907907 -1.6247091410822794
Ni 1.0870793673166477 7.687990726611477 1.418092127098884 -0.5018685384497292 0.024737354845679974 -1.8441625660900431
Ni -0.1774868407081109 3.7059988861721624 0.8301454830615133 -0.27443955143565635 -0.5525285266984419 1.5880269551698973
Ni -0.05999261832804545 2.702017838229994 7.697764017916416 0.3420338535458626 -0.20320610991096616 -0.9165106023806215
P 7.134668535909124 0.7042732322747339 6.614340534296769 -0.5543226424843872 -0.11525381296969829 0.8294340231760876
Ni 3.0145511979889736 1.159081936826774 4.5823880264133585 1.2997684955732776 0.4160674835235093 0.49999471846578414
P 2.01903019853142 2.1857705658866884 6.416293379678881 0.20646832560200573 0.3281933481183445 0.4441197616750351
Ni 4.074674528467388 3.7455159753900586 6.876792803118992 -0.8942193950825891 -0.16923412384089564 0.14269056902441232
P 8.280959026878985 2.147479169967762 2.1586329789883822 -1.2799092947555055 0.024368915762667708 0.6328127655714908
P -0.12386321966516055 7.038152100419612 3.805821007273255 1.0770166023199 -0.15046404232224408 -0.058124157836241835
P 6.226512743024717 8.792810391676364 10.755449482716108 0.4171571170432622 0.05154599039809187 -0.0716047088211799
Ni 6.805768023526314 4.8673018161196255 1.9050950945879104 -0.643754352184659 -0.5545946651988513 -0.5614798223544588
Ni 3.526964722870842 8.031627205799188 4.434018313360085 -1.3896576045259423 0.182135405283596 -0.23074056788580907
Ni 4.3720572131624165 1.4291768180763293 7.589359279000812 -0.5646924157544855 1.4152452231870594 -1.5265534212454483
Ni 0.3040134089702798 -0.05698367951516229 3.2744414913441786 0.1353500694989411 0.25221210749602374 -1.0603106024191287
Ni 4.02193285365535 4.225563824587866 1.9895720885302532 0.0722035187474434 0.9902410992955527 1.1022483803034953
Ni 6.0981006345447355 1.594193842221769 9.783708776406376 -0.49390943150365263 1.476909532966076 0.0034326798306327975
Ni 2.9722878185222594 1.4019627405435762 11.566722975269132 -1.311328175386419 0.13078559005671025 0.8315487555262453
Ni 1.6428252973996693 6.040078341234131 10.918130317002234 -0.682805809660166 0.19461913957290353 0.806594656684069
Ni 1.2678184423496177 0.010893925178282363 5.268207662734288 -0.13141576744154143 -0.7036127191031882 2.3025370379118795
Ni 0.5616974543873399 4.406588587532625 4.55627522970186 -0.8046822701527043 1.3491151643272057 0.5614394560348266
Ni 8.660665908864933 0.7877309654737232 9.369999503473984 -0.3983782937738623 0.016939713178132115 -0.641652732460624
Ni 0.4413988826021891 6.740926083289114 9.200790239616508 0.9090891131055697 1.4713181549212273 -1.9240125456391508
Ni 1.8172700226341731 7.210108576099818 7.143575547739604 -0.6354733431227894 -0.4007403662481357 0.287753237825427
Ni 7.931396827456409 9.22642934733878 13.595666544339657 0.19229537653573334 0.06903257721862949 -0.6156689068023526
Ni 5.870720703977304 8.090524994323342 3.403320837796023 0.4241446041046889 0.8238560148676779 -1.5454805971672543
Ni 5.195769188765205 1.2768130037014522 12.106694324751809 1.0920063908605129 -1.9949392545567 -0.005231680712584538
Ni 8.93191275750074 5.587557904698136 2.1997305674602123 1.0368716546698982 0.9196136667859774 0.44396652392662245
Ni 2.2529901668091075 4.0764900290681165 0.10542529046780878 0.6880143504442989 0.01801751962334316 0.3328457592886913
Ni 4.959569795888648 7.154906298950752 9.642662811207922 -0.6166186723101317 0.9120340546665068 -0.5894477683222945
Ni 0.5659652631599162 0.7216108022247404 12.18063680734038 0.7408155534057307 0.2623185998024063 1.7973728594300142
Ni 7.212771924696826 6.103556352086012 4.33450307637069 -0.03414399287156055 -0.3778269519850719 -0.4958393015365138
Ni 5.027323909678287 3.44739603156783 11.418298889355226 -0.07248274055075904 0.08433244080049347 -0.9625192079002519
Ni 2.7573859986826807 9.0134628327081 2.4582320489345544 -0.5394560097851999 -0.9931227917187218 -0.11028618455177781
Ni 1.4863328319124747 4.6861203856103355 7.101371149003065 -0.41336114033593974 -0.3515998999677428 -0.39863977496536507
Ni 0.8730290817689842 2.2710990941209466 3.5720573342381843 -0.3227963454724892 -0.5112988306246935 -0.7339615065983746
P 5.799695002810718 7.025498890649051 1.1522862508218121 2.2800859079972153 0.2744020133295016 0.12068089752254055
Ni 6.873531353055044 2.3574597851332837 0.17823700187003644 1.371452137261509 0.7876021747419661 -0.39968672817264067
P 2.8918989264402386 7.965200158438508 9.053296943350691 -0.47712141341203634 -1.0901469690542709 -0.6556115086335612
Ni 1.7333975811761342 0.4165292890939303 7.815285887513752 0.16894384629398645 0.3717079835715276 -0.0028384978900596273
P 8.341294470701179 4.300045427913201 6.257173506977128 0.24775201484214104 -0.8083910864628595 -0.07967720141666923
P 2.4211774052015054 1.941783873479087 0.05729148520076811 1.0616951414714813 0.3804389356866222 -0.2276840404476724
P 0.7510145393652765 2.157174127490436 10.498635403069143 0.7627439780477058 -0.5596075450324104 -1.6896040419834515
Ni 0.4959532932932289 5.604173882277396 13.172030077259524 0.9716075433547653 1.066313356969783 -0.7968398912901502
