# total energy = -381171.2924491201 ev
CRYSTAL
PRIMVEC
9.26585950271899 0.00000000000000 0.00000000000000

0.00000000000000 9.26585950271899 0.00000000000000

0.00000000000000 0.00000000000000 13.56152198966685

PRIMCOORD
 96 1
Ni 4.282902678555093 0.3885981051722076 3.2844516402271076 -0.1678578123186593 0.08663306390921209 -0.254206255107917
Ni 2.291502669317789 5.717016829206479 11.140614462847601 1.0640736690059867 -0.15069132784170178 1.811086352361365
Ni 3.7083359918522762 9.465538854057675 0.8357193794523672 -3.582885477087333 0.8287902189445018 0.9437768942957425
Ni 2.0105340092702235 8.728310002426092 10.012498838727524 0.35670251130163083 -0.10797167748598824 -0.0007793013681857547
Ni 5.8323767809788025 6.0375785072398385 6.3967389765260485 1.1510119228604434 -0.5335802677307133 0.4264704240243881
Ni 2.078777065077707 4.1697294696436735 1.430266039167767 -0.2718926166440866 -1.0941586613168253 0.2697416317393548
Ni 0.7589572923469337 6.7145422081624115 4.4852699783705745 0.31450942287334865 0.5716896730079251 0.008196676878179432
Ni 3.6132497408412245 0.5550611257007348 5.5408042712277625 -0.861081989098672 -1.3661826613324535 0.2053738069862463
Ni 4.438217016836837 3.3871535012270484 10.72961892189836 -1.2907971453126028 2.02715132051287 -0.040896223993729566
Ni 2.999080770293033 8.693896599945576 7.555449542393679 0.7343003779950321 1.8056484691752452 -0.0701738899119243
Ni 4.400134333962599 5.518412394966478 4.273967610161996 -1.4773826159477523 -0.4370618263869892 1.228511914120136
Ni 7.555215116146304 3.6677978561893108 6.499386168954468 0.08815438564974495 0.6593802316473741 0.4894130862951958
Ni 9.297270844082943 7.97471764277604 8.764879570430898 -0.5197083948446275 -0.19695935767030592 -0.5099502870165992
Ni 1.1167491941731618 4.412087292820936 7.768487406101611 -1.7393651725669785 -1.500037634343107 0.3410095260464062
Ni 8.03309255813071 2.19574927641697 4.695039773404602 1.092726299745673 -0.9003327070691785 -0.19492587218004492
Ni 0.6191669752057009 1.0993664416008821 11.748454851302581 0.04833982475596836 -1.1587499149346496 -2.2966222150893416
Ni 4.203216286166178 7.292870833854751 10.404630016157626 -0.10112457265716777 1.7381912068635357 2.3717074262599542
Ni 7.559116043029527 5.671632648983117 1.0896817651677548 0.9411849651988502 0.7727393986975207 -0.45444891151518507
Ni 6.127874308847976 5.517096642906103 2.9184399943673673 1.2318445780377947 0.8118481917735244 -0.08022227528686184
Ni 3.395696623759907 1.6572823786382476 9.589243638967845 0.39450801218517867 -1.7899166602622851 -0.37839979376940636
Ni 3.7421193158813444 6.724827312296329 6.092581576293308 -2.212801166707628 0.8309255201199495 -0.41050001673806075
Ni 6.641471639513692 0.1978112766599431 12.272906209880434 1.213619827499652 -0.37633494082057767 -1.8554281117015337
Ni 3.281976729133261 6.727857248379024 0.21211591067971136 -2.9971562952672057 -0.05768424208534581 0.23599178898241938
Ni 0.8576405500469827 9.342766214621266 6.7696546143589265 0.48148277570452563 -0.46910934174083724 -0.7701729235219252
P 7.98519732996114 2.015583902741381 2.3877768035270104 -0.48585159419618257 -0.4497098541683029 -0.1995281468387467
Ni 7.9500797221525366 0.881622447812214 6.985390696376585 -1.200017920445501 1.3819029002811878 0.9833045200767195
P 2.0258968044540397 4.966259822587938 3.5906845930057916 1.6527346797609277 -0.6071572697869155 1.0140721402768793
Ni 9.024502469763773 3.755767927042841 0.9803362828488774 -0.03092188638983707 -0.7835681138819086 0.2462695167593436
P 2.152570370773674 8.500453249491695 4.48917553818359 -0.4690674327593083 0.6181975867614772 -0.12132187354064913
P 2.2803743719620813 7.013431040637903 8.39383656281916 -2.2348293501522605 -1.7389491680754827 0.8728854094915032
P 7.004146649338637 7.872580072624526 0.6467810899263339 -0.6635191935164121 0.18288796717890438 0.7672866031130656
Ni 4.952611211426442 8.104791779561573 13.11585018004741 -0.07273727976372635 0.663256940993961 -1.7045588635210707
Ni 2.112412135353493 8.71248391426327 12.493918272343006 0.5843526131875743 -0.5980460515142668 0.5834717532445177
Ni 7.785629246324809 7.32585729395993 3.147249277666598 0.2313200945383629 0.38560916703365206 -1.4066047739032421
Ni 0.5721306922192068 5.763003290302546 2.3082117938985953 -1.7185767750667176 0.4935055111970146 -1.0588563864711054
Ni 5.350153650851325 6.037041087384193 0.32371762980634466 1.534762439418802 -2.3000528380374448 0.18100720521642374
Ni 8.042942166864362 4.230782218416994 3.191378860502813 0.29354464769622346 0.028270050589286798 -0.4977614582598911
Ni 8.219595779759091 3.2800679620597593 8.703364455264529 0.2445543338404498 -0.0954555472968485 0.44742697167139717
Ni 2.703981674385805 7.173600689339621 2.7043031997132347 0.28397782994339477 -0.03958727537431892 0.22949975350017246
Ni 6.279658354629698 3.8091485440838335 4.628425655711302 -1.6886704744255883 0.9432400479556659 0.38622057536540577
Ni 0.4562805764750947 4.132740158199889 5.045496820787219 -1.024474566557126 0.4933491881248084 -0.11554871850229777
Ni 4.516504264429155 4.062690259774285 7.037277656853264 0.8581085082926447 0.35062262365613805 0.10494111818978055
Ni 4.169794330660734 4.9259811309932156 2.1081924629007127 -0.8833747390586013 -0.8470859319298959 -1.1444304129881837
Ni 6.854994107677664 0.28566552426872177 3.6027135319126855 0.6194242600797267 0.36666399338971695 -1.5485170700007331
Ni 6.697233582466772 7.527556525299686 9.756321912572492 0.5614952489734266 0.49457380456052885 -0.34936509709995317
Ni 6.225360417490275 4.216725909433973 12.122536134270634 -0.3881974965861185 1.2154152288371778 -0.7318593726537074
Ni 7.67088084128477 6.15002897910401 5.012108222376263 0.2703075315451538 -2.017106277572042 0.5088244009422721
Ni 1.4764220654941511 1.818443474315038 5.147248931180199 0.2915332736931495 0.07166435841452173 -0.3304728881811405
Ni 5.715200720728777 1.8268290772350342 7.528787031451923 0.08563290477947189 1.5409539129414944 0.2696830105872775
Ni 7.972030543497808 2.6075240761568974 10.877506673726648 -0.1617493854280763 1.1916052709017737 0.4796076701689998
Ni 6.898358330512562 6.94266767102463 12.194710694297958 0.3674782617608962 -0.4477367896023321 -0.23133474982638225
Ni 6.31731480796325 3.458926849534553 0.8200498843164492 0.9030274802925222 1.9501326397649708 -1.5906844473974024
Ni 3.189660970136661 2.6272788887816847 3.39528985252434 0.2577674900966141 0.6670200075808189 -0.27618224515837597
Ni 0.022117606817713936 -0.0656022858271532 3.9372759237715864 0.7057608757944426 0.43598864792746844 1.0668738574589431
Ni 5.518532851141019 5.341712452773849 9.841908804342017 0.9204611023879372 0.6837229221577967 0.29853027383627295
Ni 8.077707672008922 5.354610529309357 10.844918645583414 -0.602277058876479 -0.36179252423002856 -0.6972728929280895
P 6.107304100580139 3.929373072135714 8.437341626719675 1.4686254385804127 -0.9330595078782382 -0.5229531270341703
Ni 5.097677509012588 7.807042647814434 2.127761958333897 0.9032992458966701 -0.6309561719787262 -1.0104363432965051
P 3.8581649412625962 2.471936752921201 0.849309615698509 0.180147942539922 0.026960330638927766 0.5559835751265779
Ni 3.4850380418312925 4.299321781731042 13.203077128962615 0.5567286808227186 -1.0151669160029548 -0.7283053367538618
P -0.1709578890108368 8.499572992831585 10.878198833437283 0.04877665518307084 -0.29055574027122866 0.3589378283900528
P 7.312931419845681 8.030192344082137 7.578219465725833 -0.3339125099903088 -0.9426726054879702 1.4093090602082825
P 3.8616581703242967 2.612027283912829 5.586072628206373 0.010003648179931157 0.6855679457863354 -0.18182404469076427
Ni 7.9236627564896525 8.39888089677457 5.5727409094425155 -0.507754564916861 -0.7987841595007147 -0.7656130720653846
Ni 5.7045449822116545 1.6262046856065708 10.441585043920965 1.0532740072873215 -0.6928495670494131 -1.014929088960536
Ni 0.6956751777586392 5.698188602539703 9.700258829183056 0.08097586562343474 0.3233810143313656 -1.7033188204663827
Ni 3.06760180188792 4.899527101892013 8.941369177611056 0.39621933844933055 0.12525103339172622 0.15612612570402787
Ni 7.884023409205958 5.750003289311658 8.373263574793448 -0.747576783388964 0.14089876723131217 -0.7798852657136827
Ni 5.797416692783061 1.4674156499822877 5.232428125128201 -0.43489284376012843 0.3564412872204442 -0.017211993002912294
Ni 0.3908580483237955 6.214788071709373 12.840740323012346 0.347353208876247 -0.40124507379869606 0.0022047209608026547
Ni 0.5550370344658264 1.3214876274551923 8.859023483522652 1.0299109070813488 0.12144708626460375 -0.12019624457663815
Ni 0.7810610003752775 3.2626666777683195 12.136978829598148 0.1894882461042414 2.651483045196543 0.7377999065078583
Ni 5.367990430543031 8.51043258025947 6.5248960069644575 0.9030362220432705 0.29506982609149823 0.7308921236444316
Ni 2.4856316933805984 2.416378658878883 7.615337572617781 0.14018014389773278 -0.3106023745094586 -1.1201666553448126
Ni 0.6695565727742353 6.3500603557193465 6.780557751326836 -0.11825197636607376 1.1874886776302387 0.5699122693925281
Ni 5.15190131927537 9.32562437439807 8.698577712205445 -0.33383126313041217 -1.4790080673663173 1.5549882795473735
Ni 4.384280448221037 6.824676215131555 8.300478394619798 1.65820161641277 -0.1814149821778037 -1.4797210342729419
Ni 8.925784001797318 -0.34525612040030196 1.6644865844617804 -0.24769802167575405 0.5496110959413308 1.6885645449753435
Ni 7.861488838707139 0.6551685460182461 9.789099890837118 -1.2312545098622796 -1.2070205770155795 -0.4388636554824184
Ni 5.44371103503166 2.1885775011019675 12.688716291467498 -1.578391231852346 0.1874053954332837 -0.7975515726451942
Ni 8.190602905132938 1.8882061310936589 13.021488519255522 -1.2244819670251363 0.21973496080392477 1.9833798318538742
Ni 5.758027523708029 0.7752865166849553 0.7436537986644302 2.5680995985728803 -0.339351421617693 2.9817577013239487
Ni 5.859321900637752 2.569515520159301 2.6252941416596256 -1.1177593314549008 -1.517380753607245 2.696705921590085
Ni 1.1019608822833118 1.4740500054416439 0.4080434380870188 0.5566412633152349 0.42571092015054424 0.5145031964946042
Ni 0.6855790971601552 2.654501984228037 2.857656882107827 0.3686062047177523 0.017858368337659566 0.6529992678216948
Ni 5.633271990321476 7.735482414277273 4.408389288262516 -0.20969685984163242 -1.076087148527095 0.042843577528087505
Ni 1.7381270034746759 3.160232600110243 9.958048941490986 -0.8661249508392179 0.7981694087348512 0.309465432691538
Ni 2.8696274460993667 2.0756266728204706 11.887175888248269 0.13901749104819927 -1.1711459746061572 1.1913949546631803
P 4.374226990576622 5.573609120485171 11.740995834340596 0.7719631826531286 0.2475347566250124 0.41658633214145674
Ni 8.824406232131375 8.527972852444611 13.151231864854045 0.3633673249163161 -0.13050533981213006 -3.2395676146227235
P 0.22671149269029492 2.4584085979342456 6.864598171132444 0.3040380910283796 0.39610543857928554 -0.08036908527737126
Ni 1.7214021269325839 0.5647949111896365 2.495536897271732 1.8395865166835867 -0.710626174306544 0.45147388804726113
P 4.287341025293964 0.2236176221764974 11.413309636876091 -0.5429372834655811 -0.2362206171637738 -0.3371266460522323
P 1.275037873380119 7.358445322103164 0.9716977219623443 -0.11008486717424912 1.110917368832403 -0.5062196163295734
P 8.22648031342711 4.481590505531314 12.755479589500037 0.1367603195829064 -0.20033290212822918 -0.05972055578908425
Ni 2.527411454227298 4.425152154828886 6.002723123257352 0.6579640680261378 0.5313889165063493 -1.5520070854318626
