# total energy = -381161.50357405434 ev
CRYSTAL
PRIMVEC
9.34267535153760 0.00000000000000 0.00000000000000
0.00000000000000 9.34267535153760 0.00000000000000
0.00000000000000 0.00000000000000 13.67394974907611
PRIMCOORD
 96 1
Ni 8.225786648095609 3.9178229315124704 10.439116918060899 -0.3055732967259834 -1.118627592992467 0.2750944114108359
Ni 5.504779130005936 0.9136501310513376 13.40475118219653 1.8715754108853573 -1.7853922900293704 -0.9449791421339597
Ni 9.090703515345474 9.236281084563396 5.0254223340424 -0.7979243826035807 1.399030818210726 0.8952324097281357
Ni 6.478762390725834 4.316017102840733 5.713892498044508 -0.13081284375021987 -0.09838917600387571 0.5279721775153166
Ni 6.332259896636101 7.160899155024898 6.104338788603138 -0.8216651778639461 -0.5889379185654114 -0.5783151487442427
Ni 0.8037391597185625 7.65155778550794 9.72935759945881 -1.590201851334029 -0.6267575605163465 -1.1819291812645902
Ni 2.994813308172433 2.173778987618534 2.815780552353791 2.183355607753001 1.3225448700378448 0.047411399404428026
Ni 8.648365202408003 6.066731717022282 8.37865804405518 0.3112598055877994 1.0855639776692787 0.18166592184634522
Ni 3.6433538114711363 6.534706331457249 0.6429638603089597 0.5461323933641111 -0.5801915398313492 1.0510998824541382
Ni 6.605252873952725 7.835047931794678 8.457639153967545 -0.1529839805306204 0.15283974164327227 0.4301172767483561
Ni 6.301933572051236 2.5540912780917653 8.052124062138759 -1.7470016060663136 0.15531519976695832 -0.3008609788519786
Ni 7.618456686307639 9.188530670221668 0.15974199950230566 1.351867530261362 -1.3068104900217237 -0.8848613509064568
Ni 1.106406342872047 1.5994380129251915 10.336891231572087 1.2122280893584478 -2.9467493035695638 -0.14626928751460616
Ni 4.838468857957877 2.6031590096751644 12.114121293013127 -0.7106472573524664 1.5858350897249012 0.32513836334210455
Ni 7.78955844491738 4.264856611951417 1.2167489458116678 0.736301467585461 0.50629289276967 0.09881160825327498
Ni 2.2739978674157766 8.779498995344902 10.843141853151764 0.20563143152300714 1.5311646947652147 0.8833258880985368
Ni 3.040779271498846 4.1223154122621715 12.785621421286354 0.30732447508913524 0.5369453275482042 2.998572715998758
Ni 6.109418401257726 4.4300257716359 3.0878373935880354 -0.09880775159853306 -1.6632173244598067 -0.448996373041046
Ni 3.393923061697035 1.442051301909591 0.22085243977020566 -1.5841929261357877 1.117646202915804 -0.24222748547948605
Ni 2.4517983243395505 8.415087938526458 3.738047432993736 -1.1383232716491813 0.6356245239886731 -1.3812948343835436
Ni 1.91882671663998 0.2798561067189784 8.374802321887536 -0.901451394054654 0.28994433193947483 0.2822091680787462
Ni 4.423177590514302 6.18674772614649 9.644920367070302 0.5710661804913132 -0.6195157913522686 1.5864051032957582
Ni 5.697565238388159 7.8198100280984635 0.2786275448942989 -2.1118614563677562 2.0239330706858887 -2.2859097137678437
Ni 4.617439841621234 0.5975164154712898 11.21170946628808 -0.3007146830821015 -1.1643060688661884 0.619498822071404
P 4.848988710540303 5.462111131121438 6.7005089245387905 0.15544298359407424 -1.1100326522346045 -2.4222486295426156
Ni 4.781104830554589 7.768770991990293 3.2751571025510944 0.3619051385484929 -1.3658831278141639 0.7733592916697068
P 3.4958609937812817 4.5361772503584 1.5543455897554899 -0.16349593580553778 -0.9934264390020698 -0.6586713785058076
Ni 4.953869585398497 5.620441452359797 12.38710773045692 -0.4097831931766942 0.524224023326794 -0.614482085583103
P 9.188166305878227 5.353082108353301 13.43084060345446 0.44959106920225156 0.9425468785433833 -0.9591122391012321
P 8.033318190679463 8.315448304608532 10.33329430151504 0.27511960822181647 -0.127615934079477 0.10096619270243258
P 0.378746458063982 1.421506758544798 6.866647853937355 -0.10894021204684463 -0.45879176186491316 -0.1721196729188068
Ni 4.0674832499120255 8.546885061421928 9.387398860336717 0.41788473923790614 -0.08370637718072035 -1.4143677056781125
Ni 3.588951412192741 9.097047191991539 6.893421159039896 1.634958072503797 -0.21265568535964022 -0.14371746762702992
Ni 6.330438074918896 5.549736084381282 8.034471076832812 0.510105838757857 -1.0219805964906785 0.5376125288185579
Ni 8.545754597689713 9.290048181909636 8.251285612263652 0.9673431116514567 -0.46123585253003146 -0.6231873266665848
Ni 7.030083013054078 4.307758177722735 12.628125400967722 -0.7025819638458287 1.9849217224196978 0.6648312274596163
Ni 8.049695900783364 2.2469321365709356 5.791259193635164 0.021340413348989052 0.16103976095556138 -0.24704727546563263
Ni 8.310580770687178 2.032377594336977 9.358888751863772 0.697913868946198 -0.19518143983427677 -0.5737151880783861
Ni 1.3214560469060668 2.6802080542997433 8.338264986648321 -0.10959121536728224 1.0627909456388214 -0.6740393763214456
Ni 3.2347612423415932 2.547429950479625 6.372005506632692 -0.14020148405397145 -1.0015454685647784 -0.6765042929221704
Ni 0.8564851026356215 5.186165868355395 7.066875403333702 1.243306041710175 -0.5963354965810633 0.1116565825367432
Ni 2.836679183119005 4.870177898512724 5.5858221683951585 -0.6027938506118973 0.16860883155207088 0.46074939981191615
Ni 4.98418656730789 5.730479484079003 4.532900774070073 -0.17744776999993955 0.023188008080689097 0.1378941760770335
Ni 7.6058814451211845 2.070336884783159 0.45725669713251443 -0.8548208386803084 -0.3406349163158069 0.9294131693749026
Ni 0.9538965084532731 1.71161551732768 3.470859059948393 -1.0827704740845419 -1.143513300490553 0.8169502888867801
Ni 7.989127335692891 3.8219670811610476 7.739278034057606 2.3309415571965015 1.3082384807175016 -0.46878923939725714
Ni 8.683334836702876 0.9297989456061558 11.601252320128484 -1.2635303391768498 -0.6739005367507362 0.07385236720477605
Ni 6.649677295826118 0.19650636175551056 5.923295489022739 0.8470201116889671 -2.3633968495117297 1.7992343381187852
Ni 3.6097201797688827 3.58268247695046 8.348534455528076 1.254635093569749 2.0487665847898007 -1.4237733152627285
Ni 0.8643703207347053 3.230893374695834 5.330912873723779 0.16962004642540465 -0.10390059274040815 0.6176797665847943
Ni 1.935690245868471 0.6636971257183044 5.5338610102178185 -0.05521649727114362 0.25859101443917404 -0.28685875103561564
Ni 1.9850943137688921 6.138623604785849 12.739431233748594 -0.5171285499325932 0.5025375394922957 -0.1375895003524211
Ni 1.1583703038520285 6.647463081739054 1.5896646401130452 3.519151172153165 -0.5434095951163094 -0.4631299842289508
Ni 6.153926907210375 6.037573226871523 1.2969819742373936 -0.3641376274234374 -1.7915534245347595 0.948094804944806
Ni 3.586802596833986 1.7148574257167581 9.565269387326536 -0.20304567307370194 -0.8130887490488449 -0.17925834084611708
Ni 0.7124416007303426 0.494656361317873 13.495832925381327 0.27058058270088237 0.9778021022012515 0.3728153577030934
P 8.316111634567104 0.49545235726815967 2.179819027311731 0.63758190482536 -0.2375537341529006 0.1230995342663622
Ni 6.70072567460976 8.395113298365509 2.199987995122515 0.5799313441914271 0.9091762735027376 0.5098358729259219
P 2.3917529490755554 2.3142274280018613 12.090616055790989 0.17412487627429366 -2.4951818273672317 0.02260745298687074
Ni 7.371398976103641 6.83354114913177 3.755454705934747 -0.8412551841807318 0.6135732006155884 0.5004480039531187
P 8.167880745514895 5.002021734785557 3.2062128288992113 1.2783581482183017 -0.7908628477711088 0.16796039933479462
P 3.752607058450623 7.5242544895149095 11.665424355148836 1.2112636685626494 -1.2076443266425074 -0.5098543848686833
P 4.250618374530795 9.141331473732839 1.8236267221067515 -0.26091554880729256 0.49205875144815897 -1.1778863786537843
Ni 0.19834686882366168 8.067166703917591 3.193400283755747 -0.5616731693121876 -0.10075227691941357 -1.196824096098552
Ni 7.244665583314455 5.790917251712859 10.098457745097075 -1.5794721236213507 1.8669417687680876 1.9520666235628896
Ni 8.17554173940263 2.499913103024719 2.8844510856143195 -0.30018323605866365 0.802751885899211 0.45770727055148264
Ni 1.0596742801568604 3.574292754375842 11.055825991756059 0.3433345746351571 1.6958528511066409 -0.34104963525572235
Ni 8.593888061725828 7.43598489164744 6.359562931437952 0.4231773550954132 0.16159023414239268 0.42374248357026373
Ni 9.231086557000493 3.1968299799218296 13.098960742632473 1.1788024627101505 0.44548681722589084 -0.8312109125708522
Ni 3.2867065179706296 7.160497419979566 5.264689187169589 1.3192970525245087 0.3084724726506494 2.1679436440733046
Ni 3.49897210471374 6.537864155767071 7.607857420983692 -1.300169073445806 0.8827365912539701 1.5227864980038484
Ni 6.541348973718443 0.9766272378787128 3.8932741174400145 1.190418192572208 -0.35530974471916227 -2.199535045726341
Ni 2.784743250165442 8.474171018216751 13.317004774155542 -0.3375405936611993 0.2032369631489016 -0.026152232915335607
Ni 8.482579426142314 6.859196135980212 1.155566566942627 -3.1185409037249907 0.38360524922974576 -0.3360724937561051
Ni 7.161282204719285 6.547730021066399 12.599861004859713 1.6817079270648265 1.1728804407987605 0.07501553427494177
Ni 6.486096390972019 0.6776662940853071 9.486822678451219 -0.7812132404964869 -0.6779479673472324 1.507539599147107
Ni 5.710934606989805 2.178609150837997 5.549257739397072 -2.543027743205917 1.0852500459732857 0.6488273958321923
Ni 3.327786262024743 3.929305079668601 10.550902030093527 1.039576198085255 0.6154195097957078 0.1535617074109613
Ni 1.0250970382318492 4.473553296663899 2.833201839308011 -0.5460740293223498 -0.41644800679137955 0.2851181141954251
Ni 0.2863623459182699 5.591983662869502 11.101415445260917 -0.7136230521513387 2.0957095291982424 0.000393893004308999
Ni 4.168655082607499 0.49608859346786066 4.179387948190707 0.5088727376817043 1.1059507688557468 0.7471924034663519
Ni 1.1932558540676437 2.4655694279865292 1.2753910512196414 0.05504346202838908 0.31855145415320624 -0.4751455206325881
Ni 5.822859859154526 3.4560798816178937 10.322710918739398 0.34315614007576384 0.8213561312639597 -1.3518323061480526
Ni 5.858660991566481 7.939209420641462 11.088110541120034 0.609293599403628 -0.5533661921083889 -0.25828273917013583
Ni 3.1021232786535675 5.999286942783791 3.048224449583159 -0.5896670834219522 -0.05182726908393655 0.16852552780964525
Ni 1.609014255284861 7.639085313751687 7.103370696533288 -1.5430401060465617 0.3099886521848597 -0.48843812397643616
Ni 5.272884582094371 3.460984786241139 0.6262591565635072 -0.32198181999099384 2.251371827891974 -0.032559936213892304
Ni 2.098215428394138 0.12741260529606177 1.729617918696311 -0.8207496080282123 -0.1948363977900322 0.27466580851384953
P 7.162702291391159 2.4707078994965954 12.005591169115238 -0.19101213894793553 -3.2383764225281 -1.7918776406433978
Ni 5.4397634513903865 1.6235327729696674 1.7872809117147301 0.27796607653167615 -0.5618639451667549 2.9056003401350794
P 4.074172605550585 3.5058856845636477 4.599601871340925 0.9880230085983113 -1.4056938320531984 -1.2761603692360344
Ni 8.484401247859518 5.3346209816189525 5.383940031172571 1.0835456616876693 -0.5482666660982946 -0.3383083250651593
P 5.407456479605278 0.6994225824589287 7.6261260886033 -0.7377777950206713 -0.8137682916143727 -0.11073304228120931
P 1.9023649224568213 4.780114506954466 9.070040320002176 -0.3548788278293308 0.6747888528929604 -0.040829889532168394
P 1.2172478446819177 6.919325595323463 4.934545195450458 -1.4417818360250072 -0.10948631435830176 0.37486581247421885
Ni 0.44045482956214427 7.901296843572644 12.186867101314913 -1.3148516151586451 0.13718326605293793 -0.2201604783771176
