# total energy = -340886.53410128836 ev
CRYSTAL
PRIMVEC
9.13165492481543 0.00000000000000 0.00000000000000

0.00000000000000 9.13165492481543 0.00000000000000

0.00000000000000 0.00000000000000 13.36510002429690

PRIMCOORD
 96 1
Ni 6.30217513594658 2.438033159680661 11.560477007630155 -0.7812402370796804 -0.6536150470288227 -0.2478628293883925
Ni 4.7079251567983516 0.9003099509933731 6.413523796889615 -0.5143970099340431 -1.7230921464385678 0.3033503209327357
Ni 2.5510465213207705 1.8635424835734735 5.02609301800336 0.9567807627545779 -0.2593561747399727 -0.4461992699118832
Ni 3.725203846227598 4.81745935790316 5.400502742034921 -0.7059560225243842 0.1151126594061437 -0.7947323580288442
Ni 3.5339687283003864 2.9884071350693997 3.159255833324541 0.37500002405923805 0.04042159835015619 -0.7196548601677155
Ni 5.034034818311892 4.878239653239017 2.682669282580012 -0.17389219143819729 0.45544418554891886 -0.12444704943319214
Ni 5.158079219129544 2.9174176495013477 1.0841822155357737 -0.11934058144456221 -0.0008942296794952342 -0.9044917235428745
Ni 6.090905167062807 8.195085021833773 12.617014964140953 -1.4882645529675789 1.13205800746576 -1.3978319128066183
Ni 2.626492254503591 5.8057327146824775 11.233593894942494 -0.7163731040926501 -0.7394621247016298 1.208541898756112
Ni 0.7358095792582873 7.857286841986413 11.86986569576787 0.852978386154931 0.36459348401393343 -0.21800615103827617
Ni 0.6480890754939678 0.1997184253741783 4.84955347238444 0.051821355546665594 -0.03913090456319067 1.0274459904806241
Ni 8.53638975718128 2.7912455730807446 1.371232136173474 0.7329371790989183 -2.2727024710489503 1.476086008623516
Ni 1.457348208163378 1.546308790669676 2.9022043123574868 -0.17750767670359752 0.26784132939284844 -0.6382231379537847
Ni 2.107786858475542 6.928022239482984 0.6370142043726746 -0.29725783488175256 0.07408530915118855 -1.0184353023415815
Ni 7.561320773457197 4.330650832609509 3.589665431326527 0.5687025653551432 -0.6746674968237477 -0.15964288060803472
Ni 7.708797000872175 3.646306347474322 12.807187157432182 0.5557249221485526 1.8010009431009046 -0.12620902642962134
Ni 8.122807972918013 0.08419385862328764 7.07553773301424 1.3653509094597776 0.3725441063195778 1.0046163941806183
Ni 6.765935364150733 1.0576556710764689 0.38586629832969416 1.6879423380103122 -0.015967321962533792 0.21626037199176307
Ni 1.740831304378274 7.030214590009363 9.347724515020436 1.2073743608105723 -0.01662372459961008 0.17920049102498814
Ni 8.96076515759343 4.974806904317246 1.5341262498031545 0.6168719259715182 1.8667527926857335 -0.07243723202480429
Ni 6.659095001255672 2.366897567633437 6.946952160190801 -0.055965716732342324 1.4340335595381561 1.4503261260505926
Ni 3.5664408932965266 4.802857841640835 0.6244472208328299 2.310235949218034 0.4858068570011762 0.9446053037343087
Ni 6.03473635747584 5.913559296311954 4.781217645744364 0.39543669464703507 0.3187412015665091 0.3113955598347153
Ni 5.719904289823444 3.7000370051900946 9.20685686629154 0.19575016785355318 -2.402025617627521 1.19402159365275
P 0.19428143801796294 6.042808740450133 12.766129410453654 1.035923946044648 -1.625426478864278 0.3608851819244107
P 4.08726483327258 6.460527164404978 12.701603310258006 0.2782545543063724 0.9218993774963608 0.0306946008703794
P 2.5478961003636083 9.041023272934003 1.8682407200443716 1.4946468023448387 -0.531811862976381 -0.7723100244695861
P 6.417745360972213 8.325914242278008 6.306322733624096 -1.0786837056096779 0.31520053540310233 -1.9687337998059253
P 4.8381608196709465 1.087169179869361 12.874547723323781 -1.0238222776851076 1.166868430276726 -0.618356995157477
P 4.1803894504353005 6.607492019142852 8.317622699584955 0.5103981731872952 -0.4410686335535372 0.8657500839983026
P 4.906949576396459 1.326719884128006 4.298336645243974 0.06861914383029472 0.7224177676248332 -1.440935685974628
P 0.20754699316135233 6.097379510421149 3.485738066359972 -0.027380448895481878 -2.1012440858632266 2.003295339830879
Ni 1.3236881746851716 7.664042759970577 2.823324163748613 -0.4933461028010149 1.628767370312053 0.27758838147728326
Ni 1.8457174931143998 6.9199224615438455 5.17931031688433 0.8815798519417075 -1.0992602442094488 -1.8984467813549046
Ni 6.397637456776065 5.998492818986054 9.352535984012693 0.2584352055876001 0.5045082900654214 0.4704306316554221
Ni 8.86431661802953 2.5712092154466077 10.45408752042562 0.8291974816852493 0.5842142878374971 1.265474093166782
Ni 2.5673099987836854 5.6913496048001235 7.342318119163207 -1.2973287757835334 -0.9079524283979653 -0.38223459413446426
Ni 0.530717174947037 0.2469820450555679 9.206655969882677 -0.4120555341506388 1.0962643948059183 -1.095597964866513
Ni 2.1589697844607403 1.543039658198186 11.862849845271095 -3.2589241647724645 -0.16891942081395425 0.4790520547758459
Ni 4.277906393628152 7.306785023428398 1.832261999548086 -0.8851853099047786 -0.4189926275901042 0.44042842886637695
Ni 5.809221006872726 8.296236363696046 8.395581464209547 -0.930465779009133 0.5294058246380495 0.4164166393328119
Ni 7.052450169808463 1.0122622143284905 5.17690503897095 -0.21100837956420432 0.10087157610609726 -1.8575477291476976
Ni 0.9275935096478914 7.758984576468008 7.080629543813409 -2.0373501154227425 -0.30929753965510604 1.662935017332697
Ni 5.524897798402587 4.8931699090794805 7.33067708543512 -0.49292444188256407 0.9057767609028853 -1.4168531911041276
Ni 8.583846967947572 7.428665222023303 9.632561835664164 -1.669342720631254 -0.6411943047669667 -0.5704352317755337
Ni 5.035897675921345 0.6734367232994474 10.592910591611592 -0.7704002090413828 -0.9863217096364886 -0.11920868385238825
Ni 8.006753770180119 7.505215885454867 4.872020083053733 1.277471374737974 0.06833632248255328 0.8455715521678986
Ni 7.2669710078538285 6.63075947595111 7.150782569788197 1.5067533558003856 -1.3341168911461603 0.1190508181182853
Ni 2.4092410516286846 5.52005802127999 2.868190724006075 0.1742511174395128 -0.5808751961619351 0.1189304904903371
Ni 3.54734660279964 4.365990337259413 9.30120055938986 -0.5367373253024563 0.9813175715536778 -0.00846330027600478
Ni 0.9827121789158051 3.7609634070051245 4.176673780036839 1.0854981574283498 1.0969362240619625 -2.07608609854036
Ni 0.622807175604116 0.33618370325250096 0.8236697973433157 -0.08686677718657299 -0.3090964793878935 -0.5520528726136041
Ni 1.2244362170521443 3.3670146808806938 8.48429914469422 -0.4406652274675314 1.8066648262549012 0.20482564779226015
Ni 5.468683330540878 3.436716603101036 4.602098407602551 0.6380609013443076 -0.9909756634687319 0.7894276579864792
Ni 4.464274339467922 7.175590536786232 6.192264710657902 -0.2937721903259973 0.9679288089515976 0.04786879865682078
Ni 8.218599033325635 7.535560374848054 0.43227702143891295 0.03424143768137329 0.9034923357440826 0.631203769213158
P 0.36899465264722275 5.7826296276632885 8.042796412261044 -0.1046572684007746 0.4239155188130183 2.2039843397469463
P 8.660790292541913 1.923747484647588 8.154903000564786 0.7616178348630626 1.2412116210749915 -0.8482352150429908
P 2.0491433703975863 3.707570620522439 10.750966754449665 -0.7065342636253574 -0.3439873777278076 -0.1686967632801869
P 4.116659630551144 6.523225107279978 3.9323737020395853 -0.5564983099794675 0.1620638313447015 0.48984271763344667
P 7.216765168948098 4.364465350883048 10.705017179915338 0.6392184119875185 -0.7043645096675483 -0.6456754804667719
P 6.610039750873426 8.053434790275809 10.46054268730857 -0.4506205389080304 -0.3341824758222438 -0.6580157471996797
P 2.409560659551875 8.80644932062218 6.138429952075718 1.3258870470372004 1.4223748922533053 -0.3042070125060761
P 6.694534954110008 4.501385385177796 1.402626765885715 1.2984914286330669 -1.1181123439189453 0.2914504841713561
Ni 2.8551306310990223 1.6806354349591077 0.7306766760118502 0.74579320912598 0.6812286949810332 0.25903324418291523
Ni 1.8849379511173305 1.5729093015340618 7.203722426185448 -0.7567175693479677 -1.4961418988331265 0.9083866877219064
Ni 7.127512373483455 1.3706705393941538 9.44524967670274 -1.9309946333839392 -0.763854180392749 -0.6866460093418626
Ni 2.7620699355209393 1.8606112223350704 9.668848292932209 0.6945598648723005 -0.14704267534552096 -1.428483062033572
Ni 6.673596069313565 1.8323578819250432 2.6558322618524652 0.184560726895637 0.5369903218535268 1.7259717819792082
Ni 4.495805944004387 7.033154982902714 10.424203266441827 -0.013025208615074342 1.1150555593704925 0.46871159208178637
Ni 7.405342975285357 6.272250702681014 11.73827306896996 0.041046890638980926 0.05886952064269861 -0.26190568063470376
Ni 7.936229999014431 4.19073561549172 8.47550536097901 0.6768321085752343 0.11282772002670892 -0.5051181557352784
Ni 3.244120868586528 8.638070735030553 12.274561466600952 0.9756500888552552 -1.0866119593178187 0.8651361045633875
Ni 0.2994671450363931 5.268937510201854 10.489986795523857 -0.22189314479750818 -0.9853583172819544 0.2690474338858076
Ni 8.903363574588443 2.762033408901146 5.765744284498394 -0.9216276118922128 -0.977179381015588 2.046360289341153
Ni 3.662186295429408 3.1457820764483304 12.150894203132665 0.8740202944268948 0.3056352603121704 0.4707278511808667
Ni 1.5820044298625644 4.293959843027256 13.331379764918662 -2.3589984633337178 -0.3887615966197047 -2.907969868808521
Ni 3.1110635243349094 8.751184544875093 8.290171118479389 0.8935113132719709 0.1245213543145533 0.25521078511303147
Ni 5.971180039035701 8.360075763439582 3.8602683282368524 -0.954553416085956 -0.2723880682232664 -0.07219014901100469
Ni 3.3517008955324012 8.740500508585587 4.174281286440385 0.5298794218403584 -0.19750237465796955 -0.7022235520651455
Ni 3.954463175359513 3.083979035758264 7.164628898186298 -0.6980311112503528 0.447382491586707 0.08647391262352849
Ni 5.2156634352334965 4.697515070157294 11.565650090158364 0.10507327289227066 1.4158959693971809 0.018810190727967604
Ni 8.412820202420939 9.093685527020826 2.98500194093918 -0.9616203502350664 0.05016530800048135 -1.2412856688460363
Ni 4.811368544052647 0.5336940944601813 2.0593342973198845 -1.46252961009532 0.8323064596278763 -0.19944664286853392
Ni 6.009679096297717 6.282277259814244 0.43276556497864677 -0.33771131491110873 -1.615313558799992 0.5440521137963146
Ni 8.074501518241528 0.18307689739640395 11.329701823776823 0.28880559034934133 1.1298412023200994 1.2195205092548032
Ni 0.1555111706039833 5.252281371576164 6.026898658033717 -0.16903306357368308 0.09508556555193946 -0.9746668990063795
Ni 7.456288478241898 6.618614374869876 2.6912229037700808 -1.2739394503253156 0.15936083059124168 -0.8473535837689858
P 8.6201361647121 2.06696836085666 3.7019053417925156 -0.677049366792363 -0.3604048998538825 0.1950793670387737
P 1.8261300932503053 3.540981839300678 1.8577219667094296 0.17386905150974571 -0.520423418633781 1.3815285476609047
P 4.799168653041724 1.6763709520982535 8.569969591922646 0.677731223350736 -0.5688876847827558 0.4820864707267956
P 9.009436878467849 1.8196009599622738 12.789331119346285 -0.21396257709652183 -0.2546063187598131 -0.8906851566770855
P 6.31975357172205 8.21160418563524 1.5801023061368342 1.3354944882199773 0.18923962042854506 0.07290800101363573
P 1.9315093913536394 3.5542227389757066 6.245404550298519 0.31500924532790264 1.0649329316824885 -0.022569657770399838
P 7.198602307255938 4.424232032519644 5.924026912379186 -0.3203116313774225 -0.6351095320254675 0.4533880743508385
P 2.0873593463562043 8.97953070851218 10.468896325255272 1.583471217478415 -0.5838890432875945 -0.04257746835089441
