# total energy = -340857.27347654017 ev
CRYSTAL
PRIMVEC
9.38122318114627 0.00000000000000 0.00000000000000
0.00000000000000 9.38122318114627 0.00000000000000
0.00000000000000 0.00000000000000 13.73036839417795
PRIMCOORD
 96 1
Ni 7.836004557691803 7.22679729218999 5.6734571382053165 1.05125183465097 0.905584699496737 -0.7811754452800159
Ni 5.557127153844576 0.447973117278818 3.416486767210456 1.1791382487830144 -0.032163986327054285 -2.358702015139222
Ni 7.097101878870373 3.3283173392115835 5.271170578819195 -0.44522456470343963 1.7140578041504417 -0.16667896151920972
Ni 2.308334445281122 2.608965129927808 5.053667852723429 1.1320387241920502 0.5974127888056422 0.7137361806904353
Ni 1.683892072999485 4.636172453982966 8.255164185461046 0.12855207274050118 -0.33297791399118143 0.11727804248857868
Ni 6.051254952063082 0.19025871525876878 0.0878195083665529 0.1963366364846425 -0.15487759800890746 0.480993751883249
Ni -0.10143166350049601 1.8086998689346878 4.6697262756697855 1.2428473569062015 -0.6319869272360857 0.32116472340633717
Ni 8.700746967020962 5.136829583678539 6.5503885710806715 -0.9444201843066959 0.645223737641334 1.7990949843274435
Ni 8.519407918958162 8.068358698530881 9.926616756249912 -0.9030917578715543 1.7831029797745614 -0.7360083618250743
Ni 0.8198935946848838 3.662044979966161 6.366140405645693 0.7689657905877014 -1.5969000892898113 -0.5395367424244643
Ni 2.1049307598130627 9.114618399167183 5.563696824582205 0.4890593025002029 -1.2725929635997502 -1.774086635208564
Ni 1.718799605220989 7.447790771507908 7.409524761314003 0.4082035073944002 -1.110965962682151 -1.7383596141205997
Ni 4.7147401998456635 7.440079405884129 0.03895459199047924 -0.5783007505665395 -0.13680814210170633 -0.36137369152505505
Ni 4.801563422288561 2.014411335355849 1.3830596920499876 0.4270545786626323 0.2417929690452287 0.2549755291737738
Ni 1.9794006096770922 0.8726076270164757 1.3708594110357266 -0.7966100346675313 0.43162857118655984 -1.9413847183690112
Ni 8.879590609662927 8.799765779866426 7.258023632354596 1.437382421405731 -2.225871883848657 -1.407194584968441
Ni 0.401536061515194 8.800506896513967 2.923071941969331 0.8100934138659468 1.183080007039582 0.2274899221589953
Ni 7.756048390767891 0.48276526045266693 8.686902157547031 -0.1945731168263165 2.3967466286167687 1.941873485079972
Ni 1.399547192151921 2.8164496475690344 10.749835056503004 0.9214100965647679 -0.8583036550225863 0.15799094682690853
Ni 6.71798787937147 6.31957670336635 1.5005923492488893 -0.9504309092771502 -0.21082788812228206 0.7902069593546649
Ni 4.72837111742638 4.1468947482553284 6.658501541877098 -2.548803726457746 -1.8610485432121044 -0.3104074848898332
Ni 0.6517783191078237 1.9560413634444815 13.157180809650882 -1.4812022468041588 0.44801781117786066 -0.10912867390856691
Ni -0.019400369963469576 6.690932431124542 11.243057566664703 0.46130912897012816 -1.9500506215741258 2.0113038119576525
Ni 7.247117022045345 2.878647158622131 9.354472828103841 -0.05486605591026034 0.5151236036874225 0.617411343414756
P 9.091165340700707 1.3136527108242964 10.48659699015293 0.8257151795636037 0.5781583114514043 -1.255283011566393
P 5.666455931191904 1.4888564387922645 10.59844368785722 0.11611564674936131 0.647909254893297 -0.7150705832311427
P 4.405047253407531 6.385667422124881 7.264106417598461 0.5985073074214015 0.7916789159145011 0.3983368990129656
P 2.7038749669299458 5.2177707790580445 6.311191765903414 -1.9173834703584076 -0.4002104618865946 -0.3333432677504001
P 9.358436394984675 8.738647109502788 5.06690382079957 0.4309292311266901 1.5090933167874718 -0.5402993316221018
P 1.880944670234823 2.963894335536081 2.921437732855387 -0.0467691378347388 -0.23015564191661655 0.018307282949620085
P 8.141738627860795 0.9754220828441551 0.40301266607624336 0.10099987415384541 -1.2510987982817163 0.2455022995760159
P 6.759265262272469 9.018779821049772 6.7719965205304105 -0.20435102214868678 1.4263986687007175 2.1564487560598278
Ni 7.48481846021478 0.9000007993053205 11.875821084090246 -0.15745101516303853 -1.8979634139605828 0.10900268985366389
Ni 5.682394629725722 7.816904386876705 5.46509829054446 -2.1267854246674402 0.2133244292918907 -0.5368540533859787
Ni 5.747922475081058 6.41032127718484 11.863299027113825 1.3709913955750066 -1.9330348037424192 -0.320202616603384
Ni 3.379182332413678 3.2421508024057477 13.681735667801457 0.48417806314850165 3.492019863154012 1.7083666673029354
Ni 0.056151312580438664 7.930126371929468 13.368999452496714 -0.5368784788660108 1.0351487584415204 0.5345981674722664
Ni 2.0888607241518327 7.290186218613183 3.552719016985849 2.3643828675740832 1.8202816457073876 -0.5118256496624412
Ni 4.9968242058570596 1.983303198605914 12.545506282398394 2.272405251523506 0.49052097464739397 0.10819124969596207
Ni 2.7703784595174876 1.0475730719104241 3.5109378623889897 0.12959311241050583 -1.1928620261270102 -1.1169563759376313
Ni 7.754228433430892 5.989920513561551 13.295582936395594 1.5105043382023855 -0.11490979936671822 -1.148507411271035
Ni 4.062810843041316 5.926465918574652 4.676618660491914 -1.6620677842363956 0.22263439383890687 0.43310978371777664
Ni 3.5116921127492717 5.840533912353481 9.385132542375896 0.665776364981705 -0.5410701483498552 -0.5201858487016783
Ni 4.038616667927299 4.465556144251042 11.449946376620883 -0.8484211058015517 -0.21418574885092143 0.726090331380414
Ni 1.1988640614659725 9.444265207748595 11.518982799522803 0.3503662846709579 -0.451765451145751 0.09304179564903331
Ni 0.1499035066166715 6.598574286883557 2.0090002457064635 -0.8094776346588187 -0.2474378260358319 -0.3109193915292452
Ni 1.2927701075657456 5.9387177963175395 13.0367512306702 0.2606568958292672 -0.9025659672750713 -0.2669923511289918
Ni 4.233173859741803 0.7567148076655501 5.220533549345395 0.6024390383756398 0.7718513396656127 2.307021041825162
Ni 5.816386643356396 4.521486998081895 13.2709234526016 -1.067871445485522 -0.1359249681658046 0.022576085528303053
Ni 5.367082330479021 8.49798120474319 11.513985421824767 -0.3033094403924712 2.628381169071757 0.5285740727653735
Ni 4.222282259389971 6.762023341948126 2.2375146518134104 0.4281074454071788 -0.22417191352935584 0.8157285006645371
Ni 1.5864211620128077 5.131641767145755 3.383903902144149 0.14070053517757702 -1.1569300881170916 0.9529531614783718
Ni 3.795596076097666 9.170389772200465 1.5864070901777276 2.671533021868883 -1.023545369874637 0.7374903456872396
Ni 1.276306060522279 8.957267139303898 9.005748363643459 0.2631639785218371 1.3461661090012105 1.6659524640027827
Ni 3.5496016364544847 1.1369386058910873 10.035993377836514 -0.35090030279755696 -0.48426959442104334 0.41552575208742626
Ni 9.159723321209912 4.4362679648381045 10.126531564740498 -0.06940795828017723 1.0993561463573647 -0.6143800127876
P 6.866586457815067 7.903314835490592 3.4766804489481764 -0.4321998703089976 -0.5881784146915677 0.426416173747685
P 7.507558545703875 7.975024907057691 12.179193900332834 0.13975642609675287 -0.9269793631224293 -0.2554342139777472
P 6.727275290524194 4.129548866213522 7.42775904521052 1.3812727228963566 -2.8748720578132874 2.3088007594334043
P 6.126717512984817 4.31457473506725 10.942032870635781 0.07843073060407783 0.8453661210253118 -0.6224003119889152
P 2.9355255160150304 8.9988916274702 13.2591565841078 -0.28591464195479144 -0.8006176131650277 0.20121941849824057
P 2.9914751322926576 2.0765150341750793 8.09052371502638 -0.35591755350649024 -0.16689930506013193 -0.33263955681515617
P 7.610695715616054 2.2216894660825703 3.3912221945080283 0.16051011370433646 0.007171835158090874 -1.4668120395207578
P 4.911567647719724 2.9131325357912385 4.574231050328324 -0.4755748948605229 -0.3346416748468495 0.26316577829404997
Ni 3.5194503844899825 9.320245434577865 7.732545611817465 0.061256789927952575 -0.08445713930381585 0.11712943272585634
Ni 5.499592110814615 2.0187736042306135 7.893959879529484 0.14194854865206522 -1.1418310276921237 -1.1525898088705246
Ni 7.443991376036337 3.0482409150049175 0.37373949662072575 -0.29315204024349517 -0.6369627831841224 2.9469377654312865
Ni 1.5755389428843627 6.636174230217012 9.519100164825767 -2.9341524407411597 1.4392251310414246 1.2488894493352232
Ni 2.8704761130524106 1.6402975279219982 12.521986617245874 -1.8212702348729022 -2.7375548372856464 -1.9546223001052074
Ni 0.1323972056549546 1.9906205528474548 1.873027855818879 -1.888740352700418 0.8147579092211518 0.9786991600942242
Ni 7.0381033649921045 7.179928700150582 8.204087176610415 -0.4632266577078151 1.0155196713566834 -1.3967643907740526
Ni 7.8429372817744945 8.453420393656884 1.7722331773863325 0.10986220964048177 0.6915485888498026 -1.9323087242096721
Ni 6.1028610619127175 5.790316223565061 3.722069799682923 0.7546632579221002 -0.33478308552072017 -1.1314126605722774
Ni 4.275652039236285 3.424503022594297 9.235965461795073 -0.13058812933392347 0.6944364519205589 0.3978604735971793
Ni 2.1148748566028486 7.366230415384887 1.1522787823728404 0.07290080192478413 1.0143482767564014 -0.8372671460672613
Ni 8.136072368935293 2.018163824710485 7.019335289484891 -0.995456582058221 0.5562399141117581 -1.4235552857146516
Ni 7.019397205559242 1.097546848890793 5.143080292821025 -0.9728555568292536 -1.8982585766034985 0.8011572877185815
Ni 5.617654807134859 6.001065406944821 9.481987106986073 1.9283152867795628 -0.7783791134818014 0.6846238367055112
Ni 7.592027081076739 3.135308049255866 11.95159979224011 1.1952994319239092 1.3886579596168342 -1.9824226101469276
Ni 1.4544461114102498 4.296225062123079 1.12302156099708 -0.9482958652120184 -1.1321994181396309 0.34826157962312926
Ni 0.7134401623055457 6.765485013377778 5.154462531155975 0.0815394514363886 -1.8252135357913664 0.8337123388364673
Ni 5.778477119651184 9.21237074685546 9.331707413311602 -1.7825491641536204 -1.2930440323652506 -1.1953539393109285
Ni 6.304791895309082 5.5902053475056945 6.0982745817990125 -0.2659235435448452 1.6615728468778481 -0.45341481382371585
Ni 3.829950116139361 4.349454123618595 2.295140692710221 -0.07372766870145367 -0.8922638140181148 0.7993811696547652
Ni 1.181799616125764 0.9159113541689783 7.091076319089166 0.8002936541667056 2.0956941025792744 0.04697559741859006
Ni 3.4615025676310114 7.010325562544409 11.649819907728567 -1.3975205522137868 0.04922197025060555 0.31443717487451656
Ni 0.2818044455544755 2.55687119646207 8.416688213486688 0.9742578364934189 0.5980671345601893 2.8924874569022054
Ni 8.784905922022066 4.292678959682948 2.664213030696118 -0.9388390906744927 -0.21998410070025337 0.15960251428840255
P 3.1221837177380256 5.5047236400070805 0.5852185391799627 1.1564122679404083 0.6231006804900495 -0.6648651660213453
P 3.3758895230049846 8.243515520381917 9.906474331516563 -0.2710945462228234 0.5429290559354649 -0.9779399133306965
P 4.197056149703428 8.264745228905772 3.9541406275757267 -2.643773078146795 -0.36919010224568033 -0.8132381301425156
P 8.037850960077689 5.224534641119776 4.546138976897178 1.047264567868448 0.4019793808615593 -1.1391090007752704
P 5.933276686753317 4.137316519177619 1.697210595841428 0.3048608440399911 0.489861229576208 0.3505316066042286
P 1.8910670102689544 5.006167904350104 10.95299013955132 -0.3265334439174183 -0.22530139914810873 0.29436920048004783
P 8.934545816261574 6.359972251269008 8.497559987813132 1.524577785576316 -0.583720378920214 0.644857869661483
P 9.16349457301132 4.141228489329827 13.44889651771329 0.541771288181938 0.7584178398685261 -0.3228459677635021
