# total energy = -340870.2817870308 ev
CRYSTAL
PRIMVEC
9.21302919212404 0.00000000000000 0.00000000000000
0.00000000000000 9.21302919212404 0.00000000000000
0.00000000000000 0.00000000000000 13.48419948993308
PRIMCOORD
 96 1
Ni 7.512073662351046 4.657388933851327 9.483585437340132 -0.19205317861794022 0.01910535337088323 0.8181841612938812
Ni 0.2206317800413925 4.342800839692641 12.953151418091606 0.29920313153358147 -0.9456910805993196 -0.6075730171680955
Ni 8.227096856507188 4.9301038104164085 5.516817147273071 0.5265027920586417 0.840823495959952 -1.3128523253404294
Ni 8.691580935318889 5.52106435372206 1.537401210756615 -0.4912241713620056 -1.0926147138684732 0.5612769623150333
Ni 3.2803911675201145 4.9495064498558206 9.965847898547956 -0.2173844582938772 1.9679069330292558 1.749775312156709
Ni 4.2335895918698485 4.803268037784691 12.926587491075624 1.4102847938579905 1.2104558279493733 -0.8650566574757036
Ni 1.1813959439484127 3.752816877479381 9.55199125765053 -0.4354708277507855 -0.7497462802364572 0.3866124114871857
Ni 0.8709122542865254 5.818875521755784 10.626911302137767 0.5931668690450946 0.36590808906029887 -0.23594190958109043
Ni 1.6023668859736235 4.91877178453299 5.785504087483495 0.37105749447172226 -0.39098945750895886 1.0239243504806108
Ni 2.486983521155746 2.979383078363183 11.677208604855878 0.7796417822443089 0.16059213189518148 -0.07206467917673394
Ni 5.20738834945155 5.232521493036887 8.543319342041256 -1.2188959882969266 0.0648049122905271 2.088744667844635
Ni 2.7868307686368152 7.393078177545986 11.337608979096945 -1.0109564774660331 -0.3907439171570561 -0.20329224186686923
Ni 7.333267192151556 7.669349283372043 1.5593798131529415 -0.8659480589417214 0.15801717207915367 0.43823784897296136
Ni 8.353241651950892 7.032249889965451 9.267312341400729 1.1198396110226974 -0.5816673530459273 -0.26068080708866714
Ni 5.536072378245708 0.9125468544245362 8.651772357563068 0.4550330661534292 1.3480494420668525 0.7529043662494647
Ni 3.5347997551174313 7.00689563367995 8.54455941576801 -0.6101973421648201 0.32904052660998817 0.5135164071013026
Ni 3.2870982527584305 9.307370592247151 0.14386145054436497 -1.2194253784378355 0.18429950281445032 -1.7621371761561717
Ni 1.7360571523104331 0.17367020643525788 10.08553436054103 0.0647537473376175 -0.087414679270243 0.0671495012633037
Ni 3.284352770064724 0.8710108336986819 3.4846679781726912 0.9130658383651308 -0.15254766432415018 -0.10090834288130363
Ni 7.776229634813936 2.1622334558186775 10.30439631767819 -1.115412428489279 0.9955257447332596 -0.159481415329506
Ni 0.44228067850354047 1.629628239298041 8.837409367591798 1.6659280385227504 2.7130828202862114 1.6134525943318536
Ni 5.791475972993764 0.899531608111118 0.5081492305795532 1.0674700962820456 -1.0154541082260704 -0.46171330638708225
Ni 8.606581528164082 3.667587144595237 7.61269376046954 1.0448963247465874 0.2263843477996424 -0.40800810355414246
Ni 0.8477672823968324 1.3492296964022517 4.203308207582355 1.1573293804380391 -0.2598014898075074 0.8435938596162375
P 6.73980070491071 2.7789444156642906 8.45399994550699 -0.5585886168495928 0.9951951008667183 -0.5482412121769977
P 1.796466984601141 1.962983273883168 2.1435558817752196 -0.9360206473890912 0.7900357238841232 0.34275170554849355
P 4.873148864065767 2.675813767096015 4.9025043389213225 -0.47059749625058955 -0.3220574104239357 -0.3130816892878866
P 1.2373190310316209 5.192417177044597 8.045900526540091 -0.32663217427881164 -0.3391907276701126 -0.36438728154039823
P 4.71248284830892 6.273354250885052 1.0798683624563281 0.2570843479866604 -0.5497141971780984 0.7612216278659084
P 0.13288965410163142 3.1219178527065625 5.250949393989743 -0.5406351176949656 0.6210859640528659 -0.6234158977376231
P 6.44459682413309 0.1920962647822787 6.827238800887746 0.9107742141174766 -0.28504458064501226 -0.572337076783937
P 7.770904503951648 3.48965591216723 0.8369198618479413 0.5424955679424721 0.34090231104458063 0.45426122098441124
Ni 0.6375959756790437 6.715321686396694 4.423262829979494 0.02109358744550561 -1.5631358483551725 -1.5697160726758514
Ni 4.105325799716236 0.17169861819212667 10.405015494493767 -0.13911493585801202 1.3331087615966202 0.4876665359177344
Ni 6.442035602022854 4.883771486702824 2.0313006491134997 0.529252843999953 -0.2906858380911897 -0.4223867408733177
Ni 5.308998848206198 6.83276016927143 3.1197444991245313 2.065156853222366 0.12156047191401646 1.4455873258140266
Ni 1.1960170212467736 4.351378169853178 3.381553913056928 0.8482637542880811 0.795751543321978 -0.8596840803098807
Ni 7.000077992091552 2.763807408732213 5.71941718661607 -1.1458314071007685 0.6513715024102846 0.21391089792298
Ni 9.074327019303205 9.037640737134288 0.539086582544201 -0.6236364983888615 -0.4635339045355888 -0.5598428009716682
Ni 3.962892368693766 5.1261939233454035 4.349167042851536 -2.604318985916231 0.6322836325408981 2.1691482059043676
Ni 6.449286255982407 0.4200717503778763 11.16178845165259 -0.6487302081326957 -1.088283690593287 0.3592985541635812
Ni 5.643192268446114 3.2515820252945478 13.680259342614642 0.39207112060891186 -0.8295633496651005 0.7766667587763849
Ni 8.907082900716471 8.717561677588188 3.074248718459902 0.1776470304949392 -2.0171774971296097 0.5849570795407926
Ni 5.850761815725303 2.048093237388057 2.804511492923699 0.062489119673156894 0.8785184394075645 0.7480282691040858
Ni 2.759329876553887 6.923858601739101 0.21049929055636574 -0.8945852630624399 -0.6892777905377548 1.156356989222441
Ni 4.5320364589165445 8.55508069508416 1.6767335361592821 1.0277406389029076 -0.869012299689342 2.801891551690504
Ni 5.984968011695829 5.922291774228437 11.134752817542923 -0.9869626856545971 0.017262129514557367 -0.9034913073028181
Ni 3.8375306807298095 2.0614244906021266 1.4431731122787026 -0.4582181487496302 0.20291506103310863 -0.5972268980470812
Ni 8.71909104043099 1.5979077798536447 2.2997434440508244 0.30987063854975666 -0.8483668555248486 -3.719317209686227
Ni 1.810258889273886 8.974982925725243 1.9861144262291006 0.06825764672581794 -0.970121188617226 -0.07299310452827429
Ni 0.8730966635035646 9.08084984395805 7.536791298320657 0.5635207640438876 -0.06062995497723106 -2.5176848935657543
Ni 5.424253843166813 9.209519009395297 4.804595635288594 -0.502602074181644 0.5827037647302417 -0.45161015651480935
Ni 4.081417989010976 2.838985726788058 7.1313341761207205 1.2285324829454263 1.3360182219339314 -1.4504647085109859
Ni 5.109693388095646 7.658293648363831 12.920910422498906 -0.23928614346297503 0.3096958035347892 -1.183510152598465
Ni 6.406712848171615 4.64280470866966 6.896439705615816 0.1338410890535824 -0.35573911894709703 -0.5390950269013555
Ni 5.332998789203192 2.644203864001701 11.1783608485299 -0.373880308632498 0.013733290425692476 -0.08383904610384271
P 8.070254247857347 6.289458625880348 11.243085142382563 -0.7986520047982245 -1.2720139511678286 -0.2848314361929417
P 7.573902301134474 5.92014513843101 3.618754404763962 0.44906270750260724 0.6774170345444268 -0.20669972488652147
P 1.1266797636869343 6.5450004160660065 2.074611099258172 0.8353817561190904 1.250544211329827 0.25865066403251585
P 2.924353655109805 1.294559581286641 8.02210050827616 -0.2131447091809168 -1.6986944343204937 0.5533150271554793
P 4.663838054272784 7.396072412027378 10.421654225181129 0.5950399176980914 -0.5479041405525531 0.20508301521870484
P 0.5040743077761094 2.154595854633837 11.10688156168722 1.1937791386246408 0.5521474892099394 0.23374387348850714
P 6.679326381415788 9.325796650594173 2.8869939005083034 -0.39278640150838157 -1.5075588824208164 -1.0633756144976978
P 1.5586510625453167 8.791422532472222 12.583104573520057 -1.2455608991826226 -0.7156771064668901 -0.5432095632903612
Ni 0.9333627725391656 1.881991534418838 13.31645616791398 0.8923543168493921 -0.20385505634887474 0.7171678320798036
Ni 9.233850619442538 6.677926000981414 6.899959082760097 -0.7347670332188057 0.01073075615394281 0.45749438320972824
Ni 8.18119754516476 9.29309039702821 8.99619961060892 -2.291518575314189 -0.6608534737587909 0.4059895304622169
Ni 2.9604779424991396 0.9638578991034851 5.760476893733653 0.39356493154561895 -0.8025264001519663 0.14672822942889568
Ni 7.4485774652872125 7.818434521457788 4.999240223940265 1.1175112199998367 -0.3895311277958775 0.10035735547384006
Ni 3.4366072901861573 2.8871053781613023 9.35900501425009 0.5298393126310423 -2.0091176029396105 0.7087960630763406
Ni 6.815734491358783 5.9385896228363775 13.504964879136093 -0.2691304805179171 0.9508271162743044 -1.0815060055498211
Ni 2.428278099262138 4.355266068164401 0.8370506868622052 -1.2137470971061355 -0.5008550095835502 1.0442170392913759
Ni 7.784853030120343 1.8911400723881338 12.8949665323463 -0.40471940550054175 0.18622860151636314 0.084415487432603
Ni 7.08943516204543 4.179555175767209 12.094746772211039 1.0915657037786684 -1.249170213800436 -1.16274592346792
Ni 1.3247138257715405 2.2536082791615537 6.720053498180208 1.1698308553391594 1.0523790062768779 0.48702658834089024
Ni 8.859377835656034 0.23555320209080993 11.50179252939224 0.14762914397661026 -1.3924477656765697 0.018080511650794665
Ni 4.406435232194077 4.0784882457338005 2.347315841491163 -1.4017944969987923 0.47308298167660456 0.0630179955934334
Ni 2.7018774266278758 3.140214928645154 4.688779566851311 0.7331269265122212 -0.9876121463131379 -0.29815617832630587
Ni 4.298034730938554 8.795789508300466 7.052694523004387 0.054394515590480516 -0.6400573629490461 0.33478025730724276
Ni 0.0876638151917862 6.70059005274825 12.849039581916351 0.8897577597668096 1.4576684253482768 1.0765489186548622
Ni 5.99105782397952 4.554507037070736 4.312867707907905 1.7155143340913102 -0.9003926137728365 0.6977212933194177
Ni 5.54620671033657 6.747871318466705 5.819915672749473 -1.5399599244593414 -0.7598946815243688 0.19621193798132014
Ni 8.305978812290785 3.413445734843952 3.2292634621217187 -1.8070715747750168 2.492269024595811 1.7385421624450508
Ni 7.627485278807612 1.0765056068079968 4.469823636816581 0.9182867204444378 -0.3537737676906101 0.3376915174167668
Ni 2.15872329170357 7.27034220289648 6.466833391346274 2.1536344265394844 0.9176264611526196 -0.9460034696334161
Ni 8.45763448551594 1.405226487718848 6.937067321665163 -2.329053339034853 -1.1675623710199567 -1.3026926111986081
Ni 3.0266551310524648 6.6825877937432105 2.9465404719654527 -0.9920020478507173 0.44062203293442176 -0.8246288884779605
Ni 6.118731982266027 7.594659255862394 8.814338099935494 -1.39663172185093 1.6554309956461684 0.7452928724507939
P 1.3522147178544692 7.590605523026049 8.801932756153363 0.2089404412915821 -1.6746607904100577 1.7020049867509655
P 3.667052788903173 5.413898398375787 6.97235598730846 0.3897144474512772 -0.2713645120547584 -0.9185913961690503
P 3.679057365916257 7.848487422621779 4.7199684345123964 -0.03192281685052567 0.3118532161974242 0.3703216447469622
P 0.4120389102414926 8.538856550709607 5.297105748846113 -0.19942581693292752 1.8277586708107232 0.813814571471276
P 4.125539185722919 1.720026481548525 12.748434224644535 0.8058456943331863 1.817283482311012 -1.6000381206981606
P 7.136292628421904 8.4215470502433 12.968765659934872 0.7842222025261397 0.8804642502800257 -0.2736044571288707
P 2.2979045234277917 5.10618322398054 12.244839915688367 -1.7101247876446224 0.9522203970774054 -1.0683774385876634
P 7.166354742615069 6.641396340308446 7.3507627345520525 0.1233594727959682 -1.1989653108112706 -1.2796377862616737
