# total energy = -340895.89475788124 ev
CRYSTAL
PRIMVEC
9.05460429643118 0.00000000000000 0.00000000000000
0.00000000000000 9.05460429643118 0.00000000000000
0.00000000000000 0.00000000000000 13.25232864126207
PRIMCOORD
 96 1
Ni 6.298545595441437 1.8159913984711935 11.253095478600788 0.7653814156705527 0.47317682694199154 0.7943608336220385
Ni 4.582308770349568 0.3959596482520193 6.069208771853694 -0.3694778086894282 -1.251671897176367 -0.6851655681415942
Ni 2.456948713563828 1.5842750249257394 4.796348745769297 1.1257428638810096 -1.0551123460476408 -0.5436397088492444
Ni 3.382120996778782 4.454955763670782 5.185397920171529 0.6567155403310174 0.22143574554511544 -0.8704809138150686
Ni 5.1884692418825455 4.467623154807904 2.489012877605842 -0.8870295622023692 0.6146764609820962 0.30727048192274825
Ni 7.487532823739443 6.263133038802921 2.6268502103730293 -0.8007991330482145 -0.8267909291262857 -0.4703861515707318
Ni 5.076391352321933 4.6012510021285955 11.412069879181054 0.0730560965557258 0.20537740653067213 0.7869102908812642
Ni 5.527319691149535 7.9045516702092735 12.599690767720235 -0.4053035601387859 0.13886810995452856 -0.7838979864175015
Ni 1.8936527378443857 6.51955942693966 0.4486882297730462 1.1288101899524237 -0.16275905763951326 -0.7044953788184576
Ni 2.7547636970456595 1.5116480454326329 0.3505734451963908 0.32236002926601903 1.4501685174268057 -0.19711208119808632
Ni 0.6417604584763824 -0.2592070570561164 4.375163875952654 1.0411751671412584 0.9337840447490885 0.5275379181913753
Ni 8.624981245495276 2.22933407567607 1.3688994954011315 -0.025879438869923173 0.7247880676292228 -0.09575559503577057
Ni 6.890517502348347 0.7672826242059718 4.719578379439631 0.6615774964090091 0.3228788778839665 0.6317784107697055
Ni 0.6379846885663181 7.202946616848988 2.383100267977514 0.23617613707908355 0.5310631577358145 0.6405746689050968
Ni 7.462533061816931 3.730822855307523 3.719199460023231 1.6450607081554378 0.10253790806492663 0.9557479506146894
Ni 7.505098755695138 4.1338613930456045 12.539909555065039 1.2165349442639177 -0.5635647299079456 0.5604992036087443
Ni 7.881851777728384 8.882340257854404 6.956756458648288 -0.14810556939239652 -0.1703103876242099 -0.2466526111303752
Ni 6.743280585064043 0.8267659403862504 0.3207394301444226 0.7180371220586343 -0.632137336771021 0.4094085834460949
Ni 1.6164822517125463 6.640157698959195 9.369157425496228 0.4778482642757319 -0.2713871377625778 -0.47337840142983634
Ni 0.17923951001843175 4.89433948226977 1.4917750003520356 -0.4037081906272079 -1.1811046284807658 -0.6637871024658181
Ni 6.318275577777241 1.9468123185206143 6.929656028574373 0.43407060496914923 0.29415579891766114 0.09571882826056419
Ni 3.5734628906384414 4.147189770282091 0.33334887181529904 -0.6772517126111562 0.20373550005187493 0.39205749376215704
Ni 6.110689724160615 5.609336295095248 4.58315899767464 -0.7987558773659404 0.25072498142753596 0.8462590651532264
Ni 5.305065378889494 2.8789747561014423 9.24156447180877 -0.3211824640181501 0.08904218757133697 -0.1353544403743153
P 0.29487042622822696 5.598552261611108 12.468771152486116 -0.19601396303790114 -0.2354983942857686 -0.303001165123433
P 4.03865223092492 6.113768289554912 12.767690797668253 -0.1729866489047924 0.6972518098821668 0.11234795217681297
P 2.3301752015474984 8.30309006970922 1.7054292496370673 1.109366222295199 1.157589061857329 0.03823487511148255
P 6.276135450291775 7.886677881714149 5.709977314216047 0.367118050208 -0.6657920487109887 0.6504633887737183
P 4.8021002302941715 1.128203670968841 12.621981392095767 -1.517577185888767 -0.3999608077696338 0.5500489548096978
P 3.984849773357529 6.1549667382138855 8.25312585882019 -0.5047198918555953 -0.5813752757268053 0.0940355270208703
P 4.897798341036304 0.9553150602667618 3.813171763223737 -0.6979778894149141 0.8879186496755418 0.348528974351903
P 0.2211650433867064 5.4724759541105445 3.6505393025867177 -0.3425056509759585 -0.10933204816862462 0.060886551072727405
Ni 1.5965077950660196 1.2374384148417792 2.5001844481455 0.09523751774877146 -0.14161739056489156 0.13867553432774826
Ni 1.6542127870008863 6.545401267043553 4.847728191279294 1.732487728720855 -0.2473272685998966 -0.21038334438569573
Ni 6.039267007012924 5.493292488938454 9.309667771093078 0.022570943321980484 0.7375754492018781 0.2935094235829139
Ni 8.514678058338434 2.2332366100435466 10.293851625614655 0.5341088865406737 0.4695078627308366 -0.3023851288059889
Ni 2.127668980831462 5.362018838683989 7.035383018818633 0.07661424622062935 -0.08980734787213565 0.8832472123418014
Ni 0.5064656585407201 -0.053103442130803036 9.156299075911663 0.12735188178481294 0.3133868792331312 0.1724657434043159
Ni 1.4616304123794075 1.1665589739401412 11.510880057352656 0.30194932682015097 0.8538998695279358 -1.0007677098584893
Ni 4.16656662305796 7.027160532834629 1.7773092242918518 0.47057718453561537 -0.1726655181199478 -1.1054679156820575
Ni 5.643997319593392 7.799454880410435 8.098405311246514 -0.9803369528079633 0.05168714396164646 -0.1122798179430389
Ni 5.254495414986116 3.0127384224836473 4.62026567074043 0.05967170482901982 -0.3860614240797222 1.0451315806858452
Ni 0.7772861508166169 7.494984762914462 7.060495963292405 0.17183736579169762 0.21482004000081067 -0.3272099011591526
Ni 5.2597742491769255 4.489462859899211 7.273686616847472 -1.3466898427151646 -0.039345334566841916 -0.4589935934630741
Ni 7.955637746546402 7.221680592733695 9.056773584016092 0.3781519394246584 -0.14620912370063208 0.06938558968267405
Ni 4.523788864045622 0.3533695069427405 10.508182253826023 -0.26712322027990126 -0.8531676193476017 -0.6911133010845968
Ni 8.317604600082921 7.080057529991932 4.857097895602878 -1.4289774851714874 -0.18078171946917898 0.49951135107146233
Ni 7.03731979863581 6.1735558404329804 6.924633439679618 0.6369283304017611 -0.4997921155366747 -0.29128799045156284
Ni 2.4749039934958605 5.292180677253952 2.5195721664462902 -0.9452370237810365 -0.9060171590484655 0.3864452897817022
Ni 2.449406228347801 5.231560102798603 11.473759802380716 -1.2159060524306673 -0.5154169665581252 -0.1204988634187215
Ni 0.9568362337557086 3.3804096766037173 3.895866557016605 0.9386876526982931 0.18544518638311933 -1.0004396370951094
Ni 3.6856765992605673 2.67795349045795 2.8268148037179506 -0.6801534596389834 -0.01197028498799874 -0.5811112234321412
Ni 1.0417684202219022 3.1591694800029737 8.297110409161006 -0.360059857809638 1.0383659798272376 -0.6144363199468321
Ni 3.7869885645452412 2.5183842023882557 6.89250951525054 -0.4195888664132064 0.6702973927805101 0.4114955478821106
Ni 4.14553277773163 6.751583657024543 6.0503507478928045 0.5413108036057516 0.18572440818643499 -0.2894995310925724
Ni 0.9303152983442501 7.552264188456588 11.575352460392516 -0.5871885399744726 -0.29391694343397773 -0.23669447147639877
P -0.03935855310567702 5.628206090041469 7.857795505553183 0.6760589778546356 -0.21210135551806697 1.0324578418729187
P 8.616759664971683 1.6007091313688246 8.003624431899802 -1.2421053365338544 -0.22981908451280422 0.6206846148493891
P 1.6961808770084352 3.34198193679961 10.466861568011687 0.20008273379063607 -0.7281323015111073 -0.04662207073391326
P 4.035591774738824 6.015942346849074 3.7176094715431183 1.126890861442524 0.3429671639934093 1.42751555591398
P 6.847752607179921 3.802164081018305 10.52506546863251 0.9042256143656814 0.2670484011779078 -1.3612615698817523
P 6.1994429535573765 7.602725497110756 10.358629168812714 -0.453521000384277 0.8949434177328071 -0.7725262542454502
P 2.544153605659341 8.308758251876368 5.827671774700431 -1.2436348858045034 1.3528874868854441 0.6200508379201322
P 7.039465739807716 3.999708378687063 1.6405584440167693 0.9518876963283348 0.2689224782721691 -1.4414049123015626
Ni 5.600942677093737 3.0205525458227007 0.29396677673895977 -0.3297030998946516 -0.2619205930330392 0.06732407916795502
Ni 1.509846179216559 1.049021158106702 6.9614874892909935 0.12219090640916375 -0.6351756093767126 0.2289647069323089
Ni 6.696685592360948 0.6634281260897726 9.122253764492378 0.755526377253344 0.07218526391499827 0.14686012702106968
Ni 2.701097058539782 1.6049557406921344 9.160379985979926 0.24369867070837387 -0.43213096474427515 0.4162965688151798
Ni 6.331594900409626 1.9669678672491588 2.6114238813663713 0.489863286458737 -0.04669560428432603 -1.2684709710115767
Ni 4.148719998375139 6.705178811007567 10.564730067356798 -0.10481667679677431 1.2139975225540447 -0.767261406302085
Ni 8.27363544256908 7.30507349650274 0.3306189086788857 0.3366437928785428 -0.24607796957382783 -0.07104549388360024
Ni 7.5680010903839054 3.857931387675585 8.181218720353105 0.630653810246959 -0.3936916869314704 -0.11084154283461556
Ni 3.13529248898897 8.457670270919333 12.386593376587408 0.013727891109053777 -0.3546271168298408 0.6489518372251984
Ni -0.005016250671883931 4.893316312006371 10.085750565024691 -0.33808772441392093 -0.3348818158821136 0.5364917849505534
Ni 8.659741870638529 2.3643201136118925 5.893867268900688 -0.27331752201607123 -0.293715626056449 -0.18181118917495784
Ni 3.6737335764515153 2.748081399219215 11.38879954664181 -0.5023868728470444 -0.6761667070770936 -0.007669343619799695
Ni 0.9511408877762592 3.3585971353247133 12.739264773553971 0.06214844850428652 0.18130905272755873 -0.5798249005205498
Ni 3.0641233007561044 8.267541694009193 8.136333236904253 0.5141018472911275 0.08897970976451772 -0.10702551152263502
Ni 5.954597404065656 7.910500545103547 3.5290419083799662 -0.6106082044499936 -0.13111366282009032 -0.4497597335696319
Ni 3.487752008219573 8.384635834241688 3.8080966576251973 -1.1005884761025693 -0.5179564451505273 -0.09384809360041256
Ni 3.210490976046725 4.158924537196823 9.015214762113903 0.47959172932939986 0.8131373428985932 0.46315569526056366
Ni 7.395429390825357 6.327085707567392 11.555407883939523 0.2117776536300611 -0.6483622832703156 -0.45810604865179805
Ni 0.8540827754981757 0.008390901620279494 0.2837721979817863 -0.5314377674664138 -0.23066960543855758 0.7280860216542041
Ni 4.457807963962557 0.5017291951355533 1.6801967843891632 0.2759829846633763 -0.8149803096446029 -0.31079623568781956
Ni 6.042843575632769 5.767782812256434 0.48439415558443083 -0.08669117084065715 -0.3290487541401043 -0.14086919954495739
Ni 7.855095422610303 8.801989701063253 11.237974289752328 0.32708391710424956 0.07211018770268872 0.08710074757425
Ni 0.11842697795614497 4.713021035149778 5.768049017616999 -0.8167307166768062 0.5362981808825086 0.5722231769138918
Ni 8.064618961504516 9.017869572036279 2.4238505137334956 -0.12198650370784153 -0.3758469454405656 -0.2705281321963921
P 8.781462913566571 1.5836140388263755 3.6819343313856763 -0.9560315432933794 0.3058820862156538 0.17222431681747113
P 1.892584294560483 3.344254642428929 1.5622768642626672 -0.05077131701559642 -0.9552437572847613 -0.02583341612333615
P 4.674801551239991 0.9845614315125834 8.25290039917808 0.24368067298624488 -0.13370842013046005 -0.11975607171542603
P 8.56979343350045 1.441257553152442 12.445142257624477 -0.5250331494916506 0.7667546418689956 0.45327854535616774
P 6.44067571601285 7.834469034468513 1.2929105414053708 -0.3977062074075022 0.2677523692234679 1.315056789190916
P 1.8750817448334942 3.186586821220419 6.038330760948894 -1.0648408861893146 0.499772575152649 0.9333302450411217
P 6.844547277328212 3.911136241372318 5.963242740061171 0.404516031240484 0.20417078781708062 -0.4640280705631879
P 2.3797763228120834 8.633718938452619 10.309410151841186 0.2136841266241546 -0.5960421337103605 -0.6076249534519536
