# total energy = -381167.57833631535 ev
CRYSTAL
PRIMVEC
9.22777596098310 0.00000000000000 0.00000000000000

0.00000000000000 9.22777596098310 0.00000000000000

0.00000000000000 0.00000000000000 13.50578287679199

PRIMCOORD
 96 1
Ni 3.4614678744768925 3.283639407906612 2.6336819453965683 -0.24748590566494794 0.8619772472194316 -2.146212937264433
Ni 1.3122727623108825 8.682008185535146 12.73843782457877 -1.6483962002865737 -0.613498381513595 0.6812294663119816
Ni 2.032454521092344 2.865787266178863 7.721957778228898 -0.027045177043250195 -0.902657241437297 -0.6262243137206956
Ni 0.2545242019785224 7.771254401866059 3.5552220761454123 0.12403798692023155 0.44726550639286844 0.05146474353819524
Ni 1.7000054439750434 5.765818808183699 9.354497108105626 -0.3144304900062972 2.2858297524595277 0.07176000345212158
Ni 4.047108662753725 6.224227024353687 10.470263462940986 0.25490019585114815 -0.0631681480180525 -1.6727432616723708
Ni 7.146755449885867 6.7674661830373255 1.8857716432495817 -0.3861501271387866 -0.46106847371423176 -0.9073150519242824
Ni 5.775434150520175 7.444794151213609 8.155871786435409 -1.7448292810053434 -0.6174308837987817 0.18320678397090384
Ni 0.9686488487545488 5.526920921668314 3.5854070534168585 -0.28409687201976236 -0.09936388121231919 -0.1647274942197937
Ni 5.612933019478576 8.53340408478024 10.388390945334317 1.4427886800229668 0.31089933692458716 -1.0010939828496568
Ni 4.9740571928724435 4.027268944880958 5.8727327408561045 0.07329340937751248 0.876368225833781 -0.1262915588410986
Ni 3.6735959835276737 8.52766440826077 9.355266704603574 -0.05141332147496952 0.09209305858251882 -0.48649539842776857
Ni 7.288817057630637 8.492755732580454 7.0338388490849795 1.5784454821290492 0.09636186116120178 -2.3401371076528408
Ni 8.57597181433702 0.25279768513480383 11.449756793762548 -0.1349086110861483 -0.5324528389944895 -0.3680709010395726
Ni 8.56215783403212 6.6768125140224095 8.592608571245306 0.23137948702138864 0.6562679112706375 -0.5117001798281704
Ni 6.634558528841292 2.1383801589814126 6.042122406498643 -3.6973502184968323 -1.119451631555659 -0.9127650192952602
Ni 6.214390215399096 9.14144991258967 1.2058395967553008 -0.5502433302086911 -0.3732712142935894 -0.4596304557161245
Ni 7.950051784890592 2.486285760487962 3.9244558357539745 -1.2940333928617134 0.35506626124978846 0.1285009077875916
Ni 3.1957356160666195 9.309995236750645 11.879659487848459 2.855156067441599 0.06377235726095469 0.07066959860142022
Ni 5.142288772657758 7.969513163957413 12.485190746764708 -1.9231702522435137 -0.40668269987449956 1.9263797603197466
Ni 7.125171682395447 4.869303482504231 3.487327793252075 1.8318431252927418 -0.2914026616525562 0.04825857789607173
Ni 6.898777432027782 4.874554086908699 11.786564149368829 0.5568847467846086 0.6151364313376503 -0.19270623882090684
Ni 8.320454703687284 1.0127391613108667 2.126323147180223 -1.0401878635273247 -1.2313848647925567 -0.7091627023871399
Ni 3.149430637329156 4.694252576436138 4.459501652344949 -0.6014707609250997 -0.558952685057231 1.9725858265621643
P 7.199298405033559 3.3903124956318176 8.535330844357837 2.1842290114968903 -0.8449580869536157 0.6934555760645283
Ni 5.354933637150806 3.9399003640347425 10.248592910982191 0.8610609060527493 0.9159272190733257 -0.8913829540750584
P 0.15373474407456142 0.23718244300257257 7.579485534463039 -0.5593357794282624 0.4243934868907014 -1.1435644654434627
Ni 8.48905539450279 8.448600825593852 0.6963381090086966 0.8396685564199022 -0.33702791569083895 -0.4722360602952771
P 5.784191309711457 0.7006078008504313 12.083501977049027 -0.09965030210448644 1.1282676871853923 0.6014198530825062
P 7.918280552966899 2.946032004142392 1.5179146677836322 1.8247396814787415 1.9340588741315596 -0.21585979411923467
P 2.2825180162710077 2.516395992775795 4.193383672908126 0.8357483954298895 0.16520880473158644 -0.3894588797970454
Ni 5.269659761400925 2.910468156383487 7.922856606963692 -0.9854578189742965 -1.3102783939656661 0.9803770620172794
Ni 1.6831462976710685 1.3088584852816154 5.873367611828033 -3.1591239673536755 2.9073875139424894 3.3574737776136048
Ni 0.9165340624018783 3.2227453157008474 2.3728311803605715 -1.011264238514439 -0.008254012478676107 0.2553992469747537
Ni 8.40842308995756 3.6391025577563223 12.983932647981245 0.6258299064957544 -0.060250717260941396 0.7196792856477476
Ni 1.473325132558981 3.7278276216384896 9.800768030825356 -0.5199917304130012 -2.7040816452288654 1.1727511143097482
Ni 7.136152735543629 7.025354832056038 12.845160742293054 -1.713521214920681 -0.12734853935070328 3.6300572496771286
Ni 8.581739174183754 2.3847894549611857 6.592415276969232 3.433814458457873 0.2647338941121183 1.9655913975222021
Ni 8.886329596297388 5.472836927969574 1.219215257711848 -0.00571633365848693 -1.6608853338925202 0.5237864215687431
Ni 7.588304519751879 1.4451896442826702 13.16979943001151 -0.7350346850578955 -0.17131517473964045 0.9219811385768896
Ni 2.8104759783047384 6.604688218723084 12.84996841346129 0.18806256940130836 -0.6607364885649524 0.3349818317950876
Ni 8.316680543403582 4.694852381860198 10.017319935572976 0.47461587338136324 -1.2943293268355773 -0.990811627087042
Ni 6.6706391320424645 1.7517455826320703 10.49944907209819 0.4620056408165205 0.6101927141791297 -0.8318092082764836
Ni 0.5825070356305113 3.5185785786231984 4.873304646071502 0.006479437076756583 1.05974933059902 0.9957851690422335
Ni 1.341654000314088 7.131963325350961 1.5505717661797829 0.3615302717075774 -0.020751887835370714 -0.9152803295179462
Ni 6.387604794091988 4.756955312689837 0.6204959428577714 2.342120970852089 0.5160420017366338 1.2950692903253955
Ni 2.094575907473493 4.0357861819026155 0.5176791426204863 -1.3431522618755511 0.24399871844729593 -0.35221567917487084
Ni 0.5362426591063684 8.676434608979262 9.552991178478726 1.4106252079165447 -0.186826125891046 1.320120062646436
Ni 4.028874577862289 2.10003875072032 10.842671577409192 1.3687558213762685 -1.2448605306814884 -0.344490028395839
Ni 7.68223404915974 9.046283861230668 9.10835357206759 -1.4788160059601692 0.30970711638869886 1.3754823414668247
Ni 5.210952652049042 8.428179757848534 5.351869092822645 0.723706918749902 1.0118774466184057 2.0174973423628737
Ni 2.2948924635581616 7.614317619604591 10.76751226666412 -2.3863632284999157 -0.8174382842667922 0.05027072323009407
Ni 0.7077925470530996 4.897152909732143 11.675168286012328 1.102691895598817 0.6554382162804906 0.9480066161063738
Ni 3.4918733955888777 4.320758352761596 8.744345501868958 0.7610262240256507 0.9898801164117081 0.1286500317709462
Ni 7.241700034626753 6.707974712746288 5.463710657748101 1.2995360678474974 0.7371802706459885 0.6758198652606361
Ni 7.283714097638247 8.054657850846727 3.5547892934625134 -0.8170279362022509 1.4352489200024958 1.0447654555956782
P 0.5220014327840232 6.550013647376038 13.138371471345897 0.16738087268224075 0.5859222716675393 -1.2928699686812315
Ni 1.4534300480316849 7.558978648403202 7.841160339873937 0.2136535304965353 -1.2437670405069936 -0.5787221543746742
P 6.390068610218513 0.664742204824345 4.09450713291813 -0.4152097635089043 1.1290058509029974 0.15233092032765377
Ni 6.791273844484646 6.414734454811028 9.920132078546105 -2.893645738876365 -0.2764105591190982 -0.09692004765751695
P 5.065089200693305 5.815316597332315 12.169628499278648 -0.18595297925747328 -1.0415058110078 1.9799252976463708
P 3.6326062036249605 1.3734713711165543 8.799503608665553 -0.34288026070655786 0.9363726314118713 -1.2559579261462306
P 0.0715669376437376 5.668013612958832 5.646673458748338 0.9193159330399006 0.4063173461152809 0.09089878116410152
Ni 3.992314130321868 1.7135333632315444 6.376174348264548 0.6234601207119973 0.6965784379642261 -0.25847017259059357
Ni 5.327573282037896 6.234986610883755 4.367959348524849 -1.3745631720866651 -0.544171155872682 0.23963658482385825
Ni 5.9209469463972315 2.581765556222625 1.7104125294712793 -1.5627398984683345 -0.6007901899183072 -0.8110156685699
Ni 2.364174603925017 5.433526603254229 6.738737348779983 -0.4535425976508318 -0.5290173309503793 0.5784113080024748
Ni 0.09240786918589827 4.5670661432080655 7.894237583237832 0.09373702194384502 -0.6172061693824854 -1.5167276934042782
Ni 5.618275901640592 3.158861424150536 12.544386928231594 -0.9193174757017973 -2.0478584711532344 0.4339114536834657
Ni 1.5038598425315335 1.0964627707339456 1.0468653216071777 -0.49597402734216517 -0.4612011426373541 1.0654222126140813
Ni 6.0083801216737305 5.012896901024293 7.834690746292265 0.5119439204078603 2.1191245656880726 0.9790868824509459
Ni 0.6692149077326847 1.0472418148579727 3.6325554508583093 1.913309300289034 -0.3709111987018451 0.3025041708823564
Ni 3.2602008574894814 4.1018293729795445 11.535086036166959 -0.5618824571095162 1.5814066216399023 0.6538513314093448
Ni 3.048045065111436 0.454264944856093 4.609037758451087 2.23142443823577 -2.889518604081869 -1.6039415695176247
Ni 4.186069737844891 4.748087420189498 0.4923129098481837 -0.5731631722296581 -0.6742157539983099 -0.7414770982491294
Ni 4.932652163060766 6.814804672659324 1.2437519134437964 0.3475696957624272 0.494172198246736 -1.1448299624194476
Ni 5.22072486657335 2.607326495063354 3.952899531740495 0.7491428423245033 -0.6862767989279019 1.3767578657451387
Ni 3.2488968321898817 5.7830193821906 2.5415453728178603 -0.40635231311827436 1.2699418991301483 -0.7582388910885006
Ni 8.993104189555897 1.99333797966785 9.016406168891855 -0.2095744753311552 0.24027216152532813 0.271679472192016
Ni 1.8692889901964016 1.321952699077642 10.381395368534621 -0.8555764858994104 -0.0590204443982661 -0.8027634558634368
Ni 2.3076544774270165 2.0559576659397574 12.648097899939518 -0.9041024585242557 0.7293330066874278 -1.5178798047308504
Ni 3.0528711918311835 7.292840367859719 5.420816264929602 0.3882365773541701 -0.6917779312517892 -0.8844183498317671
Ni 8.377537724506325 0.4111730776364419 5.305557654642152 -1.5701624161846508 0.31590758877245595 -0.5292605573094369
Ni 3.324518454500268 8.584341406946601 0.764559977941328 0.09679149249945265 0.07213769850651447 0.6480761194884646
Ni 4.863397706021175 8.209582977993655 3.1181743152925794 -0.9704700873162125 0.3437078988141758 -0.7371872126245239
Ni 3.0391033504050586 8.965697695564213 7.221933216182448 0.9162025842218995 0.6984401737633132 -1.0668005810188466
Ni 5.6961860123381625 0.6418416337337184 8.01470988682673 -1.1448752138350864 -0.4213022495598873 0.35541413150751044
Ni 1.0005031306600343 8.460753806262892 5.662583066927146 0.2339945560467325 -2.080098819244179 0.4553462265184739
P 3.7197717734045708 2.1807910163503617 0.6025857528953276 1.0614143770062687 0.44986720568177363 1.6508786003887954
Ni 3.7502880278256137 0.975883424946293 2.556009911313471 0.3875521496926358 0.28341090169633126 -1.8940172848286412
P 2.37575546249726 7.942872575353376 3.1766009002615165 2.03483660497227 0.6721871536040553 0.7800637002730759
Ni 8.39095491045377 6.797031976555626 11.298046623688583 4.6965886361949885 0.8589160917956047 -2.113996243322572
P 4.642853865482038 6.190637920606303 6.684525088998251 -1.1479032020281326 0.23815768628548661 -1.376318464214875
P 5.2260400654081005 4.780753746361404 2.7668756606409994 -1.4893654993412415 -0.7033502094704209 -1.2355248551028593
P 0.2836618267018018 2.1960353018972505 11.794843309776013 -0.16028797039120135 0.0928906147831497 -0.7447182308942464
Ni 7.547637712000583 4.502194879651993 5.954861790628758 -0.24432293455593407 -1.525872850238656 -0.022229500822161716
