# total energy = -340859.7977264145 ev
CRYSTAL
PRIMVEC
9.34984154630744 0.00000000000000 0.00000000000000

0.00000000000000 9.34984154630744 0.00000000000000

0.00000000000000 0.00000000000000 13.68443819948382

PRIMCOORD
 96 1
Ni 3.3278143186108555 3.319147015456366 13.48639663715029 0.10362085671646026 0.30267849167669164 -0.47246437425599924
Ni 8.018592445250377 6.036846770913966 1.2281007579416388 1.8781414941386492 4.060427265866239 2.2543435089257886
Ni 3.468837979321931 5.124769723750574 11.219391970805358 -1.4090262388605412 0.15040619250111514 -1.9130699305847183
Ni 4.7358069637398685 5.419242984646638 1.8652709577056237 -0.25468216630307106 -0.19415197012849789 -0.34885601867401855
Ni 8.697821037441374 8.224709703115236 1.8711005839373651 1.0630753096484595 1.1601573368051374 0.04975238883277883
Ni 5.764401736805365 6.41526290961047 12.646994038702346 2.4026393399521204 0.9899713905739336 -0.6833506264200424
Ni 8.06248995151826 6.305065676623615 6.586594081837489 1.4859947830967957 -0.7683137588259994 -0.22761359222105315
Ni 6.847104043155684 3.4745226830090186 6.983607055457703 1.2625720890286387 0.5147821611876037 0.5696919258516059
Ni 5.636841847984758 0.008050213609509799 4.255285879953177 0.06632777669295674 0.25472201840207104 -0.04613921756022376
Ni 0.4438210855752543 3.2083513926077116 13.052093690314273 0.42807042152165636 0.7213548735779577 -0.5328868412081146
Ni 4.363169027146357 2.8929905855982394 6.475215963857739 -0.4605429402280649 -1.3527319351441864 -1.2336361227205785
Ni 8.004455484765383 3.984743538608263 2.089121125131222 0.34766302680718186 -2.682670269432625 0.12925398390353224
Ni 8.13930825002666 0.3385605689482377 9.38881079536919 -1.6320519546005958 -0.010020103240163388 -0.9471265274942656
Ni 7.820497351470256 3.737430878695204 4.527413954431856 -0.6472567089109628 0.7243412098997912 1.2096065925752006
Ni 1.7957960247824836 7.224257953237458 1.170134545032373 -0.7043807076174644 -0.9945140156392936 -0.9676657850981981
Ni 0.19710120561903974 5.951005875270633 3.13715702381606 -1.108908051711858 0.10176837688875376 -0.4784270195973373
Ni 7.953928940809761 1.2301212587093682 3.62878478442823 0.2623067727278644 2.6413660113671997 -2.1277277339760516
Ni 6.631477996393182 4.992460115401942 10.256376986656356 -0.2991339688585429 -1.8366037799061787 1.9228025844914498
Ni 0.4863264004302979 7.2035667537974515 5.0662256906310095 0.6023832454370399 0.7588631549360608 0.3768784720288735
Ni 8.330811705485406 6.723396289070406 9.82082864092047 1.3595345598883164 0.3093402199675833 0.77336571942761
Ni 2.339105969770875 1.295672998101091 12.566898620716438 0.023908945407113663 -0.4871515439545288 -0.22108838950802567
Ni 2.4398131135432672 3.0228411856085433 8.983450283176886 0.5495612165400019 -0.47792205493646084 -1.6313922095294098
Ni 1.3908076362854838 0.8928032837085219 3.3302172278996407 -1.8057099185408 -0.06282979084202728 1.4753373033829495
Ni 8.696035217697569 1.9580438259042299 5.722640669340934 0.754648602634081 -1.0263686982560454 1.7100839071043583
P 6.027431480432228 5.048344118588979 5.7440293669635984 0.6959924835537692 -0.8906504467844081 0.11171083281344632
P 1.6025721984710672 8.027568293177357 3.0849512483107646 -3.763543269384138 -1.6516419609173811 2.2177078599806257
P 7.124925236178883 1.661653847482092 1.7745980639282668 -0.6713554017313792 0.13233210860822373 -1.4418204025724264
P 3.8803338575659914 8.309615614599508 5.361521737587045 1.6911551885206553 -1.8191454752204153 -0.5307181156915698
P 3.20738835892388 2.5790696541937193 1.872414236680845 1.0347895753298888 0.045872851272714545 -0.5443195085250884
P 0.4372771314459908 5.398710732513672 0.2825045286759322 1.179937347645542 -1.2791783301267519 -0.18465148683723037
P 0.7515355921319313 0.23044087076281444 5.584441595774379 0.05130353536998262 0.35635104149948305 -0.36807167237052096
P 1.8829084988821385 3.465481386190904 10.977478844410872 0.7299546994318268 2.091051975821573 1.4466445634339473
Ni 6.3191558879006555 2.1316329848753783 5.188659996291646 -1.2714809614824942 -1.6029275264308136 0.4596199141931632
Ni 0.7780246283422707 0.7861571205577779 8.683090362015378 3.132338985950347 0.12085547542719186 -0.2748324159987009
Ni 4.778386142343479 7.381718635464814 3.2928730256026104 0.06981264991776363 -1.8710869012847129 1.2031886048639988
Ni 6.600380423262833 6.200310051442491 8.47295267226656 -1.4944344292237166 1.0398034836047125 -2.027596121359773
Ni 4.772168497685727 4.743137239546902 7.597791604655348 -0.523046458078925 0.6894878496660319 0.16582381260776602
Ni 5.731845588386882 3.0694781954624744 3.073757617958494 2.05735509778976 0.41974801769889 -1.4686524351636059
Ni 7.105384067254522 5.596581430095618 3.643467775662114 -1.6577493593666999 0.9349333278621834 -0.951546510938832
Ni 1.4110032941211876 3.82069121805953 1.5612851679752795 -0.3344922937531788 0.561991986104187 0.2610834418437245
Ni 4.618765646708692 7.48015376773069 10.406631745969834 -2.20315593030838 -0.4519402861607184 2.425246792938991
Ni 9.592843973543506 8.621414131962961 10.900598836947976 -0.4403523242128029 0.4008280408659355 1.0194010086889604
Ni 3.288498234722367 8.842369588432108 2.5244095452708906 2.0429078120161783 1.9523993243119602 -1.6067160469389683
Ni 9.033882393732444 4.346217764342593 10.821558081093489 -0.45907072655791265 -0.8231330206587243 0.40070205681103244
Ni 4.845041163042891 7.360316848063922 7.1928284607306425 -2.013976730804125 -0.45385318691271515 0.9380428200254425
Ni 2.3592642282402165 8.92263797848744 6.821118028422919 1.8859224236356489 -0.5289597382395664 0.7286683765202354
Ni 9.38724095696613 1.8722496794688503 1.4355110988984783 -6.854830993820129 1.4305155190825685 0.8046876694693431
Ni 6.2009271409874716 2.3431077019716535 8.982738760231841 0.03424092346074103 -0.42892428488151935 0.23445992571892524
Ni 4.240312108645825 3.089879549813172 10.47666953935673 0.7417825453046902 -1.1164673521163546 0.8348842476573815
Ni 0.8497491331521099 1.715686582034191 10.876952152581179 -2.181125947091534 -0.7773933525297643 -0.37766780069938827
Ni 6.932542895610621 8.30780174533093 7.311732266206668 1.8329895801923595 0.28381919287834345 -0.21223968086814415
Ni 2.320191240233084 3.700564453303454 4.849846981620462 -2.545284657560894 0.2877537520460593 -0.12459694474749511
Ni 9.059566408581832 7.328480637447916 13.196163529415568 -0.10420475424438827 1.7023636556419648 0.08306283005945049
Ni 1.1901413360679467 5.2090491958482765 9.36248257643421 0.6058817455086016 0.6438469118984654 -0.751609558697441
Ni 5.460821730200053 8.628576110621363 12.79577058806035 -0.9984591163299708 0.9362384198268522 -0.4225734029628271
Ni 2.767291315254163 8.118196307715078 12.663770459468365 -0.02655409633944459 0.4870975507881417 0.04219283131796604
P 6.5332766101670705 4.952554991493244 0.7214188173844377 -4.017593458530166 -2.7026024895801775 -2.074135145461576
P 0.3075695840120226 3.2394115663716976 3.853346474798873 1.6738362376262335 -0.2663158938872575 -0.9804811916953113
P 3.9576944468866464 2.9910049749925376 4.007789028160783 0.9234530951367258 -2.331804676527746 -0.2562451399148168
P 7.108020722583072 1.0859373515406685 7.28547136613114 0.14559000205939443 0.7983218751523153 -0.17619538565007722
P 7.265677751483831 7.682961181672476 3.3540696087814297 -1.6396161401010987 -0.3989326236154356 -0.9959939426189299
P 8.048801783429617 2.584632809940129 10.188214771492538 -0.5507153847491032 -0.617737359295607 0.14379665760439753
P 2.4335580695191537 4.179229593534411 6.866207639493606 2.1302620703621313 -0.5222093068896103 2.403538968948254
P 2.0270924060508384 7.560749402241694 10.779382815646594 0.8598889972318352 -1.2116560189050616 -1.3546021555837058
Ni 4.29196998343391 1.060393584315139 0.4152367498644607 0.09654569503723372 -0.11335993838109508 0.4404639100900027
Ni 6.819643558404081 2.8357508553805633 -0.350722842889295 1.614289231300536 -0.8317968669813094 1.648906050043457
Ni 1.7968338571990405 1.1781080899408398 1.1558423771769761 5.222878540911877 -2.9866656801485276 -2.200731380027287
Ni 5.878273457537327 8.826437458361719 9.321990282473624 0.7070700815241694 1.4651169112065219 -0.7486648742468204
Ni 5.466076341173973 4.248315573047382 12.259655346175927 -0.6102317949471814 -1.0175325880216541 0.10163699351721205
Ni 2.332860275588352 5.35701978886117 3.1523065721453145 1.3336641198794579 0.6776697739851814 -0.31414201223160093
Ni 9.667829703100148 8.189432750793888 7.576512300179293 -2.7414834829160917 0.6486828998345279 -0.19349839570489902
Ni 2.031253085558657 1.9245059441187344 6.774864362074203 -0.738131064595032 0.4833326844290708 -0.196209623988475
Ni 8.082517312205335 8.874663941286052 4.785338684550251 0.4087627223319799 -1.5922178533227933 3.5324504603652325
Ni 3.842513748331999 5.742364160176312 13.2481514536118 -2.2796341651717773 -0.3200637770326746 2.0583714548694165
Ni 7.079260609850374 1.096044530300111 11.322874147561842 -0.09617108530663439 -0.9902948353516237 0.7497578502006829
Ni 4.068920162448468 0.4536094347364574 10.93609644553086 0.0381014348574118 0.4032088823932863 -0.19019427103233053
Ni 6.208444413626316 7.060626375560302 5.367557060333781 -0.3007725329032304 1.5897390527649975 -1.1716267708973176
Ni 0.05648706796963234 3.0499931255876565 8.55802875086778 -0.35610087316188993 -0.47643210065449565 -0.2606440403134608
Ni 2.575348417240659 6.2365219879229 5.8235768842322955 1.5863464821436808 0.0027546799270017075 -0.5996650751749285
Ni 5.966601411043761 8.617758343901034 1.7253206588091492 -0.6068628784749484 0.24120110109750073 -0.011484860711147963
Ni 1.1148190122140433 5.928192261789561 11.906200479573858 0.5337327341481776 -0.471556260619433 -0.05566232655931059
Ni 4.418155445540698 5.105331403083709 4.28032849566945 0.6442356626964517 0.18715137044094862 0.4981103569588777
Ni 3.195654307727672 0.8176791764963391 4.74409372834162 0.4468682709544497 1.7877006264475728 0.6360834659029626
Ni 7.3175413227869095 0.19081998203847217 13.821008767994819 2.1305621181010532 1.2254702990803346 -0.5607396017543246
Ni 2.520586395044493 7.185418711270089 8.669652769681363 2.079664559920238 1.1651311358706449 1.3257440937014329
Ni 7.901999920615548 5.419046637973235 12.6288478661433 -0.2280599357298524 -1.5050253173656853 -1.0422709713085985
Ni 9.745339889886251 4.121503671554024 6.416961775827484 -1.195526974553683 0.7133273752877909 -0.4463517363293474
Ni 5.0399105614742545 0.34588990977111195 6.8439709112386735 -0.9018298604399951 1.1414942131779955 0.11201216610394901
P 4.601646086756296 5.719139153665252 9.44549234004391 0.07362636723689901 -1.4132292211982953 -0.7545167050419069
P 3.124455264015225 0.47815183392763305 8.955479297074437 -0.4449288878398918 0.42795240788655325 -1.1183586556017964
P 1.177659297544491 6.379957907764351 7.360544984198733 -1.748095610461441 -1.8469789524929157 -0.7730836694108171
P 3.915498611788252 7.467353834593153 0.7396014543256847 2.146239419626994 1.1623132068058757 1.5693982843251164
P 6.810275017130296 7.738340293413621 11.084189521468591 0.12221636033046049 0.3896244588406322 0.13133452058164477
P 8.33583257041956 4.857214656793858 8.297340207575205 -0.11822935065825443 0.968393664403158 0.2973113138275073
P 5.288335852536595 1.7145926505680904 12.261475760333617 -1.3475331645520663 1.003656087149878 0.12204563908055109
P 0.47506077629777943 -0.06745256218709238 13.186297576569162 0.49168028506281775 1.5152783625522612 -0.024651222889776902
