# total energy = -381165.4461895571 ev
CRYSTAL
PRIMVEC
9.23732438927589 0.00000000000000 0.00000000000000
0.00000000000000 9.23732438927589 0.00000000000000
0.00000000000000 0.00000000000000 13.51975796677404
PRIMCOORD
 96 1
Ni 7.354563566782077 6.038032405788781 9.04673236498498 0.7355031400538817 -0.7832181867416577 -1.113268899783715
Ni 2.0000839165649795 0.03095057855941946 5.616539767377357 -0.2660819234995805 2.4540490618826643 0.6982763944919393
Ni 2.928324153620714 2.655037916325774 5.3935987945916235 -0.2302739126620357 0.033185742723349294 1.5869743455356669
Ni 5.756543424579091 6.2660095677437955 6.584838584681636 1.0857200436311687 -1.5064335105671218 -1.507737831200842
Ni 4.635760401308189 2.808691567539701 7.617166838606962 1.6289342349072204 1.4746382204333957 -0.4786185667828532
Ni 4.194807491944956 4.83081573971346 13.22952948796827 -0.8240642742237421 -0.6510927948276013 0.2939583381948744
Ni 3.6102696147766684 6.094703389929543 5.545304294125797 0.041832105544437635 -0.03360200432516149 -1.5912146088692596
Ni 6.909453861516099 2.41009178976333 6.000446657236156 -0.6929189868347679 1.6638955814737537 -0.4716508772157684
Ni 8.81516927376453 1.3905960266559916 5.50358207178373 0.718314286979421 1.3037228522353355 -1.009686609614674
Ni 4.94649475102475 0.7452100473308941 4.340356314880952 1.5629620417814696 -0.6371332473237156 1.8272058836310467
Ni 1.4202201254562237 7.965159935598464 11.162371512716591 0.11713328938059826 0.7788480826984199 0.28093544357264516
Ni 2.255671440638452 3.8548277737215235 8.267967737394702 -0.7539101818061597 -1.0285302246837382 -1.8146247045319264
Ni 3.4655392187673018 6.428004522735898 3.03119746235428 0.9148555832757017 -1.10462099430073 -0.8889861717081077
Ni 3.570401323407226 2.328849523175228 9.72749267744244 -0.536359116027431 -0.28129745489775426 0.4598137753715242
Ni 7.13684907204473 1.6877699844053748 0.555454161835412 1.353020670029199 -0.5436013994121411 0.19151453250565081
Ni 4.960064380316156 3.2629462237917193 3.813558180266644 -0.8009246028824852 -4.361286444946005 -1.764945335028928
Ni 0.708826074660375 8.859434531466654 13.139528390546872 -2.372100805043631 -1.3122830831005206 1.032256781605706
Ni 1.9263608318987329 5.763305145914223 11.893371784187053 -2.8243300831996776 -1.7557346150639375 -0.0918860847780353
Ni 7.717433374443295 6.827130827993283 3.606949720449009 -0.5214261488666826 0.8153438636316087 2.4357106685847922
Ni 5.762427600112532 3.9433767637742285 11.262296267556476 -0.47669358184599836 -0.229762777353572 0.5339276237678031
Ni 8.749482661176925 9.177817385644268 2.0474723135887 1.0028166219677181 -0.9237207469758155 -1.5133955437072517
Ni 7.54619185789864 1.8251474703289965 3.0146220077589767 -0.055149905699266304 1.374601738634084 0.6258594741821092
Ni 2.320637541936249 6.1563532918293715 0.5200456506034038 0.43245826617670685 -0.15300609201780746 2.926824796731495
Ni 6.778154534934714 8.044388465504792 7.548986148477708 -0.8720971092622529 -1.7421792449770062 1.1382150282060914
P 0.9729673609692747 2.353439280271024 6.776386511077414 1.542997939954717 0.47293205792103715 0.27396261179923787
Ni 3.981406827622235 0.48075931066034555 12.13606492737021 -1.4935106318578666 1.6162023891628488 -1.3306402454514696
P 0.5553839581712767 6.029081438611535 9.945890734172684 -2.8341349851052415 -1.1756425769249301 0.9144670895880315
Ni 8.83004136577213 0.21946404394619212 11.161141101129378 0.039502428969996485 0.5937682500745193 -0.07110540058725819
P 6.121112899898319 5.9743964791798625 10.712650535195833 -0.43770665905983974 1.0174135459452867 1.4824152932756534
P 6.385309610152588 3.997091804161928 8.17887189774768 -0.3125037052972296 0.41418312201660284 0.03513129648549434
P 1.3870211821796306 7.839190545096822 1.7426156732786204 -0.024078381105442404 -0.2829488744582482 0.337114047646742
Ni 0.1356962929140667 6.543434126293024 13.324167722152286 -0.9847916461452072 -0.15276595098254334 0.768648773567915
Ni 4.048017172632673 4.455771138719313 2.1110694434358592 -0.8584936595462053 -0.7466517004715334 -2.759415384804164
Ni 9.158927057597346 8.830235349580924 6.672081417088457 1.7566771814828648 -2.6623665248782666 0.18378296818934797
Ni 4.3549180327944805 8.402380965973455 6.19456348349983 -0.08587921646232306 0.9577719230232538 0.7226746208306457
Ni 5.05231753738442 2.398517422505241 13.506264942130064 -0.5770709919244965 0.6048993269906744 -0.32314781527463704
Ni 2.514704486649089 0.2261435530956926 0.5532215005694263 0.133232508935306 0.5701207858589085 0.7967691859532149
Ni 5.513287728350428 7.32942880755681 4.522872909378697 -0.5497319377899114 0.40225500312044915 -1.4434463682116236
Ni 6.480703457458482 3.7459289583938222 1.5035324764038929 -1.3639794830335477 0.007036595131807237 0.7912551981135211
Ni 3.230541690398762 1.1888159162125012 7.46919321806103 -1.6782256249431808 -1.3732765920647576 -0.030634694166721432
Ni 1.2495513230137258 3.8422465381225472 10.364855116942817 -0.3216727733910073 -0.383939492640713 -0.09923866848836457
Ni 0.9280000666257977 1.4325704279494917 3.6260534306856043 -2.9882304535324855 0.9597465302511212 -0.8272578414603754
Ni 8.164852410766352 2.559034405620812 11.914151145038668 0.36288344330136213 -0.8386992505280975 -0.7134021943897842
Ni 2.333865390231207 6.845115898265829 9.448404476799691 1.950023882101248 -1.584165415331962 -0.6787722630207407
Ni 1.6421468400416868 0.7905828602079945 9.40192318501519 0.4069102425042734 -0.3720175443921464 0.35490119642683393
Ni 2.9552417164220475 1.2993497379286159 3.6117087898914417 1.9115246975847857 -0.28293730449402243 -1.6905458370714304
Ni 8.704986470369091 3.5478345403174325 8.369743652009943 0.6641539988869336 -1.6738470362595106 0.49274086511684817
Ni 2.6087773965903316 4.4079679858377405 3.897691729338211 -0.2701632926578057 -0.04977295765806912 0.3951749563452162
Ni 9.162058510510748 7.833241708293781 8.816612143808994 -0.20275616685774112 0.4409141102535439 0.87185953933015
Ni 8.550501459974615 4.948055858819337 11.529203208739336 -0.3874408209257521 -0.2747023181787398 -0.17363816644586225
Ni 3.408471029684722 7.781087775700669 12.809645991437419 -1.094044247226148 -2.012233779971089 0.19212079863108206
Ni 5.310916429156326 0.7495358862670178 8.942197261622738 -0.5860708814302616 0.22164143379801826 0.9404277753178514
Ni 2.1098048537490017 8.130609649851959 7.606391499894622 0.5242847013614003 0.32886697714660135 -0.2515819301111925
Ni 4.175446060362391 4.673993686289219 9.333513409245077 0.7163864738290888 -0.00715640853912316 -0.09311918585418802
Ni 7.663866131243249 0.7096204845440108 7.8558713051883275 1.6521921769938965 3.2817234220551676 2.1723060348070584
Ni 1.5277241048254484 1.4016808157299792 12.098114304510569 -0.5065417755556825 0.36193316357295086 -0.46877664099176686
P 3.523919107890304 8.67480813211516 9.300647009640702 0.4203653395679148 0.736781235435357 -0.29733573930753954
Ni 7.522599731819503 8.648029129177251 13.335862174625342 1.3888561916705695 -0.996794069922722 0.7536602705788827
P 8.89404678535018 3.418050134909493 3.463261294612597 1.7019535646877397 -0.26552707943737497 -1.4721884733413226
Ni 5.136589646319412 4.12030847204353 5.66326400078906 0.2224384757780169 1.439142084409315 2.508316822087293
P 5.088610984277501 1.5504848717240365 2.3776253662980427 0.17004016468195876 -0.01701170406664812 -1.706950503681699
P 7.969215120934698 6.82924617524157 6.121394638287283 0.817829863278256 0.9815811096277094 -0.6364729880318974
P 5.057850694597185 1.9449555655703472 11.260079309741679 0.6537497728344741 1.695697556475699 -1.2738026676371352
Ni 2.4329911165253426 7.977399390200992 4.001753881699962 -0.4714629295746784 0.600469830464411 -0.7823668944849559
Ni 8.385707595741332 3.8885532444791306 0.27220824155749435 0.8256704423685973 0.2636586587700685 -0.24219586091060225
Ni 1.2554724478440809 6.792620184676268 5.834965536080285 -0.5718974181433569 -0.08487957155321511 -0.9800477037023185
Ni 4.8138283004575735 6.83331983522626 0.9697721705186978 0.7001748970662329 -1.0625885998200282 0.031318864717939605
Ni 6.564587598775884 0.49377562423047566 11.437822978810647 0.07013120959944696 0.9217057734283159 -0.23066754855602853
Ni 7.1513239591105116 8.888190321789423 5.482045250345394 -0.8650193764798649 0.5833766224275502 -1.9608055460977842
Ni 0.016460911774871807 8.486043411509376 4.128460410675025 0.685435276863213 -0.18916197311307423 1.3152437083907413
Ni 2.9898909196024874 3.1267695900177794 11.988361036691748 1.4227407602331563 0.7996436792875325 0.3886916626137176
Ni 0.8405983522422501 6.130571919908122 3.3426384673743086 0.6309006361504425 0.5438194289602183 -0.30318757010262626
Ni 3.8456551107627983 6.100966295756346 11.22057404521441 3.731867278437095 0.5096816067362449 -0.9252214998910581
Ni 3.8637602662503117 8.613352214024127 2.111462029715563 0.455104542821313 0.8042107298329246 1.7616610078507013
Ni 0.5396075321217237 4.0921531077956015 5.333057371599193 1.188404761686605 -0.399583369825557 0.7828394632460002
Ni 5.668631809898139 5.1943044480979745 3.4793905864476726 0.9245890085133819 3.213719286101052 -0.46910805618925655
Ni 7.613522714198887 4.597924321268977 4.54365227023031 -1.0449521176851875 0.03518271854872005 -1.4562530330579888
Ni 1.1643277696832166 4.014615008223057 1.8822886342729803 0.12939230925360942 0.49495792737282496 0.19210820022559172
Ni 0.3241792751308859 5.551733471788709 7.591722629020045 2.024476344783868 1.308740617164901 1.3222378803203874
Ni 0.39834852255736075 1.8556583522551477 1.244773778922837 0.27270071436767873 0.3690443206964354 -1.0225570378194389
Ni 6.94553484995193 2.536883302121293 9.726465486988252 -0.3972922597985351 -0.6927426091579038 0.1689117075044704
Ni 8.215528371482934 5.416896250027877 2.0069814265662687 -0.04245174140630753 -0.8251495368681208 -1.0741130555198597
Ni 6.35753297619802 5.333658721406457 12.968706248522183 1.6489199340005278 1.2762819824155631 0.7055266482964494
Ni 8.183327059223 7.2601858251413 11.334261489422072 -0.8679452918774085 -0.2237026872024212 -0.5600613447403774
Ni 5.365906220287534 9.17124964811793 0.30527878602731395 -0.48604288427138226 1.352495136543032 2.9688006269426483
Ni 5.588728955323144 7.851014320109075 12.169444922201679 0.5399465762683734 -3.589634879996024 -1.4663942352570487
Ni 7.710782500998902 4.799528922552129 6.675597142689758 -1.5110072459807333 -0.6654328655993571 0.8608811859417753
Ni 4.5055972656068874 6.846640056763502 8.223081731504434 -0.9165147161456796 1.174340570284055 1.4433455809677014
P 8.93179049214711 1.5900575687181728 9.575287438667514 -0.6893904048562192 0.958586191394433 -0.14195471929965228
Ni 6.663759511691161 9.022547202690383 2.9016643121653507 -2.0444170495718534 -1.2080739579807582 -0.04167578247223145
P 5.822793513944624 0.9314917751841039 6.904742826159654 -2.5994446885430653 -1.271229250483004 -1.3341832256077217
Ni 6.0269845660117065 7.995329036528168 9.802189376082353 0.1692662626304117 -0.7299480145636074 0.5308129893982213
P 6.797811560892586 7.190822757510821 1.749064249322413 0.23004097071562318 -0.1138384206794104 -1.504696730381673
P 0.9465855629731839 3.6022423800222554 12.571278687190388 -0.3595474369495937 -0.21203887771124777 0.22407061206480122
P 2.8364127775488988 5.731251630841942 7.412152740951136 -0.9193295598866553 0.12210554578420904 0.6312423357605774
Ni 2.964072598384324 2.2992161870507672 1.1774050495932538 0.29075834320033794 1.133047367962223 0.7360821524858032
