# total energy = -340865.21076428355 ev
CRYSTAL
PRIMVEC
9.30501120944592 0.00000000000000 0.00000000000000
0.00000000000000 9.30501120944592 0.00000000000000
0.00000000000000 0.00000000000000 13.61882446996990
PRIMCOORD
 96 1
Ni 9.155824039110522 2.1191511850896907 3.651029609939652 0.7755686406161997 -1.3507185042585834 -0.65015845593879
Ni 3.2913406767117763 1.600313060846943 6.324214193956639 -1.1495049992976138 -0.21584359616931859 0.022910071828954093
Ni 6.917457049436852 8.853187852075763 7.297946404891314 0.7582131800568878 -0.7163193680365791 -0.7448547564721109
Ni 6.63429625102169 9.046173786127568 3.5493788751584496 -2.1264717500817634 -0.2255914195847018 0.2159541536052539
Ni 7.919988270298738 0.9272899691098941 5.3250690667013805 -0.4480381228928348 -0.4441920096738673 0.5126556017629041
Ni 0.16435162282434007 8.136795033240254 5.96258051337019 0.6199922167680548 0.2655342785262266 0.34946485590261106
Ni 1.6790148462958419 6.463260838591303 4.832694394553298 -0.04671437333740342 -0.434648074739174 0.3174926738713887
Ni 4.114824870426852 6.168543216160116 5.759768487401379 -0.062168503108944555 -1.3147896515724582 0.41795904411926726
Ni 1.2328953852457105 1.9827955497186613 8.955739311949358 1.3576545692567843 0.5353841537086714 -0.4123023600541222
Ni 8.007232056107307 4.911724646900559 9.011126461122451 -1.812202468243679 1.7679830934139873 -0.9443438225428059
Ni 9.02957364599505 0.5731514751135471 7.644205415331487 0.10019820418815646 -0.9964472281062644 -0.7489919185689359
Ni 5.760927891807495 3.824089792825664 6.780458437786026 -0.4321073105951913 0.9344275918703584 0.722423424051788
Ni 7.0253765703207876 8.788229568294874 11.387448617607049 -0.118950287984679 0.966072215358833 1.293269003891863
Ni 2.849920246360592 6.206265731909683 2.8120013948729103 0.6969378781861739 -2.3388947506053075 -1.5034273767509463
Ni 3.3677720394071247 3.037862864295903 2.0076464433576273 -0.005407287058500365 -1.4947463040371805 -0.3627425468481236
Ni 2.341419989655528 4.175679644231037 3.8751277797241284 -1.3973660289137932 -0.6069973471702836 0.37431893883181344
Ni 0.7364962957168455 2.13715638192625 6.176722321079669 -0.166843512121532 -0.01721045034101552 0.11957172361876181
Ni 6.967266774845691 6.224847839445915 2.8454631459550557 -0.2192631633738288 -0.016381526681816947 -0.11803368970768059
Ni 3.5150982830832205 0.968549319648906 3.815259337116158 -0.5146875445912684 -0.06410762911318636 1.0440159790241632
Ni 5.891747045463923 7.978805246631498 9.267650734233047 0.7316680825785077 -0.771719956294071 0.7733340948587263
Ni 3.593278987900157 4.867898043748003 12.167630080304917 -1.4145692801659573 1.1000729699187313 0.7277587202217725
Ni 3.305084178379786 5.548420044079669 9.919216469946786 -0.29021712598488725 0.05721861530283694 -0.3808014612323635
Ni 9.252391446226705 1.998325613553399 11.560393418353126 -0.8267747311763696 -0.2909899995951698 -0.23377961182244897
Ni 2.0460044913779627 8.72652803846375 7.944445561960347 -0.5614919065393169 1.1745853393050094 0.3090059765566162
P 1.1653316983050086 0.8120241418164161 4.5453100515158535 1.4508889405325978 -1.6879587930705446 0.7871229211127024
P 4.786767650353708 4.903098901439323 8.457222401852016 -0.043166508085145015 0.28247502014562315 -0.28587890362084956
P 3.369558601573853 1.2809464635216758 8.498582246512907 -0.1896520253756153 -0.5688928269890783 -0.11428682107073865
P 5.5258367816908684 7.581369604624715 1.529420971369581 0.3485035204306063 1.087444482521443 1.585179201308457
P 8.96225188934776 6.395194681041209 4.23782409259933 0.6770537376677371 -0.8516735513005784 -1.5248004431100834
P 6.925142988758298 0.596033428364598 9.461474119300506 -0.19477391998321292 0.9737968376966003 -0.7572677854244829
P 0.33576574921402824 3.7649006160415017 8.15416190630266 0.7306393842036772 0.20518225980073052 -0.0068206224662592215
P 8.471189223790867 7.137669446508696 7.858947396268852 -0.8653250806457419 0.4273481986436511 0.3564027206730249
Ni 3.0883332455059795 8.299716475830083 5.542153118979192 -0.7023526214438421 1.889317822470443 -1.0080701570571735
Ni 1.2285127249304548 6.105613424839365 11.708961881035775 0.7193350149344515 -0.3455251545285727 -1.9263931300561854
Ni 3.8747462742614416 2.6013182598580813 12.818759410989388 0.8497133422504141 -1.5241139585660204 0.6083260932840362
Ni 9.08532927361503 0.6020342301423226 9.858190483934957 -1.115852087129859 -2.1885824033695793 0.651743798148039
Ni 0.33039024419465857 4.2464721700876495 10.289947660066623 1.8916822089375618 -1.4477403676012872 0.607140043395735
Ni 6.131667456437488 6.39425487490142 7.145961142064797 0.24753655639722533 -0.33149078792269365 0.8928587672896366
Ni 5.572585158386927 6.386354920320418 13.382211342339405 -0.20948140139671664 -1.1437323584798949 -0.425406501536248
Ni 5.3024420707595405 2.118341649107892 5.40584214766233 1.0683643259615407 -0.6037994090582762 -2.5371610000124947
Ni 4.4681454539312435 7.404006784520498 3.7392113408857535 2.3247444272468543 1.3081482349965405 -0.6756694557257009
Ni 5.762816809098359 2.2644396312943615 0.7397763121948234 -0.9584710059728073 -0.5612633354682784 -0.6115962793948757
Ni 0.30847135961160976 0.1496403999826861 0.2930278323818229 -0.3601416188901669 -0.6560033447553413 0.23714287186772706
Ni 7.8487491039004444 6.441152131778039 12.339267526965447 0.5729142894436455 -0.600503511915824 0.6544439706880213
Ni 8.97494392474056 4.241912714557978 3.484989127567076 -0.0015465185515134655 2.9264913246514763 0.5273772242437949
Ni 3.2440991344176098 7.176424818510902 12.605720247117183 0.4616924804514759 0.5205550591156389 -0.8448380164359838
Ni 4.4445944703687985 8.025162812853585 7.464505176392467 -1.0229473312793222 0.26478685883724074 0.3177973495960011
Ni 2.2327932879139283 4.950117123462649 0.49000840777829685 -0.5008935761309696 0.07385648096983409 0.6318568294161248
Ni 3.819548947318563 2.673943872937847 10.127108101576104 -1.6575446995550616 -0.10172749634848932 -0.8604530972654213
Ni 5.467717681204485 1.3666083974117873 7.706184234498904 -0.4202450119399666 -0.36477551811775244 0.35314693273988856
Ni 0.8261668284685539 7.13230976000851 2.056633605768868 -0.7662496772081191 -0.6023827312164077 -0.16163522844771516
Ni 4.924714442654479 0.8031508830549985 11.091484123663665 0.6401782047976264 0.30329041422907765 0.19916279307952797
Ni 8.903490743082708 5.386038292144373 1.361010502622705 0.04898799986292853 -1.2775485078328128 -1.0230056953210833
Ni 0.39714997816033254 4.013604957668147 12.502653289618399 -0.6755851235420106 2.7474584695526034 1.9107924474044509
Ni 7.971016952185916 2.6146616460408336 7.488828475891571 -0.6859158160440575 0.2805996574997813 -1.162987864275397
Ni 1.0016658548123762 6.3016234875588095 9.192474617560052 0.006271434831008555 0.7026974063777705 -0.9641480017529267
P 1.6614842050348197 8.238359231416506 10.109403456604051 -0.8629213563002559 -0.39848499455505565 0.03721723248024558
P 5.038682220873694 7.6673013838420925 11.345202935871821 0.046718229992145345 -0.4899519895178013 -0.25999740786839737
P 7.592377432974922 4.549294457348109 13.420902509763744 -0.716818676270501 0.06840111428221768 0.48730323904104467
P 4.283012949404016 4.795709766198635 1.444180554490682 0.08378608137872022 1.706624744911164 -0.5687154208709495
P 5.436778518681716 8.457092131694026 5.647617977886133 -0.02105887755282825 0.18952681265166071 -1.1974851267213185
P 2.1427486937085614 3.241577476359363 11.596851383069056 0.6479761035754905 1.188746975517372 -2.2958799376066783
P 0.6950657329701888 7.027730738175904 13.399602408431152 -0.3448330135575545 0.8692331574508965 2.5265310311024742
P 7.29006692133514 3.7874373533738774 10.668769557498804 0.9331204430231608 -0.38665329202745025 1.577899379817592
Ni 5.76202588313913 5.642000542573352 10.240484081077588 0.9819477489385089 1.2555555485014893 0.2725014538726791
Ni 6.653101678828763 5.04662870051112 5.045992237739224 0.5001937218504676 -0.38784062746733206 -1.2819376380394438
Ni 8.036561451677764 7.161815950793383 10.220110758868985 0.8413402876953704 -0.9762555836497381 -2.757906147248489
Ni 6.2395218422424295 3.2014635727095397 8.976289429372375 -1.5595314188333658 -0.49623242320987443 0.8274671292577039
Ni 0.1980553041998966 8.412884023078783 11.660996408863634 0.1948376833416128 0.28090639010692264 0.8894787950738101
Ni 6.76982374038835 1.9417883649854741 12.241579796490544 0.19444764699204575 0.2858925304676044 -0.8157151309280984
Ni 7.308937484221207 3.4524941671574467 1.7971261460402863 -0.509441979921613 3.630089645576961 1.9554892760911935
Ni 2.163387208738788 0.9731087751785774 11.187442052540678 0.33481239609675884 -0.6191146992591079 0.16763978277058225
Ni 8.93566747210639 8.761552100940653 3.064140216164866 0.21648714329058846 0.9970370391714634 1.329027649548711
Ni 3.6952991316293753 8.719688855169242 9.707320891961515 -0.3976455293728958 -0.39621522468427245 0.471654219649878
Ni 1.6112464491068694 2.1711848081956546 13.295118297713653 -0.4048716148076898 -0.813027042572974 2.5817914942376765
Ni 4.680904536963767 4.499773187289107 3.8785594678860527 0.6812369225111493 0.06857929173129479 -1.4782367364179316
Ni 7.842719456587735 7.516281050685835 0.9521706387849722 -0.31895666001142486 1.466830551463519 -0.42203681373306673
Ni 8.173959248312718 5.272358969274994 6.742843860167366 1.478881826201098 -0.41309631671032726 -0.9177989821747419
Ni 7.619268915588697 1.307707675977461 2.220876359961173 -0.19069177949403932 -1.8022409861555928 -1.41211516219851
Ni 1.396170418264371 4.367362876702936 6.449398232778845 0.7315544398187789 1.7281374221719594 -1.2250666358840128
Ni 5.2388050985811265 3.743666580289032 11.378977335333145 2.99278541989302 -0.5515129409497341 0.45110981983962306
Ni 3.023551756939506 3.413515474884399 7.942158390186482 0.7954921190130042 1.079180185630122 -0.22826279576927785
Ni 5.216649866711438 8.89712611536374 13.199201310886295 0.13113654563822577 0.2151707384720101 0.7098355600844485
Ni 1.919791318307631 1.0163491626201753 1.9625404011533782 -0.4608887536032578 -0.4535508251809479 0.5077548220271771
Ni 7.3835078446595475 7.372406966196491 5.000138072627657 -1.6137122757511433 0.9411497410855405 1.506118036209232
Ni 4.53545790556725 0.5491947930590739 1.7685271938557048 -0.08332251147874037 -0.8701865225031014 -0.11764905267475223
Ni 8.524469718409026 2.5847646447819885 0.18243870376020785 0.6293484611719742 -1.7309070144972964 0.46835832250742565
Ni 2.6120097178245967 8.189945257700423 1.012723930223522 0.4573318894899349 -0.23002657253791997 -0.3464322397238743
P 2.285524786866271 8.22222434184824 3.188942749524385 1.0469678625636356 1.4201344329585608 0.9964192030818065
P 3.0659639983767346 0.537382081232711 13.332897574032058 0.7080085341780387 -0.13412108218784644 0.4749130929068079
P 7.454979636339967 0.4444575860346228 13.740031829301243 -0.4167511398540952 0.04314491081859021 -0.28144709310174104
P 3.6569345701011406 3.9326048344318427 5.663755658957785 -0.5672992572497133 -1.1683213606731684 0.6405890670828001
P 7.889021192742113 3.121598660850011 5.196997682877426 -0.533587723929881 0.4372855123620211 0.8281327878661608
P 2.1820530613765854 6.868773230393503 7.004760387317646 0.1335829502961893 -1.23035590930741 -0.4968759703311442
P 5.725727034116176 2.1612656661657983 3.0259664073679744 -1.0467580605456746 -0.45938620091580235 0.19732188321604727
P 0.9648180101236036 2.9460410129350927 1.8749718704509613 0.1712789221850663 1.4984394366180518 -0.33176795284348026
