# total energy = -340854.2786023804 ev
CRYSTAL
PRIMVEC
9.46157675318361 0.00000000000000 0.00000000000000
0.00000000000000 9.46157675318361 0.00000000000000
0.00000000000000 0.00000000000000 13.84797396911428
PRIMCOORD
 96 1
Ni 9.473403800006569 8.825446634028193 3.7508481715203037 0.37301616085998984 -0.923655440955519 -0.41391007086087434
Ni 1.3335903308897137 6.154046108983044 3.727597292620792 -1.844421990399017 -0.692019357838634 1.5274813323763565
Ni 0.5745126220011774 0.927362260526286 12.908098112575244 0.3483741939415936 -0.6879243618336539 -0.6531553337835848
Ni 3.487035755586538 6.294701910122517 2.9630649846903543 1.5367684141052371 -0.5889597729422824 2.2802913391398016
Ni 0.20498884663037437 8.031847415921474 1.1930461763568223 0.2316160285122269 -1.035403554764804 0.034444554831114874
Ni 3.4644320485421276 0.6822629512448576 8.713505772406961 0.8148885212617449 -1.0634134097141685 -0.1127565004691413
Ni 8.853623209824866 7.0271509571836 12.940682837016535 1.5513851355771475 0.3478219209825493 -0.014481481445626672
Ni 7.798562777626382 1.7577528201324548 12.522431940976535 -0.6697762301697175 -0.33978696649321477 0.5638244113272354
Ni 8.998356950577627 8.399987908759883 7.407835608581856 1.0784710753782394 -0.24469831561748182 0.7198266098588892
Ni 8.35001185994926 6.742187186248671 2.903933914140021 0.7664507374753315 1.5661808058290834 1.458634645916288
Ni 6.251576042936071 7.7725245181930545 12.062139474454685 0.3139944309101431 -2.3579039447179584 6.166776534166514
Ni 6.795597787448208 8.733735569824983 3.6240147879702733 0.6665736640720198 -0.5629528073555594 1.1093875624514378
Ni 0.08798887987869272 4.487588043673324 11.611235730620226 0.10766031689315651 0.08008549259868142 -0.5828351481017834
Ni 1.5099541229817213 1.8299730360679856 8.976187529909666 -1.5127471114899755 1.149823301868981 -1.2026425025525416
Ni 5.008892542219104 3.571622252437533 12.90548104042435 -0.42717593473184495 1.4811616233742106 -2.4786401209584668
Ni 8.131827898273205 3.630331336661294 9.33926797145994 1.20949706358053 2.5550571635666257 -1.701150094949838
Ni 1.9857389754033246 0.5290951609067539 10.651820486270438 -0.9676081923873852 -2.3429951459269263 1.2599063692710173
Ni 1.9101125918093647 5.447739398700407 12.917307065302879 -1.4384496863279808 0.5042082423264993 0.8594683647546488
Ni 3.248944636262328 0.43370732794780636 1.8406863795114288 -2.050067305879095 -2.006804381425402 -2.9230403899883983
Ni 6.0218868038359865 1.5172963066010023 4.782578247573913 0.06961596052592527 -0.5268704598107055 -0.2765599402127689
Ni 1.210324907961888 8.446103634224283 5.8770660165764 1.36412012237647 0.3966687672819233 -1.2595132475976565
Ni 5.478338138165297 1.7329540272637234 7.429645489330316 0.15786136322757974 0.24060614782597914 -1.2835389210882926
Ni 1.4067945508154576 2.3863232151882716 0.9864545386116205 -0.14121629847173098 0.4300424576463626 0.35957623330500005
Ni 4.657186808332618 5.543481094632758 0.11625155602451007 1.7836791639930056 0.7897138217683303 -0.3141111589936655
P 2.944679248596299 4.824751333973683 0.9210911274040444 -1.3797665706644753 -2.227771671974531 2.0331563890563693
P 8.0985136862584 9.43057124170182 5.4791035797307615 -0.334828594046675 -0.3243107252344866 0.34872720640563815
P 2.986915727560823 5.093393884878639 4.886977286304773 0.4421158438711289 -0.1493564110803621 0.7603919328757613
P 7.566810914777582 6.4817856687617486 1.0699652541771614 0.19485748083595475 0.4121306103629483 -3.019460615191361
P 4.485837651959964 8.856329220797951 0.18504478883258774 0.3170381028324733 -0.020938807035196197 -0.13437485006986538
P 6.202574536538832 2.5731042033689753 2.853084561788086 -1.0774603747255378 0.031038871583675572 -1.0275611759022496
P 1.3632996821326806 2.677295087409597 11.37814600080781 4.647211371313442 1.4039105149005306 1.909468843497021
P 8.064120854485093 8.82005353523568 12.214550338646472 0.88577563519061 1.857200373110608 -2.5052780352609694
Ni 4.358920060376157 2.8053764529433685 1.2007005920114595 -2.551424966130677 -0.6250526620100978 -0.03689841568824613
Ni 2.724877357282489 6.793147239049505 8.449341385815158 0.28726884198984076 -1.5505772949638714 2.008623179801696
Ni 5.672168001083584 7.190855159478445 1.5780046220087247 -0.7294592478526469 1.4273147527570837 0.2324853184910577
Ni 9.258417851298704 1.9836290437704642 10.629704996590403 -4.274632555101187 -2.0624777637283063 -1.7765628646631983
Ni 2.9598556178299678 7.014898215190083 0.9979588698779654 -0.9755621571271392 2.2343935481664228 -2.1678212595628277
Ni 4.830087663305222 5.942031095399477 9.69606024904968 1.0161516485137276 0.4207016398614109 -1.2019102523722074
Ni 4.295376110392792 9.11023063500337 11.712837927240441 0.20097182126380872 2.419018809751408 -0.44565033938694865
Ni 7.49772248077244 3.3863835012799512 4.179166185306329 0.353749599320894 1.5408713805300172 1.4872188853118837
Ni 0.5383154675265855 3.12478036353575 3.4562184536968985 1.575999077471086 2.990032282627915 -1.7379538940417487
Ni 8.291037851574288 -0.3562075521417102 9.644158769354362 -0.49959876857894603 0.8668582294608168 1.7719785877266254
Ni 5.937915309478874 6.283546711041161 6.675415892408944 -3.0376879368326652 0.8897829565777902 -1.233668775730727
Ni 5.311558923401037 9.250753974067239 6.2695038387116035 -1.4172707382575205 -2.0267044627834383 -1.0312933892511724
Ni 3.4135193036254385 8.518532004850053 4.421893477276734 -0.7155840325324514 0.9274483323390479 -1.2166210762198209
Ni 5.328693839038302 1.4456910931593545 13.137684220487893 0.8869220900902273 -3.018817325180408 -0.45768207374050207
Ni 3.4333980765431047 3.545385299890798 3.158985856087843 -1.6958595359748598 0.3142070611415814 1.153546002136207
Ni 7.237254732247715 1.7529652622569958 8.85643045967002 -0.38161110161785244 -1.536816236624037 1.3286206439182795
Ni 9.003068815838454 1.4992530795881556 7.201638518590422 -0.5670863699079588 -0.5052251136267879 -0.07754292868248581
Ni 8.177375929127868 3.656729136014121 6.424435266970628 0.30878460457442947 0.9300975970364368 1.227628225963602
Ni 3.922296674449661 5.011995939419006 7.529890895833256 0.960815594945584 -0.971272785723166 -0.7810887991034806
Ni 1.9046343388253908 1.2117062981789177 6.740584395133842 -1.2372464657796562 -0.5641802520047574 0.3024342368763695
Ni 5.337559336527048 3.156628031142064 9.240794718297066 -0.9359206314761173 0.9159827549016096 1.0585005457935834
Ni 7.103307189079982 3.594074574252679 11.283924780271875 -1.3144692921185621 -2.111570921710531 1.276191736694602
Ni 7.605962919695862 9.428565387414078 0.3062646188499901 -0.44947768355283885 0.017240789358318694 1.57024083483107
Ni 5.698963186663227 0.51351856697322 2.031871731706018 -0.2401109533571155 0.6193252726080173 -0.7927310113280993
P 1.5375346194381698 7.804968265139594 13.198088819279404 -0.39481320213042326 -0.004186784387837951 -0.5855044674038304
P 1.5858927386110375 8.418362290961744 8.06241493218283 0.10481976212056786 2.658076896363977 -1.0910072601720373
P 6.179895136879791 4.700397829710526 7.960245040952875 0.36843188392341714 -0.6541518933688992 1.0071319615136205
P 3.8418827329802423 1.2959521782640697 3.450527315234273 2.0034794308172272 1.9452449726553658 2.7956280872792947
P 1.8514792002002352 7.945132064283961 2.660680558497925 0.6050299390312677 0.9771433855713302 1.0264152352232645
P 5.279597716872774 7.463528342112541 4.685960409627199 0.33004325684288965 -0.5989220263613169 0.3323955591251501
P 9.563194164113497 0.6507823928195074 1.1570533919417363 -0.3962350221786144 1.2397558624650713 0.9535769111052997
P 1.6834132109872348 6.064586900065129 10.668077367577975 -0.347563268004524 -0.5129584777153037 0.09517966792764253
Ni 7.048685506046336 9.268049736510598 7.688409207868143 -1.6123645034739975 -0.09694884401292336 -0.3368014015023296
Ni 1.8721527455715354 1.0665467864688545 4.281502600288472 -1.0651478759067718 -0.48206307368802787 -0.6489914322138822
Ni 3.5549225693344004 7.1869853745553955 12.462968769079502 0.08921470859345926 -0.8334585709544485 0.012993841156506656
Ni 3.5217029730878853 2.0894000111415236 11.053342368319136 1.9615431955947575 2.129013542667011 -2.4433152204049278
Ni 7.23582603414654 5.677296175724886 10.702988693761508 0.0018846186172225606 1.955132149862091 -0.5654285225895617
Ni 2.652505756117695 3.7770047006639924 9.331443247422381 0.49793423639232964 0.27689624050626505 0.06922592417635819
Ni 5.2832498855287575 4.860620171732309 2.3572298125968705 -0.6327459168892974 -1.036743613732466 -0.22238293994973315
Ni 7.549089381376921 4.602300201147761 2.1199722581912925 1.3883527696715896 -0.9398109676694589 -0.9215597347687549
Ni 8.578348093562802 1.516369072071763 3.644897434189494 -1.320905534662209 -3.069517422638436 -0.23661039640302475
Ni 7.421433786800452 6.627683183464471 8.455572780314718 -0.18254266802434368 0.7489885761348262 1.1150061941897957
Ni 3.264849546911827 7.033774060963879 6.226215232403698 0.44988314652137357 -0.8086767360240782 -0.7958546445587455
Ni 5.0653119248502545 3.863417281842979 4.940957474429414 -0.1603303935933626 0.5562422281046033 0.2681732588109704
Ni 3.3728250616840367 4.882202028479191 11.18521593384596 0.583318258385789 -0.6223707443025603 0.8251755050100499
Ni 6.4576586478478735 2.7293999910067366 0.7459724788227295 4.029361654809686 0.5329143520119403 0.002776791414188766
Ni 6.467697380863412 5.604915112983263 4.179193623879133 0.29323611531686916 1.5336290971453073 0.7647062439803991
Ni 0.5325334979264018 7.676309743419256 9.737798102915317 0.47262609664484406 -0.9850096756932843 0.3361264869224921
Ni 0.6847683767891689 4.8827791846657576 1.6409155925022316 0.3595222401386131 -0.09900546943163593 -0.5511005360026637
Ni 0.7894190934636786 6.218697063455399 6.766245137651693 0.787465649164102 0.01574106488434063 -0.10797450569946566
Ni 3.626754860619943 2.0343904034578904 5.568823928169156 1.6628964507852781 -0.294835341483189 -2.255504104892793
Ni 7.639125746481402 5.221834790331911 12.991892675445653 -1.5010411359069569 -2.17124468342208 1.8527461939939964
Ni 3.034327689050793 1.4551999778724698 12.959570982840209 -1.6512169575648206 -0.7843055062685654 3.4420507303247363
Ni 1.7998946833286888 4.035144901288791 7.1493623604526775 -0.9830060149996942 -0.6340417528825855 -1.1702903114740812
Ni 5.92215232248181 8.261006806719136 10.219320455526006 0.46608341043031987 1.6125334249516938 -5.864310415610945
Ni 7.958728350187192 6.826149219028953 6.159509223444092 1.3347082448732561 -0.3390182066479903 -2.383286646457121
P 5.712606780450603 1.5270701154653288 10.90162409155123 0.4754861918014585 0.3814414088092076 -0.18634610093083392
P 8.717423811371837 5.182588169645341 4.272003177152186 0.5992462424699551 -0.20485264437545367 0.9809550460079364
P 9.025738753920665 5.273059767283955 8.200479207428847 0.5154426775897382 -0.6284190073791692 -0.48166969490435113
P 3.5475803857151194 2.6308292836025235 7.496891754326857 -0.7399701746862998 1.0691834794287263 2.6626580879767565
P 0.3281870923627145 2.318786479783081 5.3050484123850215 -0.028780414566802043 -0.39542743867565444 2.444983609246286
P 8.793277272809693 3.44520612442566 0.5659621950208369 -0.3324276979146662 0.3773800942556404 -0.7708529803080852
P 4.540222795572886 8.08848441481969 8.671463255767431 -0.3359776200494536 0.11763311183515224 -1.1918888635804634
P 5.3176048709947485 5.71262570360426 11.848811194007258 0.7199453948249407 -0.6214454042748137 -0.1256212722469514
