# total energy = -340885.8681634857 ev
CRYSTAL
PRIMVEC
9.10285290181838 0.00000000000000 0.00000000000000

0.00000000000000 9.10285290181838 0.00000000000000

0.00000000000000 0.00000000000000 13.32294535228842

PRIMCOORD
 96 1
Ni 6.6438537254353776 1.7961385210799352 11.408824907295104 -0.8715026702113636 0.8244663947581672 -3.0935279266204208
Ni 5.187916125458244 0.8515409382718901 6.114392659015778 -0.8996796468662117 -1.5377287211359774 -2.4541624475320765
Ni 3.019316172629096 1.7012412796891798 4.6775792426777665 1.0778288138085501 0.28447379574320686 -0.18694722484994256
Ni 3.406196523357969 4.222749736257245 4.412266582025574 0.7214721158821122 -0.054078784122274605 -1.4818877029069577
Ni 4.139076312481338 2.63355547280584 2.471113242391805 -2.307358627670239 1.1969508514844032 2.02276938939509
Ni 5.284752274514825 4.676244764443916 2.6741815052592637 0.6790154893797983 0.03265275303801473 -0.07680116542045483
Ni 5.315720180050686 2.8919490549754316 0.6437291787628276 0.8052101176317166 -0.48430250454150786 -2.47640711786289
Ni 5.576698972441378 7.876334492639344 12.352861754365053 1.4965152230121452 1.2766339664383433 0.3376773763493797
Ni 1.9827470053495266 6.61564398432555 0.025013729459727314 1.33370448619909 0.05925312923436247 0.7512550035714998
Ni 1.2597165030544357 0.23758719131617625 13.5599601265672 -1.308201199721663 -0.8460713746224526 0.1507995712847919
Ni 8.316111521518978 0.13730106101383055 6.632655395808625 0.05388852248833945 0.6254462979040906 1.83669402562714
Ni 9.297380857484509 2.344849390508555 1.0177317235065209 -1.1075777629362087 -0.07073361907013624 0.30366810928347054
Ni 7.504064220800847 1.1535590326372662 4.690116601964815 -1.1669859296911966 0.31113973507016734 -0.750074095889521
Ni 1.0227874480022932 7.447244213053978 2.0423279083782955 -0.32251352412474776 1.101656255245451 0.4588609245399517
Ni 7.691992618739662 4.292896320636828 3.6151816406047073 0.36002051993127027 -1.1798445308214198 -0.18071229968382427
Ni 7.833824169637442 3.39019370797524 12.683537450202502 0.20315931583343078 0.6400133970849882 -0.4032147959305572
Ni 7.903479199960901 7.33009049634424 9.03142462513291 1.251396532027793 1.4982149793120714 0.3931036756384843
Ni 7.088992334667928 0.9686982961227851 -0.026838851464412825 0.29963816218847106 -2.1812115648268047 3.1712732011216995
Ni 1.9093051882233283 6.724905527578619 9.089432555182078 2.723559037227187 0.8005991012222664 -0.8180370941930557
Ni 8.88692411776743 5.118106346635635 0.9775617439829463 0.32680572374219846 -0.0935228490505099 0.5920798066285028
Ni 6.674211739827528 2.3194979452065634 7.025814894461846 1.9189610992581723 1.5863318268556617 -0.7146610064975498
Ni 3.535657297176609 4.50386403924327 0.8494099604100604 2.247832190169832 1.4060684417837979 -1.3624900429722149
Ni 6.312054737551153 6.123270671440566 4.714897298390528 -1.632198507480789 -0.10456650845918121 0.5664104268868567
Ni 6.117171760003462 2.8332538595329764 9.249680998049334 0.016004345848056305 1.2557458101354244 1.2918759801990785
P 0.3971137779491597 5.721434333411451 12.275881658320046 -0.18952449865881552 -0.19736842018326653 0.3836957520610231
P 4.294798816891089 6.157934335250253 13.002901941037349 -0.7628398801956218 0.6408443776267158 -1.7269089490814966
P 2.949570113776725 8.476631229402392 1.2735883405753348 -1.2593852066602245 -0.40962404189101065 0.47460867429251175
P 6.500802392250176 8.115430026679592 5.920957035077788 0.39817800483759813 0.3456609087754886 -1.6868280219002112
P 4.787244952599203 1.000066727185859 12.643141719927225 1.6115666901630503 1.0355513931965779 -0.41029767091926755
P 4.119805572910669 6.279666786964266 8.185444619692253 -1.399374831813706 -0.37207256599979793 0.14935178309467181
P 5.223062240471166 1.3522105912819147 3.7568038258859904 -0.08663100702668307 -0.18378553929250926 1.1814136750807525
P -0.03879908987815995 6.051694939157063 3.405157887843083 1.3508326612389445 -0.08205572895117481 0.3703936356354783
Ni 0.862155775028318 0.43172009378563314 4.565560445283952 -0.7392726343986429 -0.23850581365352475 -0.4948100889410511
Ni 1.6935857804076808 7.0332100521506575 4.567371913009302 1.034010016851387 -0.28746604560231137 -0.6850789219650588
Ni 5.99582162811088 5.932438463429457 9.129561571867644 0.33866519418394575 -1.1221471761099513 0.0738978757307308
Ni 0.030043965967404197 2.6836393694132203 10.14099958288519 -0.6130358400548797 -0.05341209707255318 -0.08151322618414349
Ni 2.721170431883636 5.374005747113038 6.28071634590262 0.37271791289328066 2.8585121283980253 2.226732689187055
Ni 0.613620582539896 0.34102928071590083 9.112108672019346 0.12454500846363711 -0.6479969295110969 -0.17822450026496403
Ni 1.9457621140525827 1.142462654962894 11.491400527012333 -0.09607364049682164 0.6708584074903027 -2.0970017656471045
Ni 4.625268788253199 6.914408719067612 1.7963460661258548 -0.11392712373847476 0.9813291415179034 -0.8157580683508919
Ni 5.8319884817750705 8.284897838955056 7.91879930137679 -0.7800007082456244 0.38385721733955186 0.8222351914348033
Ni 5.577008469439679 3.3210302317079057 4.741676071025859 0.34442729347870354 -0.6420139724547845 0.3718342247367467
Ni 1.1661755867444688 7.65266829424968 6.872734948246411 -0.8338990009259767 0.08546912550809796 -0.021886258550130048
Ni 5.143621643289667 4.867714172157409 6.798939030142744 0.5929005027575853 -0.0730992910888354 0.1830409478170009
Ni 0.9939314043371903 7.5356602231862 11.144657385536625 0.8261234707456159 0.6770501381233113 0.3391408482687836
Ni 4.639023198971802 0.7451012794150935 10.163208723369138 0.24167572674107413 -0.6607447160950685 -0.15454001216383062
Ni 8.453100354678641 7.797558403718903 4.835896060161509 -0.7479539642227248 -1.455317922838229 -1.011952008610083
Ni 7.3809663411531545 6.396074069736925 6.8452497942267225 0.5242985853184712 -0.5312174239254916 0.9005641063536942
Ni 2.1570302268044337 5.496247958588957 2.479999447384195 0.5278726758229747 0.44017620364625487 0.22444290780255538
Ni 2.6756652702805295 5.391583356045944 11.26944020325448 -0.31837404803507746 -0.8257953979822359 0.3550125251937177
Ni 1.1356719267060589 3.7494469001793225 3.5700032714203944 -0.4729731955716176 -0.6095939042528663 -0.0011778223581850682
Ni 1.8122596735502496 1.3043750993386607 2.501182696347305 0.830494603230118 -0.18241616974880842 -0.16227491891424312
Ni 1.5177732796670522 4.160504428187221 8.132006321794467 -0.22567086667238556 -0.4307852493496581 0.1421804621572132
Ni 3.7092487018117852 2.991133740077942 6.901352497165764 0.30328707179496794 -0.382883797682689 -0.1475458402341846
Ni 4.352783989808031 7.19077133284443 6.22160241922717 0.17078064239240912 0.48652573744507177 -1.8212509515991924
Ni 8.628257450011104 7.589731169359926 0.06655004720227098 -0.9036617714424114 0.0323745596759636 -0.03182202960660326
P 0.16825440198506558 6.064238670441136 7.995579134658191 0.899917731018947 -0.3525586643365864 -0.9051671523433442
P 8.882873348230845 2.1612630533988413 7.854529518823765 -0.430343019605917 -0.7339481368619359 0.418704406925724
P 2.124478424865504 3.4103474242763556 10.306230927425087 1.1729791711601543 0.6620045566440986 -0.05974729526196161
P 4.043951499768302 6.206953198069362 3.7310509447714972 -0.3054136312196676 0.35776694801040326 1.343637429042086
P 7.198672609153992 4.265988287490442 10.758798374902145 -0.2423429280114278 -0.7786562784025881 -1.4214814339047583
P 6.058239890385836 8.052074170556843 10.133938499897486 2.569710651813742 0.5200878896712333 0.557023586355318
P 2.6232874547445673 8.807610960526409 5.630250145715015 0.7794723465459802 -0.16024631851998852 -0.1507959717403661
P 6.9474884864742315 4.049158331622069 1.230322480783463 0.5867221418610153 0.7711180610440138 1.4762945250898962
Ni 3.000464164291422 1.8916456536144013 0.39853473328547595 0.3111011685227481 -0.5677767111067641 -1.0841673544320682
Ni 1.5549857422862763 1.4031137446495026 6.634414066987204 -0.48354197222639955 0.7294137393266923 1.245763502111732
Ni 7.261236517075206 0.8384446638173214 8.999502740614052 0.4600729425701818 -0.5862752841315838 0.25245122009002335
Ni 2.5879683855267124 1.7842775037627023 8.905350112589796 0.710390404146654 -0.004722088066017673 0.5657337125348063
Ni 6.833102037043417 1.8949864006254715 2.3090260232405275 0.6825612977495277 0.8857015874195651 0.3875827458202551
Ni 4.336981437188908 6.953714837851811 10.532521478303284 -1.9706536425364576 0.36766749495356676 -0.6525120437726311
Ni 7.598670170899084 6.334984823984086 11.212990681620283 -0.7640488129020583 -0.03655260231305318 1.0795460536099732
Ni 8.009827830288785 4.354631868944944 8.33190315071463 -0.7492274316185097 -1.1238687867867483 -0.13473917538781957
Ni 3.311863658846468 8.575069480567823 12.370248203387243 -0.3855847415536198 -0.8953859045868644 -0.23254265409155436
Ni 0.42502039405771025 5.329356253681703 10.14880709980997 -0.6787907749635019 -1.6402213777852654 0.11435829773862241
Ni 8.935169238090788 2.9956760636706505 5.590374188339827 -0.7106040628193567 -1.384920604061589 0.6871255200814425
Ni 4.299850900245705 2.860507801089228 11.530196886034625 -1.5395899427144322 -1.19359787585177 -0.04495136789970968
Ni 1.3620143638457365 3.329113565075291 12.384197415157717 -0.21630639473835006 1.0915361360923137 0.1933166187113961
Ni 3.237930287664145 8.760849605224315 7.734742346772602 0.34142681608948294 0.09956417014858336 0.9322264704539817
Ni 5.989950287996057 8.376472539040522 3.678025916394971 -0.18890306302473273 0.4188249916639884 0.2115053738052809
Ni 3.388846485747343 8.487745812782546 3.477741305941641 0.08688194669522456 -0.14370949720722992 0.4890125084226675
Ni 4.09014847819114 3.981951968726342 9.192219239173637 -1.0884814084263899 1.1240639335166898 -0.021617064049143417
Ni 5.178203381423335 4.866321435665054 11.437681861245496 1.1836086258495424 1.0687024260272497 0.015489868105483
Ni 8.460045831434625 0.03571231246275417 2.315474484228653 0.42272818337313645 0.06629846611691807 0.13294223138839684
Ni 4.648626708772016 0.5957207326146411 1.6614909416838894 1.643655343167479 -1.7863636528037041 -0.6956901218220019
Ni 6.455288127794178 6.125382533311323 0.2638143310663005 0.7457808678308059 -1.1655695089596443 0.3252180675401044
Ni 8.118342939604776 8.6879448564187 11.158685792127255 -1.2822284298069853 1.7367953549572732 -0.013860302921860001
Ni 0.31542386581824555 5.243589173740821 5.497980231494152 -0.47103664067053713 1.3115305212052122 0.7491505556339872
Ni 7.123373810037989 6.4041483002514195 2.62466016496056 0.5284912832435802 0.7066725889754345 -1.6840154921520805
P 8.990441760846151 2.003829212645545 3.2906075870602276 -1.3106758865144006 -0.24710024019075508 0.4610175658716382
P 1.999550871786681 3.432148756950779 1.4380787128898893 -2.1474113284479084 -0.48453827470139776 1.468969452183393
P 4.861942963424387 1.473105580529936 8.049376995245181 -0.834161253448428 0.40503025187274116 1.4382913063732454
P 8.977178904183674 1.4960447698157588 12.097647798710359 -0.5367015869685143 -0.5166318128018328 0.4710986042567242
P 6.67453033967872 8.26103015867433 1.5125537038192385 -0.23845953379662155 -0.12920667560536456 -1.5018762302137425
P 1.9470638220160243 3.598284925068062 5.8300941780884115 -1.6319488533638282 -2.630531125535224 -0.7189110400231554
P 7.1234284271553365 4.4412273084989256 5.917532541820118 0.5628365934926695 -1.1450053116550476 -0.039812504011247564
P 2.7083445121599357 8.714789169594846 9.999869861945319 -1.430652558881065 -0.21288605620289142 -0.20179046051036215
