# total energy = -340860.4641485798 ev
CRYSTAL
PRIMVEC
9.31674198908472 0.00000000000000 0.00000000000000

0.00000000000000 9.31674198908472 0.00000000000000

0.00000000000000 0.00000000000000 13.63599365173713

PRIMCOORD
 96 1
Ni 8.64760435208301 1.8408391682013592 2.7675065595445068 1.1420230890982719 -1.3288666984908146 0.16874072914424487
Ni 4.183124028923031 0.6947718174891642 2.970710294472297 0.464917929367309 -0.1526890749980209 0.6173488656079368
Ni 5.506595192380131 4.767153323288316 8.701155122241461 -1.3814881813412723 -1.5179962757040566 0.727863878341069
Ni 0.012156485073027844 1.1231612086210343 8.901480915539073 1.3266833176862507 -0.773279587471707 2.1190021811775956
Ni 5.9470069074989995 3.7082962685407015 4.240207707680267 -1.4968867474189511 2.7422033918012514 -0.2974740646576167
Ni 5.078407042877306 4.262139318549295 1.370472263929518 -0.5418610196822667 0.7900521789443555 0.37821441723147764
Ni 8.006640446833854 3.0631305126110324 4.688559150404312 2.2934227343154374 0.3218998018001489 1.0963474414380279
Ni 2.7364948518390495 8.990143691594767 6.523663863852108 -0.6504947562322861 1.0247897838046995 0.6903825935661595
Ni 4.962553355045377 1.1623381090901346 7.182610013000289 -1.9872143751086162 -0.058279709577499623 -0.20496423025265342
Ni 0.37444079608637054 6.994143500703183 3.3741308168152995 0.9306562977533844 3.2433707904188984 -5.285618857363891
Ni 8.869920451724786 -0.09224320003911256 6.884472402919124 0.6108244342258576 0.26869287875986625 1.3831154325320503
Ni 3.8217648703987686 0.8781728171144404 0.8644688211810279 2.1984801220992654 2.849404509669802 1.4250781501170813
Ni 2.5778400508668002 7.150785885384986 12.628689238838925 0.9354318647651567 -0.9504651049491952 -0.2066704143104828
Ni 7.585523704573847 3.5799301960880823 1.8306187021336768 -3.0770235012074942 -0.5164803748256331 -1.9883993965556528
Ni 7.828392537256013 3.4834832820200377 9.261239457773064 1.69857050714812 0.16016969964578223 -2.3971124965966197
Ni 4.944124839200459 0.3237968494585619 9.499392155611602 1.1059052603297923 0.6344703557795718 0.5006819743407958
Ni 8.823001338582719 6.872532066262478 6.718917622758428 -0.42550754589048656 0.038707443872526885 1.5541842955888394
Ni 2.281381317709423 6.4281700524994 6.860813468067462 -2.098987942839198 1.1845391080836114 -0.06447349709303735
Ni 3.380878001433545 7.55120082673124 3.7203493377765815 -0.020184445367674917 0.037494397401032206 -0.46127287641555403
Ni 4.807122146834676 2.498843394724707 11.413585760948136 0.6486577030235474 0.4544661379063657 -0.015087233350425628
Ni 6.819939057190403 8.347903392679912 3.56579856169295 -2.4031733580787193 1.0802669909363978 -0.9769798634102723
Ni 1.0304782583554908 4.039403965513675 8.56809527512622 -0.44857831166702106 -0.19311015912754484 -0.1847720715754947
Ni 1.2665831362836575 6.4802320072726065 0.9705585633074596 -0.06991420849263444 0.06842888219635956 0.5955561952128775
Ni 7.034829713390118 0.8928513442699857 8.297161620260207 0.04508892191883848 -0.6414136198666244 0.7232304933341157
P 4.021161784510465 8.149736288523489 11.074677155827057 -1.3155180450980506 1.5339841664918807 -1.6468661367952926
P 1.2115770910114652 7.934640663997896 5.334769313121754 1.4470628819182885 -0.5212346016811669 1.0859154474714265
P 5.773724821452674 2.53621284722924 9.293025386745818 0.12199421701732541 -0.2216686874915279 0.72204341500455
P 8.505579935733197 8.882395569377135 2.4915688825044278 0.48595135299884046 0.10162825176646367 -1.322093641433039
P 0.8342658066885833 8.0529353382562 9.102312607931921 -1.4508876549810175 0.2865337635960291 -1.0899135128872264
P 7.539200862925245 1.1195742629181558 5.540181115923784 1.2422413478910863 0.22493296006509647 0.7146201259572854
P 1.5020078920395896 2.5101446028742953 3.1947909850650484 0.21629276789159524 -0.5425567601977107 0.4492223730089231
P 8.916727763961827 4.45821947247859 6.7789575037793615 1.068278965336586 0.18967053731837658 -0.11925522081960752
Ni 7.880463808771304 1.819904448735469 10.848619452563785 -0.574510687396488 -1.4001181377376337 0.42731348875097375
Ni 8.687778143955246 8.56122883620928 4.773702061300142 -1.1202939249512964 1.4009110659525743 -0.7687413332817212
Ni 6.1465622062261485 2.9586712003495452 13.45568519167827 1.2814491284387994 -0.8900590930573123 -2.5363701286800837
Ni 3.1735432230650886 0.8383241795409829 11.128894073044618 -0.9334698559427793 -0.34230124827463626 1.1151555752834665
Ni 1.4270919689309012 2.4117039059999756 0.7936410844994121 -1.6035070530833675 0.5700716777885279 1.8945901266129754
Ni 3.986503503952783 3.0587330103467245 3.1157151366152296 -0.5122262275349695 -0.565065482823188 0.10955599125397261
Ni 1.2603409190864405 0.2648246670806156 2.3443680842519674 -0.10703913836938986 0.42688205764051 -0.1406686534983771
Ni 8.022898161772874 5.9927893781066475 1.6701778817036566 0.006905468870581655 1.3095852245533834 -0.2570578656240992
Ni 6.98074602558438 6.610619812757757 4.905752905247537 0.7322013293741583 -0.362809138420001 3.134353445277215
Ni 5.4870952511953925 6.198903663261916 3.344840843047224 -0.39966178847197625 -1.3139609850235758 -0.8850323292666822
Ni 4.4086357711001 7.812880161683824 7.3138428469925865 0.1047364583781422 -0.4974840362287884 0.16838874512146484
Ni 2.4405112725280276 0.3256834897308551 4.368072539408693 -1.6284341553423503 0.25254532246572636 0.11292927860157971
Ni 2.955615308945535 4.034363608045474 7.139615111624594 1.255551177626115 -3.378085283216369 -3.414151175700991
Ni 0.2865382661848451 5.747824278455267 4.902616889861592 -0.7656819776301071 -3.537407547260192 3.7813723271457587
Ni 7.075991079923408 5.196077495415888 13.1654565639534 0.24981763912191818 -0.9062832682256584 -0.22239399569332666
Ni 0.9405251135209692 8.996497709697008 11.057795219168316 -0.2204646398810977 0.8221832551509454 0.38733797679930065
Ni 2.700467010194814 5.551222386969189 11.018305276165147 2.5519972936943787 -1.8242465438924067 -1.5569214920143446
Ni 4.880966644603543 6.8315011341183824 9.370423289946055 -0.3764102741432033 0.8626598751087531 0.4398519875376167
Ni 8.7797530218223 5.768628563531962 9.398595254663883 -1.2773446193521225 0.12583621647123489 -1.8427402318212198
Ni 7.589464686475971 6.601563939450751 11.338355863631168 -0.01127223047970962 -0.6714322777159016 -0.8962953037750112
Ni 6.121975323862781 1.5465419192077943 3.916707130620021 0.5145332784015914 -1.2835859722761442 -0.49881663899728285
Ni 4.242695277817068 8.555974193673116 13.257185479829399 2.0021090328322617 -1.0689461666069395 -1.175970135467678
Ni 9.39695923475369 4.772920386639177 11.57489956011156 -0.9880623464766789 -2.019700777772096 0.9458445754580486
Ni 6.999808079891104 5.270527581420306 7.143543050087798 0.14799424062551286 0.13764992127671133 -0.6827893545999337
P 7.607278297343252 5.129770241994107 3.6246924834373786 -0.6708213836047802 -0.5715323214944544 0.3320687719133507
P 6.967991405669469 0.9952237063043433 12.649007189978763 1.0566966598156253 1.4424881180634124 1.737914041942749
P 0.44591604634292153 2.9224290736373453 10.391350024315598 0.39326077004163884 -0.26245872492469635 -0.9165507115899377
P 5.628318427725861 2.2788937475726216 1.6811269170024168 -0.44809545849333154 -2.064659344760657 2.626500921329909
P 2.898252127925737 5.335549124434301 8.518187351123157 1.2007103185268353 2.5532622764497317 5.427196910050414
P 2.8426591279021647 8.334887903986612 1.4429201820597846 0.8229455872382666 -2.5019471711155234 1.5210227212352063
P 8.7511040399097 3.598554363516793 -0.20784906253157018 0.2817345424351729 -0.2850540937267091 0.7158534841437543
P 4.998758214789235 3.9769631600573354 6.140819366404709 -1.0064272221371118 0.7713219495247038 -0.1597305552258346
Ni 6.5539460706522785 0.24599459965181686 1.12260872581537 -0.5916833425210325 0.9548634911272071 0.32438554433648004
Ni 0.02728221584867216 4.398517789195357 2.7154446047713003 4.038443048285665 -0.28284860143495805 1.1371894151550543
Ni 1.9219320913126667 0.09926057017783464 13.561037047831539 -2.575452439393526 -0.7088413144919793 -1.847883466585056
Ni 2.857687032885912 3.018223815759412 10.16114730249853 -1.1026448444109656 0.4816568393885446 -1.0231507055393798
Ni 4.01530155373875 6.145565314823011 5.558536029506227 1.6246410068485053 -1.5800015137622594 -0.9733489515259045
Ni 2.370216453493697 4.274782137559181 1.9723515044562172 -0.02482554368411208 0.3554249301407879 0.21054815209833416
Ni 0.718698142838676 1.835789493991073 12.260408672619418 -0.08003741296956539 0.9448279612680761 -0.6128712894525574
Ni 3.416971060272379 2.229337996420387 5.324446362891132 1.8704880913584496 0.5114016747511451 0.46804619058364555
Ni 0.8889457659877865 6.631657016386587 10.796598491455756 -0.9379829133217845 2.719783886455471 0.4772378843852426
Ni 5.088329373198255 7.992590799769074 1.9774915510647317 -0.6108455172717803 0.5632127458851655 -0.7796808630123605
Ni 5.208841432072884 6.768827410109908 11.886659178795785 1.1158808834852654 -3.4066109014598878 1.163687461445583
Ni 7.965842433241894 8.375657967352314 9.966575529112863 0.9607029806271197 0.4888181330236743 -1.5523433857253588
Ni 6.27148108410717 8.7814766191081 6.208018232044061 1.390757008237708 0.3930463400379876 -0.9295854332867087
Ni 8.67627196747978 2.277645304133178 7.11516611704409 0.0786274199959162 1.386722433157018 -0.9359944221368461
Ni 8.701706673372918 0.7280633319829184 0.421665498368838 0.9052663969253699 -0.28741359509782116 -0.1569391085236265
Ni 7.609626116348772 7.539275396861929 13.359796350461142 0.48847360520006206 1.2043031780844162 0.9037396758681984
Ni 1.2678688466914425 1.754128249612556 6.052540440122932 0.3650087171744811 -0.5189460627573063 0.6585788187920013
Ni 6.242617817126606 8.834414347637333 11.563418538839722 -0.6154395644003658 -1.2251597098184512 -1.3442575791245879
Ni 6.672175527715985 4.099515585448666 10.975720311441206 -1.4164960648750249 1.2737018803932127 1.6753668153381467
Ni 3.8080599427911475 6.123521903048958 1.3455276186700722 -2.21976371406839 0.891943968784851 -0.21652699538958836
Ni 1.7163768106825217 3.9421558116262867 5.064394662780866 0.0686242860366173 -0.6905252897916108 -0.9640518424946944
Ni 2.808503951417094 8.930563125958644 9.051449717865106 -0.7321835887623455 -0.2764694373814916 -0.3403623793807106
Ni 6.510185333077162 2.9699910419833047 7.248443975924132 -0.9067666356199803 0.3089301290133583 -0.6591791713801616
Ni 2.3403003946574823 4.4927007349366495 13.311007367182535 0.5595093288916493 -0.08411363992146804 -1.1240173965494706
P 5.947864047770857 6.196621061450993 1.0241698922894675 0.03220383842605422 1.42203653507728 -0.07431388022222685
P 2.817857960470834 1.8011964306279888 7.856773196996554 -0.17039137737379043 -0.5893793769782043 -0.49460414357783206
P 6.440840821735542 7.261888034753363 7.653828467498736 1.0308316191234055 -0.8216680060774236 1.384125104743487
P 9.937796112811066 7.65634026116496 12.82766596788257 -2.998383225695772 0.3879306160779771 0.21119915541877177
P 2.269483838066369 5.599911681107482 3.6411374648923154 0.235071334050679 0.5529154777242155 0.3342511242766501
P 4.66951386623334 9.202956714309437 4.858340936449152 -1.081945149969769 -0.18033460462943135 0.6893353832485676
P 4.384887395524419 4.65945178478111 12.129775836817421 0.2419986572981316 -1.0663550088409959 0.23129361217580166
P 2.9077738383370137 1.957596580015572 13.065954690155554 0.4846285204223589 2.1312223773928713 -3.453488282737717
