# total energy = -340866.7644892674 ev
CRYSTAL
PRIMVEC
9.35438522345004 0.00000000000000 0.00000000000000
0.00000000000000 9.35438522345004 0.00000000000000
0.00000000000000 0.00000000000000 13.69108833026894
PRIMCOORD
 96 1
Ni 6.297736874455513 6.469146627139957 9.318168668737805 -0.00678077036725929 0.36932405672038326 -0.4805288964316885
Ni 5.680450355688113 8.499805900360428 13.65264367922389 -0.24619084100260827 -0.4150287578463498 -0.28528112213585066
Ni 1.199924395101749 3.071334616275725 7.330208421772703 -1.8104597745209594 -1.3982474030774823 -0.6385290992299777
Ni 3.177572367925869 8.914719651742145 1.1528007446911859 0.1432163596208953 -0.39732388436741894 -1.2018745140382656
Ni 5.920717737138668 0.5351344378884789 5.945957739031987 -0.07674254426837751 -0.25522801150421204 0.38163861242167824
Ni 3.10074480304935 1.219241200345876 2.8238278761915483 -0.7208252263267328 -0.43945140966508833 -0.5422734246293371
Ni 2.1849692099309386 4.187948857622417 13.553697670763961 0.986651067951449 0.7667770104664988 -0.7096913211971003
Ni 0.45553516870501753 5.971502693879765 10.50488467206972 0.22513247767041228 -0.8445891336499713 -0.22262488075721013
Ni 3.995529155989639 8.920781293290906 8.051770142194982 0.1182928569063382 -0.8441700438346816 0.3236548368180426
Ni 8.718361753979691 2.5216335299000043 1.0749993883251199 -0.7481478254010858 -1.2472298022446133 0.513313032841245
Ni 5.201795824193335 7.401825594145117 5.331118327408348 -0.4340405230621621 -0.08084293958999626 -1.232309433489355
Ni 0.9428191204601882 2.312057885982612 13.061845972761477 -0.7215559338451701 -1.420375088214457 0.2636674005208169
Ni 0.8385841426612635 9.297987518309872 0.5646643607914615 0.5410349242365456 -0.3784306470073418 -0.4995445183022429
Ni 5.305217905926537 6.959484785632275 11.689081539492557 -0.8878340603815355 0.1977502290027175 -0.16857437876970968
Ni 8.672646873966109 4.3556542738048405 7.267763223996836 -0.8782420458177262 -0.11579708706767798 -1.7682186064635612
Ni 2.0510424783666954 2.5705850271603023 11.066848421881046 0.9689485084653635 0.36094894528281063 -0.9074443784132953
Ni 3.159050685415762 8.544725657639992 6.001186964136998 -0.43204637545026886 0.6260538495811024 -3.190510452084757
Ni 7.8618648992787294 9.568132805789357 0.7549222640262165 -0.5787411805380678 -0.3218962022557231 -1.1217237154192874
Ni 8.991650114854831 3.1724648736579306 10.228311051145313 -0.26984190476264497 0.5704316322311078 0.49814403841029053
Ni 2.8648178562880324 2.860000347958383 8.607696571858822 2.5214546450208317 0.04859693507209695 1.2224883336338754
Ni 7.897252538135161 6.827887295959454 0.420778015404738 -0.14268079883239942 -0.0439604647413501 0.3661847397604532
Ni 5.577308905508094 5.080740726535104 3.754315110766346 -0.5477809847111277 0.36890291002256465 0.027785140533068277
Ni 1.8312986178389565 6.574813761298628 12.827618717773941 -0.20516091964449185 0.19588540787983683 -0.12077242879508232
Ni 4.683806103327342 8.555071607567355 10.165482323580095 0.7088418287126115 0.3878902497583449 0.21202936462955094
P 6.290646250545078 3.000811906960727 0.6773949911437597 -0.2608592416480604 0.00735129815874863 0.7760620353128506
P 8.700055222327025 3.0227479400345656 3.1331100400779954 1.0387963824964368 0.043219729920583635 1.1252785226500814
P 3.8652132170763562 8.71386229474365 3.5271663189886064 0.1947752055347936 -1.4955536304298243 -0.03891236079448137
P 2.309597682699704 7.210949366054848 7.425416417944228 -1.0925532645029183 0.06592694171011226 1.2685468185548345
P 1.4430729271649867 0.696057924868969 4.914087678677118 -0.11547647050346564 0.34367730268655644 0.030854266376695253
P 4.480844009679973 1.2613827052489222 10.717123509426822 0.5818185339118108 0.18090153287649488 1.001414856524185
P 3.6881814789431364 1.34490800986142 6.890889079649136 0.7769290112988362 1.6976667643869277 -0.9167229755017439
P 0.8675902199983037 4.186564408626712 11.741737373254878 -0.2371045624306239 1.2093119441529172 1.4801684062230056
Ni 4.2857583082919515 3.720528942640081 1.217659373824432 -0.18136818810026828 -0.5033091275509978 0.2716851286189708
Ni 1.2149568919672753 3.856073982827682 1.8999803841650713 -1.3825713871031222 -0.4478856564753706 -0.016970309305751417
Ni 9.187764798604523 6.865136457452001 8.010710004210203 -0.35022821643119684 -1.8573296995996205 -1.4105254491138868
Ni 3.1203328854615537 3.3351376306532643 5.833444130414151 0.8829605343393181 0.19633792203622316 0.44603960440556734
Ni 1.6345571902871534 6.149207947740624 1.4563757982243923 0.23399429893641635 0.34093290717219993 -0.24366396081569644
Ni 8.300557497600188 7.7535785372903465 10.04044132242815 0.6604996899637979 -0.3219975037202777 -0.91697160117744
Ni 7.56953101032754 4.6340688377181305 1.9306075764410013 0.07226985320900457 0.10493854708661927 0.10322542105025447
Ni 2.9855081329271234 4.708931981722365 3.0161736781819886 0.8870395895046981 1.2377455169032618 0.8460240663242848
Ni 9.043089878553355 8.81529189244925 5.311840810581667 -0.6726756632046996 0.43240453012063595 -1.6393957965601766
Ni 1.8426174238173552 5.125566939963606 8.344184478858084 0.4262904468030981 1.0983505879109858 0.1954596331963279
Ni 7.7235696698699305 4.26551541892232 4.7046139975573835 0.1640834328778916 0.7903812801490001 0.21438758044908238
Ni 0.45637425704903606 5.722273811497552 3.619636286639571 -0.5528275459960995 -1.4382388558687553 -0.3388086617403455
Ni 5.523904720937286 2.8305714524145467 5.320753668710773 -0.5024856032084378 1.014225378025292 0.12421307904551511
Ni 6.8401976667591 1.766070490494019 10.045452466529495 0.5822306817485651 1.3286900637036343 0.2507283238616456
Ni 1.7565570808411006 2.93168300102654 3.866883910256308 -0.8406489180553007 -1.463799477946679 1.372717377127178
Ni 0.9831458746526485 4.439965346766252 5.6565686105122035 -0.035595894826738694 1.4297932962045632 -1.8049835818977364
Ni 4.933343680418057 3.270115299780661 10.149532161535657 -0.8479634494388428 0.5698323080842123 0.41667066432514693
Ni 4.081364993723347 2.9516359044578824 12.53390412158109 -0.634118885977424 -1.617076564237686 0.02162709135147243
Ni 4.144993521215138 6.945518688668845 1.9795123017757688 0.36439448062924984 -1.218376882568663 0.2779650480904116
Ni 0.8254786491275968 0.6668909521081036 2.788162412097465 -1.0468429069499972 -0.15767598668965102 0.49453523801310956
Ni 0.9144949777973838 8.562676722658626 8.935666926310265 0.876573914086684 -0.06765626569639314 0.8242573640711546
Ni 5.317967932826171 0.8785750744284141 1.7833602004856508 -0.3135871681693954 1.3751339569884706 -0.7528313469196841
Ni 8.477112162092995 0.49772344553359454 7.258070210149879 -0.6771133872610791 1.0015747791408172 1.3352764586719004
Ni 6.960177010130127 9.14913118811627 11.02261247015274 -1.5046717906810085 0.05257854542766429 1.7120256042117612
P 0.12492594221513977 7.642298772068006 1.9818537043678293 0.04376326112887947 0.34363847902882105 0.10784517921045299
P 7.2029981387146504 2.4778082356778577 6.692792201695457 0.22975017894808172 0.029982148184387075 0.054019648749565025
P 7.2763084547912715 6.669424012261871 11.638465897121883 1.7739567944989192 -0.17833197237710577 0.6739483592695361
P 6.31437832555929 8.886806166585497 8.01091580068254 -0.9803611211776794 0.5782570418127976 2.859575793775849
P 3.0461713203402767 1.6498890274760754 0.4600907542516954 -0.5125121342065044 0.14943611527836198 -0.6262600520546375
P 8.492902364152116 6.203164041032693 5.748737366962751 -0.13245063646395897 -1.0190243420758323 -0.2229861207513708
P 4.177144542824855 2.8648272106731385 3.327673766777095 1.1269816213841173 1.8555227282978692 1.6867496032537919
P 1.1330592503632415 8.050374467937152 11.337562455974982 0.8642056223293182 0.3449409998903285 -1.7966562929789638
Ni 2.7270932443707063 9.452886781282023 12.11060229307472 0.3192510513233921 0.08632350308859327 0.7585872755668548
Ni 6.324714921101547 3.810349748428994 8.29056982062239 0.3704975082031942 -0.242741191891111 -0.32842808983696986
Ni 6.393937370886795 2.7602638939569886 3.00116830903327 -0.6428616651670606 0.5925847712893794 -0.8616111221292645
Ni 5.620236178760054 4.601852335412672 12.882383029939177 1.2945540412518737 0.673792293307646 1.0636445518883682
Ni 6.337754933939471 8.27637641210088 2.2549082056153154 -0.5463509371328203 0.368749672274152 -0.6815626812816843
Ni 0.1473044377044978 0.7711848625331968 10.851269133602548 0.01215411886403068 -0.9125917269421896 0.4375526499804787
Ni 7.810743184673813 6.9273244096374516 3.527673326661358 -0.17884850700220808 -0.06371193633666447 0.45371846110706376
Ni 1.1010017726045866 7.017435201364654 5.574873959064972 0.663464943239709 -0.6264300019735985 1.0100339656517636
Ni 3.7816598493085403 5.310549905437022 11.871282510835417 -1.3201568294216424 -1.744078004661616 0.48495659318573897
Ni -0.14232790482804483 4.781531364530921 0.21444460136512503 1.2017906960752076 1.1505820344118767 -0.9768891034686789
Ni 7.72311130499973 0.8571769184981769 2.948978323649235 0.9663812619588196 0.8261327267169966 0.5268532334195248
Ni 5.384196979377463 1.5124731102672513 8.266500987744354 0.010978353388374641 0.4002387440213688 -0.13647569846295204
Ni 7.177123909511137 7.820621415345869 6.593655363779364 1.6123274795884748 -0.05693168019003743 -1.493895526001111
Ni 4.447757549559645 6.534103477316817 7.649115312494832 -1.0225341550013036 -0.23090434715718297 0.9951521634439249
Ni 1.6935646515365246 0.696216949415773 7.235041584895646 -0.8465534564651936 0.07848472377046484 -0.6650698258329836
Ni 2.611706904086782 0.6765989329712292 9.734760596807556 0.15473644444535287 -0.3973408536482834 -0.0916801394148163
Ni 6.459839013959373 5.6870545515730315 6.7085646304228765 0.2613894031199176 -1.8130355056679355 -0.5795400222902793
Ni 6.882722701451497 4.618531204056874 10.804732938576649 -0.13685365062766108 -0.054282929713280706 0.9740439207104
Ni 6.007021294127681 1.426684044459074 12.873414980937946 -0.024988808734853735 -0.13091363099414227 -0.42191520055353793
Ni 7.708247187066115 3.4923474267466266 12.848250749563986 0.34413778726274286 -1.1144102124770097 -1.5861402796701458
Ni 8.91629118843997 2.2358009385975657 5.229653183039343 0.6988605491301835 -0.889816380918887 0.4332298542354087
Ni 8.763234739333724 8.235750317585024 12.442762476615194 -0.6905085776210624 0.45654641747416214 0.7242715330041204
Ni 2.25425714041193 7.042186904355433 3.556287455262452 1.502173449739187 1.6110229018444384 -0.035372208851706825
Ni 2.909372792548456 6.911403246186845 10.566576841844546 -0.6349074433169903 1.331530875586539 -1.585981128384462
P 0.7459654402871118 1.7547610389007267 9.051397507966096 0.6819951408334125 -0.6518993498892968 -1.0505851476012489
P 3.9556420578971663 7.143513603824868 13.385119490451139 -0.9939874537118623 0.2386837339922857 0.4696153348429783
P 6.768028585665426 8.856011530816168 4.179108963697138 0.16512164433441884 -0.6300372597088827 2.9533457258401588
P 4.431817677338826 5.247875525226055 5.919136846055736 0.5737421846615797 -0.6733228098703952 -1.0879324779014554
P 6.224379786453362 6.279608076119863 1.7597020251137765 -0.4073861536994274 -1.338304703975263 0.5541424081527812
P 8.06802619263239 4.828275226906176 9.118113917981415 0.4366082837893384 1.9485251860685346 0.651340134951717
P 8.175199382793146 1.2505316185258293 12.486477389093087 0.009151327481964885 -0.1576515612096188 0.4595661781370924
P 3.7145140730168493 5.009890613741392 9.683843743236464 -0.24717634484432913 0.23872050076749207 -1.3315920678417776
