# total energy = -340862.7519422769 ev
CRYSTAL
PRIMVEC
9.28199979843983 0.00000000000000 0.00000000000000
0.00000000000000 9.28199979843983 0.00000000000000
0.00000000000000 0.00000000000000 13.58514494393505
PRIMCOORD
 96 1
Ni 6.504426483907564 3.5293876853759754 13.243166847972036 0.6867820206990946 0.30560594973613175 0.17533329476009804
Ni 8.783974303379779 6.440668425810448 0.03636501965539132 -0.17083232156595093 -0.8794908306231628 -1.8140852870886888
Ni 7.656137045661854 0.553256395442722 5.3158403924971065 -0.14115844865060206 0.12338801204105847 -0.6030872134826
Ni 4.287467190530685 3.0224605366038224 4.96577811576389 -1.2551945656176449 3.495221143700129 -3.5395073672120136
Ni 1.4916545302720934 0.70989200208131 3.779170018556445 0.021622720476098246 1.5954335320466135 1.0040232406813097
Ni 5.395385276218269 0.9914568315101904 10.894879320995116 -0.6988188972589706 -2.863029042431773 -2.317377702469138
Ni 8.95573771364141 2.6092444599744105 13.407044271021654 2.3976922803594896 -0.037265569219677754 -0.872465291234949
Ni 2.137811679256322 7.4209961393036865 12.376243826051537 -0.41233012796826407 0.5748968670913132 -0.5598692833342293
Ni 6.883642594485188 2.521594533840901 10.992596504343961 1.3998998510792406 3.854586032325271 -1.9503599252844281
Ni 3.738492581694485 8.187865698471786 10.536163435648719 -0.3511178181250017 -0.5108170058922686 -0.7728959788800431
Ni 4.948596205537719 0.7549895273500026 2.0373776545033406 1.5505145600467363 -2.1497849708864076 1.5880112714406134
Ni 8.190594606475942 0.7213181440987143 10.03508858788548 0.6405114197673291 0.8750402510509768 0.40505082069803144
Ni 3.6065953614935786 7.629005759620528 4.923202509899038 0.901185284877461 -0.3644106785791659 -0.8693825385445673
Ni 2.005868049055345 4.6097939230216545 6.279080872164317 -0.6420437972514556 -0.8945022164303303 1.1027212061748557
Ni 5.348371946146658 7.735396043782582 2.1240780320354027 0.5523470068152552 -0.7991160889188367 0.5970536056940104
Ni 2.8350755203183966 0.9412969034337867 11.861964405068184 -1.0976044537735807 -0.5306836629092085 -1.1945741237221104
Ni 0.1411003232149245 1.5351128543382893 6.658215301141816 1.995726012124053 1.3707741373578781 -1.3388410360947072
Ni 7.128910162858781 5.616213338554635 10.686849280278244 -1.884361249796116 -1.010244281890357 0.6155902310456172
Ni 6.171815295400931 1.7973386367377124 3.7113260240531045 -0.8486571330717577 1.3301717904554835 0.6679057526198819
Ni 3.246620836945264 6.5376560439581795 2.4191472432848533 -0.3298018302560449 -0.08967416472838104 -0.964870738851564
Ni 4.550389122931168 2.483083515782241 0.9923516163115534 1.6348752829820037 4.156122697088036 -2.1141862478461912
Ni 6.034915077192403 4.371552828658764 6.388170361930483 -1.2380463359731322 -0.55347237866895 -0.5090277752023299
Ni 1.964888018992924 6.908369842522853 6.451585914227078 0.9584293541015945 0.65394132001999 1.2918957776934203
Ni 7.709731313743489 6.8897872784945475 1.8335189445928224 -2.1733792132665797 0.9512271799262003 1.8337457416320935
P 7.282490135092714 2.7832077042393917 5.531694231025895 0.10240755313464944 -1.2432955001872135 -0.3806099140468477
P 7.473764309384063 7.504979675431611 7.465621210771659 0.5376186994661452 0.7600769727385038 0.5381208359135443
P 5.813799272855599 1.1689379537805302 8.471968226704531 -0.34392567125193674 -0.3108633414803291 0.5950622862955945
P 9.241966748077395 4.511423286871816 7.428601810115271 -0.18794069911146344 -1.1574597353683163 0.2541514906105816
P 7.734477125781182 9.094364383852566 0.8212193820508841 1.4500523035639157 -0.8722323492885365 1.7493940175578906
P 3.9572971680277687 5.618830862558622 5.730635337328923 1.0880173243057778 -0.9490813372277912 0.11062608438969979
P 2.9197273604473386 2.873688640377212 10.71828555792613 -1.5900902654568292 0.5296593354097523 -1.486719319967646
P 3.075507166684623 2.580795129931076 2.941441671280414 0.9460392079673579 -0.7121768066231154 0.8517900222737845
Ni 5.953233477067985 7.474488305385166 9.756878273261709 -1.9077698585280438 -0.6955587384504601 -1.2951320252425307
Ni 0.344434600124644 8.581942291072044 2.451983246534869 -0.926850293743733 -0.762232585628926 -0.7950704580945533
Ni 7.179803368936301 -0.17303690066357041 3.115345510745305 -0.07140673387776089 1.3847917917932087 -3.0221911267486465
Ni 6.300343149596704 8.186547654469777 13.157851344842083 -0.6229636406915529 0.18068144644588882 -0.6466807818028347
Ni 7.295048681111844 2.586039459939064 7.736142316583718 0.028222999401435266 2.163133624279171 0.7043745369698773
Ni 3.1754371788368365 0.9023691235744917 8.685336345629535 0.05947321566496855 0.1938974309155306 1.1924341945609722
Ni 8.590602397085235 6.193368099433759 6.125678186130654 1.453959609038122 -0.9267099115111265 0.6766325909699186
Ni 0.5653554824611514 8.470493316902285 7.576666417940804 0.24433553296142438 -0.7706331509877954 0.04415741124350459
Ni 1.000896625524569 4.078213782211949 11.336518738067824 1.3354793187113259 -0.9677015234321399 0.5962503930664248
Ni 2.3358617135579927 2.8907211104031565 13.334227909110743 -0.7516905484470215 1.4094869805470436 -0.9017444998150405
Ni 8.27949760261136 7.621041803608397 9.41356865153878 0.6206630175828344 -0.45396657256212786 0.3651868946235582
Ni 5.397176702220998 1.6121905824556944 6.1398202413521945 1.793111255940183 -0.09891059572498449 1.6043015239602048
Ni 3.963915234037849 0.5968836519091753 4.395636834095448 0.7896238331576853 1.271056986571198 0.19784098894431087
Ni 5.310130106088408 5.905004204994523 3.9852294906703154 -0.4281105307309723 0.12398167976099937 -0.5293436039415463
Ni 4.3513180686279425 4.950768193541027 10.131652018632568 -2.157939224562426 0.9667918671336769 0.9327026387594518
Ni 0.5098166353765544 6.006642105149338 2.0572123603335526 2.2291862929338704 2.391316201629817 1.3055660760916612
Ni 5.873324738946269 8.844882787472555 6.928763324753916 -2.1221906062079063 -1.5438494893217347 0.04301429877799689
Ni -0.051931861879102786 6.1355319573456635 11.237265383716641 0.813191078954664 1.6318791764681573 0.20660330851797323
Ni 7.14862513088881 5.493171146367217 8.166438201439147 0.4087583514566057 -0.2514955410449733 0.4650048326541605
Ni 7.219864480997322 1.8217781427749387 1.3510322300578967 -0.6303789593190176 0.4845477877830946 1.2807852696025552
Ni 8.598993325098016 4.312250130568434 1.2573917011152633 -2.405434386198754 -0.3134771249540924 0.5171334350285997
Ni 1.2059081598368435 2.933603950468475 4.792893439900552 0.38239605941299304 0.1530102057828655 -0.5169346887542323
Ni 8.087629380319104 7.466032403372286 4.238538055656155 -0.082757897224522 -1.1469773477797536 0.5243410085206325
Ni 6.249319995518985 5.981942703111716 0.2141023251261214 -0.7069649234048727 -1.3111209444716194 0.3202280705246807
P 0.5222313103954646 0.7838175629939136 11.546286369187342 0.6253532239696521 0.46892447942354076 1.194891397852213
P 0.7510381799439839 1.9750796550084482 1.8152194815649485 -0.7300899394581104 -0.7245101313774877 -0.451601671874377
P 6.5369413299570915 4.743380467225133 2.675988537476075 -0.2994808106750004 0.06853763986008196 -2.7649039187225606
P 0.40786129082125566 8.868821065509017 5.333636771124214 -1.0510160644910802 2.255217941110942 1.5333128514564691
P 0.6032538885188784 5.008984897629703 3.913866689961615 -1.2653151989914144 -0.31659741575062894 0.8910890769837233
P 5.852013266913806 4.033353876143618 9.226677437654107 3.154773917915096 -0.8175879224707789 -0.3221926504502193
P 5.845358072903669 8.166377868439055 4.428757794745899 -1.1276984449454837 0.5305551077511443 0.024105377688635903
P 1.9885664010289912 7.773248039840238 1.01163775594093 0.366262129965608 -2.233852845171605 0.2925516876553349
Ni 7.414155305293266 1.2045065778347084 12.711906007962819 -1.0634548044750651 -1.9454717439541913 -0.8835225774903752
Ni 2.5633728159045384 0.12145125738499497 6.522105909334494 -0.09858200874097216 0.11603671388230984 -1.2786761936793527
Ni 8.42459382683237 2.2969237234986823 3.3814242513505968 1.327189825009024 -0.37697925927279596 0.1999156120851525
Ni 2.6268060040011596 5.139972481829224 4.120034761475651 1.5864238723488355 -0.4714295052335817 -0.8665404411100819
Ni 4.070361210199988 8.041228662248427 0.15867950304170117 -0.8982385435443112 0.6585456515612207 -0.055839989787755444
Ni 7.815063449903931 4.448444916775887 4.255736673482352 0.4536279582757865 0.9783021817661215 1.1300137233422216
Ni 4.409766822716972 6.215997615468229 12.095425269423794 0.0921766194352606 0.04703781811509319 0.3864602021800377
Ni 1.6050155964447652 5.487165692358069 -0.03637615805540829 1.1706968028838807 -1.193853443506002 0.06823142147357282
Ni 1.2252796938663504 8.356269024728297 10.161226327077614 -0.266262929162135 1.4187920599980532 -0.40951425578602374
Ni 6.247992669516964 6.675066772167485 5.942197179051175 -0.7508305144395714 -0.16939507489879216 0.2721407280991507
Ni 4.073350014204541 3.4325857072285264 8.190158352475278 0.08913526150577553 -1.1199563391062195 0.06656560373537569
Ni 8.687682835233108 8.32693790468362 12.445297265156718 -0.05437986030246118 0.25024109981258197 -1.3449633469423612
Ni 1.5735681803968646 3.066782086671333 8.043601141452042 -0.13742880640484073 -0.7905869684019029 0.6107696697285223
Ni 4.359059256639734 4.363226874646082 2.3150718899263256 0.09324234169561361 0.29164048869497516 -0.28594935184746884
Ni 1.1013464296775746 7.254309983049789 4.446581091173047 1.55303732646859 -2.135506606590522 -2.7352557568388245
Ni 3.0369775846259346 8.851899979483244 2.5739635779206704 0.10348921623460242 -1.102353795533108 -0.31674962505777704
Ni 3.6148099315060906 5.6783748926493205 7.765160633227919 0.22385875316431122 0.9917894176192791 1.6287324033090596
Ni 1.6107982824535734 3.9609078660332684 1.976095105809995 1.0885749965814606 -0.44085471777051816 0.42075100504210766
Ni 4.686026989137773 3.01348484259015 11.815300078197106 -0.4158126872002258 0.8152281639893507 1.1272945246388457
Ni 3.0550125106534054 1.0512886036013265 0.7500329393424527 -2.580786964232562 -2.8002933539654484 0.19116126293129013
Ni 8.723270023287315 4.221732066430556 9.618187557250456 -0.03332021141868455 -0.41848637737764705 -0.889712765461487
Ni 0.8949843643632431 6.143839347358317 8.458070288083361 -0.39691096519971647 0.011203067804671028 0.17337308570993368
Ni 7.896058182027303 0.3935623697994755 7.667048036678474 -1.4780130504428997 -1.282199890561895 2.1706019076317586
Ni 0.9290168174150816 0.050388265276751575 0.21549462512824216 -0.47530338636669106 2.5646761747136284 -0.4110813431628275
P 1.8564742588277878 6.331326465643898 10.315024426311881 2.3859377109267235 -0.9851623992210646 1.1180627216279324
P 3.8069751777987975 4.5012038048562495 -0.2339119695562955 0.6123107889633971 0.8489687507749056 0.6143450457846065
P 3.5491490634060763 7.908644574046475 7.986801798765524 0.3709873033554192 0.9135381500158588 0.4283768970184816
P 7.039032556721879 8.48373873092246 11.117484886334191 -0.5629813466006498 0.31594204155481714 -0.04520822110552214
P 4.7300329512048025 0.9095515351854321 12.836522427352635 0.5151698835443257 -0.8473751810355407 2.3889656991197694
P 8.360232438734334 4.575970314970133 12.466626372989207 -0.5292140203422177 -0.35978577821264485 0.195537794732431
P 3.342661691091554 2.216894319376781 6.549779264176646 -2.4061851483218493 -0.8258547904652616 1.4114145365870594
P 0.8303853570648457 1.01973908555327 8.808879765817716 -0.03330375635845232 0.052428135892729065 -0.8390275804017937
