# total energy = -340872.7873809165 ev
CRYSTAL
PRIMVEC
9.20763730072182 0.00000000000000 0.00000000000000

0.00000000000000 9.20763730072182 0.00000000000000

0.00000000000000 0.00000000000000 13.47630791184807

PRIMCOORD
 96 1
Ni 6.702929826753638 1.6639305674677063 9.04346521232545 0.2352150587173949 0.23616996643149651 1.2880159830230398
Ni 4.5393376088465445 2.4709707767951277 8.193163839499258 0.1922922912119398 -0.5701984331743792 0.7492485146644322
Ni 7.931808735326077 5.366763527348639 7.138278892336504 0.9053800396850987 -1.9195054017974167 1.4796780968501484
Ni 3.050748080138232 4.660869214716692 7.025604112868848 -0.4297856044405502 0.4135999958196232 -0.016613697297281065
Ni 8.540194168030386 2.420282732980053 12.649092223548777 -0.6151510866256696 -0.17121001662034385 0.24690277946796835
Ni 9.198429749547559 1.007665420351337 8.984505947845694 0.5076969722060483 -0.013837934324356814 0.9924926143338908
Ni 5.148781919850351 4.17522158838022 13.30474137972396 0.274492773271095 -0.24187370168449313 -0.8585525378085987
Ni 1.1803086213563587 5.550299363382404 13.198588369817472 -0.7758265222632766 -2.5968982679721275 -0.7432773846826619
Ni 3.5329152195424434 8.78653529868043 0.30084481939826546 0.590720464387131 -1.0439128777873956 0.7060611806436807
Ni 6.2049347586812855 3.3313232065929 3.9781928805196407 0.6031463488553096 0.7195985530084833 -0.7790686833496583
Ni 6.630659080903589 6.925349515472427 11.035411416356528 0.6141229024714714 0.22256574538450055 0.8433794296125864
Ni 1.6655234887356458 6.802556463280269 6.421056423427412 0.6242216814683701 0.18712437385775516 1.4939389776445369
Ni 0.4111569191124342 4.2295282336883595 11.08982947407705 -0.2968842535924177 -0.8541333256949806 0.5801336900102202
Ni 3.3374094549056634 4.484147030349259 9.445180620061324 -0.21643752099957564 0.5515687338883339 -0.6991724239436474
Ni 0.6905230827781975 4.07048471310384 6.307100861599233 -0.34726347737591806 -0.0016375356034229861 0.11779791954779067
Ni -0.0785871850974859 8.18142778488587 1.772458227056287 0.8897919554388547 0.5881753293677742 -1.426155699451976
Ni 8.140509044338334 5.859068275515865 1.1617147184171832 0.8964925073874818 0.6917301087329893 -0.864495128545279
Ni 3.619144743671085 1.2343206222681167 6.218911952234652 0.8686891120219684 -0.09923378339235814 -1.5234668119003247
Ni 1.024543019681588 7.415739075063172 4.3116097171741865 -1.274151823446438 0.8305923051502468 -1.1583858467270114
Ni 8.080199019453913 2.2062419942833738 7.1134689133974085 -0.735077879591005 -0.012762441871990925 -0.7060858632340291
Ni 2.2207992689921174 8.820253666791386 2.3903873759121543 0.2428880018816204 -0.21890115204871977 -0.10578135470288878
Ni 1.6412337413089126 9.439946078206852 6.924652497322237 0.06461927864228227 -1.8244085233915677 0.23504356613653718
Ni -0.021701480557265906 3.562757172313498 8.920709911446579 1.2694104521067104 -0.2629788590942245 -0.9456391443154617
Ni 2.617381418884773 4.087150536774192 1.2447270940428299 0.6571824526651069 -0.43185534248538526 0.6013725447843385
P 8.864505572072993 5.554452007843912 4.96680125377124 -0.12354022134820658 0.12090304083567566 -0.5947059313974403
P 2.300261179641362 3.1005890213137084 5.131010258929829 0.0813173081232535 -0.2703540685123731 1.0455041335339157
P 2.2078165002765395 6.756619560356852 0.9855274977819305 1.2875531844540082 1.8012400556949044 1.5997061912800383
P 7.127355872104384 3.7507126742929917 8.75834703758407 -0.35801608790673184 0.5103115270107599 0.7640714386098777
P 3.331102223295613 4.34093143843288 11.567739001953544 0.13860894275587096 0.29259668196065736 1.0486305949780392
P 8.788653055279426 0.04274001122267253 7.12516629593377 -1.7818850482070603 1.3654187865832357 -1.7846551547530296
P 8.624333558472193 5.964173456287723 11.933391777099747 -0.36195218973634435 0.9458232353018099 -0.3325207718491047
P 7.140412301919056 4.022641829241328 0.9627201799744938 -0.7786189974067494 -1.3242196866371063 0.09884940346974588
Ni 4.132083807222432 6.397521702266408 5.61121156775193 -0.20747388404838463 -0.25972769914677846 -0.39665025533916204
Ni 2.1232167279653855 7.723246540874622 9.125279674327057 0.4750311065419109 1.0554972401908853 -0.5870669267949438
Ni 7.8447505238326105 7.321075355088098 6.0994714008150765 1.8461986226834657 1.554859210168677 -0.4990706639896179
Ni 6.406047974486709 5.607791851226423 5.330782842731715 0.16186045708464383 -0.3229351850431987 -1.3815105499387756
Ni 5.732905228040089 5.16545695115809 9.693953487745258 -0.17746962437681046 -0.3280791911379834 0.004634413448217824
Ni 5.210381013968944 2.9865063940895897 10.880340070540733 -0.7367367553506666 0.7455206721908838 -1.128006977324838
Ni 4.5517218811319715 7.5474727431580435 9.881502932915987 -0.36558695827545423 -0.8996979016986569 -0.5950681998328654
Ni 1.7348662058966495 3.0963627157531057 12.636114058651895 1.1586784382667659 0.8393715940047738 0.3237193715073909
Ni 5.177270349925527 7.638278463067992 3.750186918198198 0.5816035896875275 -0.13834360490962627 0.21681598738491695
Ni 4.328593204334387 0.6325122049492942 10.288892086809689 -0.21032960832962486 0.5180055532209079 -1.4323625995936364
Ni 7.729148636439647 1.7758862304554426 4.677101358666119 -0.5554212748652047 1.8720677771407437 0.514210862065166
Ni 7.384442315584981 1.9066438889872994 2.4059252640026063 0.2622116419108968 0.24619186944387278 -1.2104054343274122
Ni 7.052580648885089 4.321945290141021 11.475804425699957 1.210797013338876 0.19356061640140212 0.5391207379329683
Ni 1.1967902922789717 3.3067111918576235 3.2561861232242983 -0.9016131164434988 0.6453913735674498 0.14418797950554524
Ni 7.845450304274018 0.6240503861907013 11.16357160038153 -0.5459698996443179 0.009901575384428108 0.4450291608631819
Ni 5.758355137777576 0.30733988681100904 7.381337500258106 0.009780219315215414 -0.019337009765715084 -0.5922405005760834
Ni 5.994549452027219 0.6985015005739763 0.698214222287504 0.183397045604839 1.732069410236514 -1.7160774056836317
Ni 8.437234366769685 5.9419738425478235 9.66908918374558 -0.23937330386014258 -1.059944991549594 0.08002095790933315
Ni 2.1576717070672946 5.297881192056981 4.711613425119827 0.16869727750081914 -1.4342896414130202 -0.8519327184992359
Ni 4.734235669415787 2.83707564693703 2.2522682112894437 -0.7845988691392681 -0.18648751160470464 -0.9686803424056414
Ni 8.028976932670396 6.961102771445894 3.254070208152781 0.39063927325839176 -0.05889240346083406 2.99010170241327
Ni 9.220067697406854 7.4624217966149295 8.047310259471521 -0.05698593046674056 -0.05930429418727206 1.0223253814246072
Ni 5.385722052728337 8.811359089075607 12.054651757666981 0.4254733502184414 -0.939169477430718 0.06027205741718007
Ni 2.79112032873884 1.6289323377599683 3.565278223430041 0.8602515227775767 -0.5963118424319794 0.2396944346449872
P 4.426608504318305 5.976972072255562 8.068346027845712 -0.9589931970248646 1.2508440019584328 0.9868973796343004
P 6.03984182033355 1.6478172020405708 12.24313117421379 1.578828576500081 1.1023378546935079 -0.4763493111327023
P 0.6756306500685697 1.9425628824337309 10.91366711406274 -0.6273442862577518 0.24438464103180488 -0.5656956602080193
P 2.605715342315527 8.75821260607822 4.92579227837731 0.49799697130946496 0.3235378516242041 -0.055550997792426914
P 4.285437007901826 4.908471791688748 3.2310658469052633 0.2963106404771349 -0.004470119956211656 -0.34383722530318844
P 8.575164774825963 0.40966159880079606 0.0364337003763611 1.1112305291974476 0.7117638874554129 0.7251151119513383
P 6.694596914918462 8.755919904368874 9.589955985751049 -0.7084155398084703 -0.06545771538317759 0.4949746395433734
P 5.814475687650942 2.3724766796670895 6.028761349502114 1.3908742505418628 -0.826005457110513 1.8756652646840148
Ni 2.8264039952055726 2.3789312334753303 10.406068480195817 -1.4988307585191993 0.19160580666787647 -0.37424849060519416
Ni 4.478852638851772 3.7617710467947 5.200453339338351 -3.058890024831577 1.1613066199182323 0.7144100668290083
Ni 0.1572692088600572 8.141613960824765 10.494783145655193 0.011056000703845475 -0.663784788472973 0.3097760219534213
Ni 6.341419567667816 5.725207643184612 2.567640840956814 -2.8877414575767877 -1.6458322962141396 0.2884564345400387
Ni 3.90192049546123 1.685909197910319 12.556011296440518 1.031138608840863 0.5758052378381954 -0.18325074983496184
Ni 4.285151571142831 6.018295948848124 1.0450953870929645 -0.33520628910106787 0.14759083453950708 1.2799532606195634
Ni 5.6273028348493375 4.4106148381772 7.390623402562831 0.47443486771880866 -0.5749909694670161 -1.7886478208521903
Ni 6.42923280542701 7.0786474703275 8.28798316854617 0.40850278380237387 -0.012737245061010321 -0.7924435619946674
Ni 1.0264766235328442 5.67517334162401 2.481661764565097 -0.44908841853422016 -0.02947204131718795 -0.23355052653077843
Ni 5.258573788052159 1.100183760815255 4.381929364661945 -1.701609808195076 0.6771264998872016 -1.1474162350893853
Ni 3.1366737522331047 6.869726178017957 3.13562684386221 -0.37138968100016034 -1.0670445787088527 -0.04483129738207763
Ni 1.760923819701674 6.064619572541791 10.737397024691006 0.434666072461303 0.17974222246107108 -0.08231258215698728
Ni 3.8319056207709803 6.673345687829418 12.08967668952314 -0.9783464047404958 -0.34942500380361113 -0.04433764557511074
Ni 0.7729213089901357 1.4364190552739418 1.8250292327169895 -0.798147040137348 0.2785939399236621 -0.784738480040926
Ni 6.9759638981884065 8.953018590273594 4.560342071253619 1.217413233103813 -1.8445955398624039 -0.728115846450875
Ni 8.073643181634415 4.2410838186089626 3.135357060086773 1.7816037695212155 0.2055365578163557 0.20169275859023328
Ni 2.2778313749667896 2.584961327645377 7.635217844400575 -1.7613437337205986 -0.5050186540429367 0.6947604109188809
Ni 1.3194268146355521 7.739921572182361 12.677877139547812 -0.9218471841021867 0.25601785439535907 0.7300182056799105
Ni 1.6890029640723287 0.8040329949568485 12.703617089862988 -2.1614521228116903 -0.5803316649536393 -0.880113037588194
Ni 7.800369711627586 7.714508492994422 13.177133653942175 -0.6182819189451675 -0.5511496440730443 -1.4835864307656192
Ni 3.8166761885329907 7.970397943614718 7.334251484188802 0.6967231910722065 -0.5738193177564183 -0.6361300028701818
Ni 0.15685762746886128 3.786604044827263 0.9322677608446853 -0.40996317039798424 -0.49643091237392567 0.9323581109358393
Ni 6.46305245754922 7.967469914925674 1.7108978050147203 0.7209702365450292 -1.8807249385951095 -0.10707307693111882
Ni 0.5667880892813558 1.5824337689559491 5.372302842000619 1.6734431159528729 0.017282184119215397 -0.538798321596543
P 8.900268035683846 0.3030785922283358 3.456592192478405 0.17792548096730645 0.014747590622819762 0.5860407995232746
P 2.587180368255628 8.531907294382144 11.196197942698396 1.057347920246379 -0.5527329293997643 -0.9477739312702773
P 4.992454652294978 9.338938296072179 2.380886014892577 -1.5608161990830602 0.5504721583900455 1.763151219242983
P 5.835202079408932 7.793565267598641 5.983817950652748 -1.6593367584584775 -0.020946777454996183 -0.2632485678158434
P 2.8048120855332117 1.6442722616466012 0.8611000899535912 -0.09149681975941662 1.4161425381903483 2.5717629063570806
P 3.1987884740453647 0.4757613860741214 8.330838275236179 0.8124194908959621 2.0013017064396177 1.6862014440598057
P 5.623610572257177 6.932734040656749 13.201687660561912 1.7049062195581608 0.44780081007104816 -0.2177708950990185
P 1.0342570771248039 5.454144006150647 8.252702264370653 0.6784375053891413 -0.238384457584312 0.3052755629799065
