# total energy = -340873.2819004704 ev
CRYSTAL
PRIMVEC
9.20407538150930 0.00000000000000 0.00000000000000
0.00000000000000 9.20407538150930 0.00000000000000
0.00000000000000 0.00000000000000 13.47109468303565
PRIMCOORD
 96 1
Ni 4.5255058598304005 6.904179518569205 13.465841332884732 -0.3971498206833999 0.27844738704346883 0.5342559536414991
Ni 1.8806135214700201 4.6703780081239845 3.9040310354698646 -0.6932683997543868 0.36918316026714487 0.08961580068661985
Ni 5.235692325035794 7.36343527355046 6.191880718037677 -0.8108770861095067 -0.27421792234315356 0.6579470987452734
Ni 1.221693756772585 1.042444386504635 1.3561616181264562 0.320334514195558 0.33036181652457297 0.7752696213185422
Ni 0.6750618723008206 2.2382930992868526 3.8307076884453406 0.38840524172155044 0.6522122531440252 -0.8109483056670743
Ni 4.098307899798738 2.7744028846525666 0.6905974313290759 -0.44273342285046974 -2.122811784731673 -0.012010908417947056
Ni 6.670653715106385 8.149141178193517 13.268866754028231 -1.0109094262781815 0.6213834406886266 0.5507143563078386
Ni 5.179676321572341 1.8904710863253205 3.0934621616917704 -0.04028095900723385 -0.9031313528602382 0.41919754451205865
Ni 2.5749321605217834 8.274804420928733 1.2916668203168757 0.5654187523975488 -0.36135260847913253 -0.06617968115086667
Ni 1.863291451388157 2.71240423211727 10.472011447612807 0.3631734637379551 0.4603709334265749 0.03847450192611439
Ni 3.5072958041044826 5.091482870177861 1.2303566326286155 -0.9857604378163799 1.4825016823418726 0.13812300425838792
Ni 2.968213102353837 8.475996307177109 5.128378327207699 -0.1645302906073231 0.7675218590523233 0.16401709841633044
Ni 0.7371221921419352 7.681196775944848 10.209688853148325 -1.1017454725251477 -2.896379849978076 1.0325432024978733
Ni 5.496646273474147 7.322467933521569 9.946948393656365 -0.5483108890726686 0.6964339419665618 0.36092066314803645
Ni 8.08485071085993 4.658909730057034 11.273891674123483 -0.45217039989365354 -2.08320419764238 0.7257170072013954
Ni 2.785134836679906 8.812165960561787 9.78611729886175 1.7651967889181017 -0.7250559765786287 0.8859759241268741
Ni 5.1016165572980166 1.3730639823657407 9.54538838591643 0.836464704770624 -1.7995261583275912 -0.2006020966292158
Ni 0.6097957729647469 8.535924042725998 5.609687047075321 -1.6538515669741902 -0.3386423113658103 -1.8784451414219974
Ni 3.739790751111847 6.3031994091137085 4.40481926071541 0.06821985150934702 -0.516720001640265 -0.6877762662915639
Ni 8.437946659080179 6.686770051298383 12.659434542045544 0.28504715174817363 -1.4112679837068665 -1.0027052932008345
Ni 3.9583047074420863 2.0532911818344366 11.50696923910969 -0.17089865602751214 0.8237793959934715 0.2546122322970841
Ni 8.536798429898038 4.588480144368184 4.734227600241355 -0.588160931190071 -0.9119222116789908 -0.6419468666622751
Ni 6.966445089293862 0.4800569656002811 1.7969227038077649 -0.5246708810562255 0.3074689710867995 -0.30035935662521174
Ni 6.993219744909239 7.052181052531139 8.079113810603806 -0.6969455914956578 -0.18264319815794997 -0.4921718799872556
P 5.592598760511034 9.110083476188644 11.159589942179476 -0.6552518113012973 1.0759840472903275 0.39642862624665914
P 4.822410927152791 0.46782751048988186 1.1996509163692621 -0.19149267812877988 -0.5494311187200409 0.21186764224070612
P 1.876361238591263 6.335303224440775 2.19219172594677 -0.07697085822909969 0.0985033329842368 0.9225269837780304
P 8.616864682630304 4.5921801827172315 0.027210008386297353 0.4185501407360469 -0.5452829008796222 0.5510573414695542
P 0.9807402643851822 3.229903376831801 5.818003808164488 -0.02501889064184078 0.07430359580958172 -0.33320648506221967
P 5.255637556633773 6.50250445988558 2.52981746407478 -0.19351973586113766 -0.011370960841102997 0.4495681863841161
P 4.093816310957107 7.755022665491405 8.23393740532274 -0.16989129780892032 -0.28406293345803335 -0.4856980993374538
P 7.823086803778003 6.495178015791445 10.23316937014399 0.5867062010214154 2.241921995332984 0.2199241939965954
Ni 8.166509268652856 4.5159704376174306 2.4256052396885495 -0.7446143583265306 -0.5501209456982138 -0.08310088238623753
Ni 0.29690230609974094 5.159353722879061 6.634649212584477 0.8796749216095109 0.7568538378155159 0.46085712903437404
Ni 0.8127327519270023 0.38666965440389073 11.75219618374949 1.3032127453681364 0.5692175573183487 -1.6507227915372216
Ni 9.052861738835325 5.168631430978167 8.981178558064036 0.4432612703294818 0.7656526670540685 0.18951601401838328
Ni 1.9937132011543626 8.408116250400415 7.378873269378466 2.569048335639395 -0.6475850387846589 1.5758648658860668
Ni 2.426313953501676 4.148792253889608 12.84192742851798 0.28503609600458 -1.6790087829661084 -0.8051227001242328
Ni 0.6039705135838696 0.3764973101666564 9.199451367616303 -0.9083910585972808 2.324744170136538 -0.9641354033474363
Ni 7.722513870842554 8.809229860478835 11.219024339281825 0.4686486000543348 -0.5786254808958099 -0.8004906006688601
Ni 1.6528494692671603 3.4940235272404836 8.05540503253586 -1.916880048359428 1.0681732929966572 1.5297467313717652
Ni 7.187775492725615 4.662002299423403 7.352927900965201 -1.1608988429568525 0.6636343789380377 -0.883887931249594
Ni 4.2424621302037 0.478273215769322 7.116833240031686 -0.13416401961063992 -1.6378680470617406 -0.2655250225548459
Ni 5.927397006646936 2.1259297456421216 7.242424690978039 -0.26968198214601297 0.4954832037486757 -0.28974892809921715
Ni 1.2581234875823692 4.165902630235083 1.588390567352011 -0.38679958779732737 -0.5481062292610303 -0.46609112373980377
Ni 8.900534289390675 2.892537193632754 9.487839903883035 -0.012412514731739913 -0.12659649167602713 0.19693236108711246
Ni 8.49351166284437 2.379373168476436 1.4682681780648725 2.0979286483367483 -0.3953870723560223 -2.031370243690224
Ni 6.322049355727766 5.12627427554951 9.528037783200533 0.735697772563191 0.704000184349594 -0.7695232057530682
Ni 0.9765247978084058 5.310098071338547 11.35071717187391 2.0290801621044667 0.34283860883534506 -0.9423687010943061
Ni 6.705758059044868 9.19905927400021 6.480552739829659 -0.5925492900657537 -0.5838913572804395 -0.33911385168559016
Ni 8.049746366921445 1.371692575116964 5.128796192235179 0.707975366947258 -0.6950825701449899 -0.09665830935569805
Ni 2.200123798208486 6.1646136443833095 7.978700108174421 -0.6442685728169162 -0.03306412954382048 1.1283656462158373
Ni 5.632277529970604 3.754977475678837 11.030280965140633 0.06460539468521131 -1.775132559974575 2.1991357534053932
Ni 4.040515509764722 3.7041249585681606 4.539207046612474 1.2894329179752244 0.8236829796249234 -0.7686937678732374
Ni 3.0239161672504546 1.7773714066409778 5.003299543266426 -0.2653962102864655 -1.7148957266707048 -1.417056051143553
Ni 5.013045738808235 4.216884004402692 2.496947869666518 2.1439691355355786 0.706613196492409 1.2568498418328806
P 3.060005347266918 3.033700099501794 2.644241610222874 -0.7636178960122267 0.07609796870584315 0.4807278998163721
P 7.606441274773279 6.532049542224995 5.9277670104818405 -0.2267887823269126 -0.1808187433547015 -0.19931885904141802
P 1.30576378234524 0.1300499051162017 3.650384202567107 3.5898243702990107 0.7787256981879427 -0.04289294270878419
P 4.817072563365606 4.254657530234767 6.418491499580995 2.9373038418859476 -0.14061825987641588 1.0480017031447888
P 2.304682095833334 1.7203705670995444 12.981447406911139 0.6273496855743905 0.24714960537145178 -0.1143680679306353
P 2.336288891083662 7.598047157921707 11.805865147961681 -0.17903774019487878 -0.394506726633598 0.8212967387809339
P 8.13952291930109 7.504220812324198 1.4021654282662903 -1.3265447352258575 -0.5801401177681235 1.7869964012916966
P 6.599174864811088 3.068242994835073 8.96737060400622 0.9328484203086966 -0.4847082246203588 1.1513556793531072
Ni 1.5509603535359044 1.2872175702225226 6.807388540254711 -1.8705845077269976 1.0802950159608555 -0.11059754514460954
Ni 3.824090878571881 5.650906578772778 11.386442790908315 -0.29835955258636354 1.0923899994521769 -0.8545210480517025
Ni 7.2381493979105445 0.1989488530502091 8.84402954951843 -0.16482108237486454 0.28855439357048374 0.7020749423024232
Ni 7.7151137941444565 2.1616047422613036 11.195194067417345 -1.748175571769757 -0.9354290365516794 -0.08396425882779733
Ni 0.4773242755857725 2.6755235016082235 12.407080881749852 -0.9678647884828815 1.629787069825819 1.073445340028874
Ni 4.188756349689529 8.536365838349766 3.1791916820762 1.2484019681758434 -0.09992438170147953 -1.2077132322072297
Ni 6.483728145875484 3.25965094883211 0.9612598385997078 -0.30900006301934524 0.5951769574965878 -0.7321954158368874
Ni 8.652392414041564 8.784820652265712 3.248150456500926 -1.5458886312389506 -0.21570321393671238 -0.7507161003488942
Ni 5.954392560074196 1.462932575500337 12.89493646051717 0.3188353039422122 -0.7981555247777803 -0.05764593264824266
Ni 9.166946254597649 6.388217454462364 3.325595388532176 0.10581169372019196 1.1839642094167482 0.0039021632678836017
Ni 3.8401151740089285 9.229018539736908 12.644360107199594 -0.18668548654812364 -1.0941866863412832 0.3471565194844086
Ni 6.670994265899705 3.262126845140304 5.230341075542916 -1.264415055774648 -0.2174669907053545 -0.6144635736403418
Ni 6.100277156672246 5.523264459806106 4.531150719331573 -0.16170696222591505 -0.3160119755608041 0.09130321569137179
Ni 6.741810422759352 5.779294227854557 0.9497851176799105 -0.2473486087561353 0.4780647511619121 0.2730658110165813
Ni 2.807261434170235 4.668886947893771 6.2412256075822485 -1.7481701724531182 1.0475527885328282 -0.464518122825729
Ni 4.5142492754998385 5.635434527865439 8.198764030818042 0.15667454200833017 -0.2584578312954194 -0.886913605449795
Ni 1.507406668292878 6.19259403388855 0.08264615509355608 0.10470997601558096 1.1317229927238444 -0.7025804211839319
Ni 6.576477614640061 7.8174631136504695 4.195828761299998 0.10819973433639431 0.5268524620885766 -0.15806113794321164
Ni 3.4128527854487998 2.6106071571409655 7.157987422793128 2.7803786173193923 -0.20994625684827714 -0.994770868845106
Ni 9.259852192645642 7.331340662298889 7.64917027485194 -0.9593690923070446 -0.13844156394007126 0.545150489066816
Ni 6.230468804551072 5.926936802872179 12.039669834912004 -0.8147278273141646 0.4200845751027023 -0.3416816124127664
Ni 4.12950971572728 3.3612271259965305 9.228656819569947 -0.6874577066098806 1.4070423756612929 0.42445647891815286
Ni 0.19219398204432214 8.478058020088023 13.58317396688929 1.1459265379177361 0.5087313270078334 0.7924263356034869
Ni 8.376537067376571 2.6890258803596017 7.263129258804367 0.9306365002590424 -1.0530138116473995 -1.0313065018772947
P 5.09430852135487 0.3497843218570969 4.9761281919972085 -0.5474765660968313 -0.03492586534290759 -0.15081654056565638
P 8.67843074361733 0.2890677970382734 7.249079237561029 0.5827323039753319 0.8395675120656637 0.017004762088112652
P 4.682637836683518 4.405871286544505 12.909835097521162 1.042030058942386 0.38732666394539106 0.2081626825852931
P 2.605995915317898 4.84205242425943 9.782223974927303 -1.0257014969856917 -0.31338970744660866 -0.6105722090057356
P 2.533605861548582 1.4503414002229786 8.831434692610873 0.6070261435256902 1.0952665496690235 -0.4200683771527863
P 7.535790791272545 2.3908966709963577 3.2473552243781456 -1.4607835739384907 0.11171854612293017 1.6019281386320219
P 8.247219806669783 1.0882806824704572 13.057491478652027 -0.7572155920303089 -0.05082685284388021 0.42423305005343714
P 1.843244974959731 6.616303649307553 5.650477668854704 0.05842857645053809 -0.028283163215409357 0.3066325912284332
