# total energy = -381170.3694626533 ev
CRYSTAL
PRIMVEC
9.21828619627545 0.00000000000000 0.00000000000000

0.00000000000000 9.21828619627545 0.00000000000000

0.00000000000000 0.00000000000000 13.49189364689363

PRIMCOORD
 96 1
Ni 5.1883094840072586 3.7685090712225398 4.560368136789212 -0.18062873883108246 -0.388186440842525 -1.2440665740252832
Ni 4.311945468667577 4.324076733069764 9.133269455251078 -1.3482186206548652 0.8401334118714628 1.3383414707504693
Ni 0.08078168404957183 3.7374987570516023 0.6395692932035464 0.7095074873210684 -1.4047479232001612 -0.0035627776505938644
Ni 3.5338115091559317 4.352100322570254 6.212557852821157 -0.18699607581000696 -0.6028329313799489 1.4554449353343966
Ni 2.3329822624878735 2.9734503385783606 2.24457889955705 -0.14902448166224014 0.0910209085642626 0.9334636852951923
Ni 3.194652329911837 6.849481497936993 12.383722835927164 0.8645969442304658 -0.3817270583704265 -0.3106424837187747
Ni 5.488364693954945 3.5735054487576132 12.270930653673496 0.7336617159697687 1.2968868031501084 1.0976587040502839
Ni 1.9406059180509074 2.5944036357261666 6.471521631006545 -0.6434481337981499 -0.18389558250781232 -0.13127564231925132
Ni 4.927487299360259 8.910081845108914 11.218509359125585 0.8604186444830602 -0.3087534942261779 1.5891867798059536
Ni 1.7260687475098166 2.3732753906808486 12.525212464389378 -2.5413590972542424 2.298670355867622 -0.38355279872525555
Ni 2.55334538979354 7.2739190411511645 1.258020414964108 -0.7337126238123622 -2.1720342692029107 -0.6491410704178691
Ni 3.1659189323878145 0.8936068193399007 12.232330924622378 1.5261181334802427 -1.4474740013137781 -0.20479608010590536
Ni 0.6137055481175181 0.1445335065059837 9.108579197975383 -0.34013663652314974 1.8963323061150628 0.20796805007598373
Ni 2.665080234640726 6.65956636935505 6.19959233353417 -0.8662087688022758 0.6290191028570135 1.4687987309334831
Ni 8.655269982946889 0.333116592758051 3.4751739917833593 0.22219807763243668 -0.5402679641635341 0.3043682206742887
Ni 4.673403681793805 6.675523222455494 9.855787651547473 -1.3425362255581073 0.95214172132067 2.065994518632313
Ni 2.625229584176706 4.062987218128187 11.354562042493264 1.22611281776034 -0.30091368646678496 -0.35372671650275855
Ni 8.909482656517621 5.417512947606007 9.397157641828295 0.273383085146684 0.9402668242599549 -0.011834273630766714
Ni 2.225119097769045 6.043582060933413 10.244718200670203 -1.0989673955593784 -0.22296863724987406 0.5957287162349998
Ni 1.9389834997114053 3.7036953022166355 9.005798074339324 2.6207779028032028 -0.40249642970729393 -1.0650344902573594
Ni 1.297704214451168 5.137645784041899 7.4948278909892085 -0.5585433654339542 0.2086900158436729 -1.3908493108411983
Ni 7.083755018846684 2.663918730602219 0.7891802316492901 -0.12022735492488971 1.0405030807748983 1.6868904997070304
Ni 6.156579810965325 6.132676795315729 8.371112629069119 2.1837888386356776 -1.0152239944931356 -1.5572878742148277
Ni 8.055906244219129 4.989775257996711 2.199232306967967 0.10256259065527498 -0.45314022000609055 -0.9455249873351006
P 3.178824532815672 6.0337092766061025 8.416013978443441 0.1524291364684149 0.012701506727068448 -2.7056381910827083
Ni 4.490448359156886 7.837386774117442 3.0606626989554133 -0.45844106339371365 -0.8272401008485624 -0.7297983763596205
P 8.681062747230563 2.019228679514619 2.1976541364013604 0.5743453654632173 -0.007507621230954812 -2.07610538181407
Ni 6.440844096960925 7.916175464729512 1.7607728288889275 0.4788450809713624 -1.6191316469945016 -0.8929996637428749
P 8.107030858485484 7.496522211959666 8.629900337991526 -0.05293875698056044 0.051855551218710695 -1.1397695171774047
P 4.485737815000719 6.523449157985233 0.9206237720070183 0.9413009219514241 0.8244872206937736 -0.424668852039275
P 5.908690881604242 5.011475103287553 6.062123721433836 0.6433769142405823 -0.1754158271715753 1.1076242999034278
Ni 5.261189253280573 3.0571155024949563 2.2583003182976684 -2.9112773359151993 -1.1051596404130193 0.03125484424922359
Ni 5.9030308539880245 0.8311464787548766 1.7659138670022247 1.6354884910859702 0.2668074888116953 0.16589503216533366
Ni 1.5490868742137915 8.544798043284429 13.075263903882295 0.8650263184584005 -1.4072074404842476 -1.6666649166887748
Ni 4.208866594393076 1.695445601351715 5.3715413552247755 -1.7383022785201028 2.3715027664483155 1.585430912307947
Ni 1.2039634639148231 7.386096363727305 8.39538437615951 0.7082329914840189 -1.3055789316074677 -1.6512958904318724
Ni 7.1947063093821795 1.702322442722559 10.323430379508308 -0.7301786425171747 -0.13489755534255476 -0.39432752074325633
Ni 5.642964568794658 3.4307141983093903 7.766608774056663 0.7756552867927351 0.03933864969862257 -1.9249854510753814
Ni 2.0020457943735286 1.1391865680529984 4.390572839274299 0.19009734044315002 -0.5159098470341438 0.5838401923275299
Ni 7.981966372053525 1.0213953092907393 7.654126326213263 -2.017561877052222 -1.161468085196761 1.8484023152030038
Ni 6.092254611118475 7.439285874062119 13.003189812807118 0.1412728627412793 -0.7818876408556922 -1.0254330738156534
Ni 4.142034020748814 0.962130948468814 2.997602247950494 -2.3761238101600948 0.9946528552100031 0.1915710967751991
Ni 7.464866617767336 5.374657135899501 12.831761956838083 0.2723731558249309 -0.9954930917231113 0.36947755157911205
Ni 3.608922103646062 1.8437217319817774 7.838317821005451 1.1804202008192315 1.1183671402422286 1.1906873870731944
Ni 8.758800553236364 7.538198083055626 12.763843469100676 -1.0513186833331636 -1.0287068594709186 -0.1833800763239745
Ni 2.1738746457844313 1.611411705994323 10.216426359046533 -0.21873814410829429 0.1786505320587891 -0.10590502476494665
Ni 2.538291928723046 4.276372102916791 0.29327608240865294 0.2606980334798478 0.7598643425070656 -0.24076118534660473
Ni 8.091322899107578 2.550718178277869 12.400696465975605 0.7309479165830315 0.6695065214480985 -1.8019748769783999
Ni 7.857104687914004 0.09648134697006043 0.4832631136215507 -0.3496540890952817 1.540255087102257 -0.3480741462026715
Ni 6.801011750044368 2.2173112095101914 5.912863077856849 0.29397659302731954 0.9897811289399987 -0.8318955973427027
Ni 0.6869420650598033 5.197831973465814 12.08614642309023 -0.15627782079054375 -0.21384044969636073 -1.3069483011511684
Ni 0.4733184266632845 2.8512343025265503 3.881186024900959 -0.6514668903375683 0.14357837094600437 0.37655836968529344
Ni -0.2032917834254168 0.5418812725934813 11.616250746026134 1.6576886813320935 0.15944104900987377 -0.3493758957332305
Ni 0.9882647893352253 1.0511703731350106 0.6522951370540159 -1.220264329399363 1.5910531435907307 2.5457801091400736
Ni 1.0252577711330768 5.539129795066525 2.474332694831187 0.8935179981401903 -0.9087343008693125 -0.681648041906639
Ni 3.551224851447519 5.346227941814135 2.436433555517579 0.24309626123768457 -1.3040437259098636 0.6334239167929284
P 2.808360054248004 3.538595799600259 4.313533779348806 -0.0023695286734410803 -0.4037506138293691 0.40175698043810804
Ni 8.290373349135239 5.596052711239396 6.297556902724832 -0.1907588852865489 2.1742112222495718 2.295170056023847
P 5.613825566685759 5.65176803194366 11.64170980835589 -0.47379209192848726 -0.30808809272803717 -0.3457799508518561
Ni 8.845738208690026 6.864949781878382 4.0957877234441895 1.031638945516049 -0.19492715773162558 0.12138897933315868
P 7.053565132131519 -0.10385689761458097 11.828288839227229 -0.719038052519323 0.06720760819474876 -0.06932465453775158
P 5.676095088750172 1.446533442242424 8.571615880973518 -0.1675819329494533 0.6475356736039622 0.13055624765472354
P 5.696707176290664 0.692579968789573 4.425961839304689 3.074984873510911 -0.8637561934967254 -0.7137809178854417
Ni 1.0471604187163548 4.955252776852192 4.82008689259963 1.0386822255160757 0.0336120316274905 0.941639022017133
Ni 7.8753292393753425 4.377496700555073 4.6226192222815845 -0.6011210908951647 -1.0280725683210292 -1.4647096484657742
Ni 2.298644147063753 6.862774266377685 3.773521053331558 -0.15847302866964966 0.6591341770748391 0.07015769196200822
Ni 4.088208448678629 8.653970204618084 5.2983610698272114 -0.43140102855678614 -1.543008224367362 -0.9991474006462469
Ni 4.498781689718874 7.783819314055813 7.406293628396903 -1.4880838044153404 -0.5363547451520568 2.3500296841762043
Ni 6.008875214068496 0.21259487767669805 6.684734133846576 -0.5928452240396177 -0.2843650380794845 -0.31539851034652133
Ni 4.325496349116828 8.763713899684971 0.3312028765803201 -1.0587340019606282 -0.46274251898254504 1.3575728081762555
Ni 9.090880088817178 1.092330020213856 5.771009327096849 1.3236532726106751 0.15384581431028344 -1.247449117344271
Ni 8.304154686734988 8.077873419804545 6.25882166486922 0.4567356506668327 0.00037512395123161197 0.7362819272014351
Ni 7.015936088598294 7.00361124018969 10.580261968137293 -0.2005128793495192 -0.3360961479051889 1.08747790686254
Ni 6.17335709152154 8.755196203402585 9.216137237426953 1.1395987959274956 -0.8468815292285737 -0.9556201667875734
Ni 2.5045898750342985 9.278850159048922 6.932904220931265 -1.1549156287902238 -0.6144126657977483 -0.1466724364902958
Ni 5.806367906783373 4.874915414188781 1.363504340061201 0.7080668982197998 1.8702816317745983 -1.641915991878869
Ni 4.233746748360781 6.0346126686360515 4.764729241392937 2.0669214013219563 0.3871243181265978 -0.9029678306991805
Ni 8.971789051726113 3.4395821894605323 6.330841368056879 0.13921675154319893 -0.7543722090442428 0.4201416535928829
Ni 0.2813301055554669 3.1836180415460196 10.176894661278801 -2.1714778824788086 -1.0853048104706213 2.4417512183519174
Ni 7.833893043715901 3.6939331373215634 8.4576898495394 0.3240351029755968 -1.2834340200793122 -1.5689149169307948
Ni 2.194090347026068 8.936990022000998 2.5273286211595813 -1.0807007360397065 1.5263269070569392 0.7176645692105641
Ni 4.4127197714371045 2.492071442619277 10.701918454227695 0.03614893911673129 -1.5449869453602876 -1.1057052285038442
Ni 0.00795538083517214 7.843516934320673 1.7169785956655952 0.5313570348271495 -0.8664100861798045 0.132712631876094
Ni 7.0365758309968465 2.5321709868058337 3.485455146181352 0.4965712946065319 -1.196722537523681 0.08623582847079342
Ni 7.054772727600126 4.23207823859118 10.45288461374294 -0.6326926950538587 0.45013100086612157 1.499517757283895
Ni 5.50146387838922 1.3690260933871201 13.072039347432534 0.22507359940801883 0.22792032482819458 -1.289551960051592
Ni 6.5337644200415 5.762746977337215 3.519036440323239 -2.6407211786943487 -0.8787326123008995 0.13280364892800353
Ni 6.13260304902757 7.085709295482903 6.091954094994226 0.7819544895378856 -0.24487957839035243 -0.9173791210285039
P 1.5480820810376226 8.19708429461387 5.160271145249137 -1.7021386841153523 1.8695087581643157 0.4345621998935871
Ni 6.815088072796752 7.805620560492873 3.9207168008400886 -0.3018426260389576 3.7583642962863597 1.9059636585572401
P 0.3304082603254049 2.221265854212728 8.118611791212281 2.0424015618037212 0.8569381421336274 0.8283423327738056
Ni 3.7356366632755824 9.203490670836254 9.36600536605265 -1.0391421958716296 -0.19297440488062895 -0.9656333280492014
P 0.30999989690595225 5.860516118864255 0.5000947820652828 -0.445806919569471 1.3247876433254346 0.8487208964301577
P 3.328769173215336 1.7871306741056225 0.8395065423463223 0.7176334588623124 -0.791908515426804 -0.9167291461493309
P 2.23643915300148 8.18434462333437 10.65891975908788 -0.13274091401086818 1.1277969181965608 0.6660774411618915
Ni 9.295627439605136 7.4407331449672425 10.472191391983015 1.3328529368320723 0.538456364876092 1.319310165150631
