# total energy = -381171.4344762171 ev
CRYSTAL
PRIMVEC
9.26202996673034 0.00000000000000 0.00000000000000

0.00000000000000 9.26202996673034 0.00000000000000

0.00000000000000 0.00000000000000 13.55591707664577

PRIMCOORD
 96 1
Ni 5.065126304893087 2.3598726045014535 3.9860627705517193 0.37736415341604046 -0.291512190647227 -0.4509681520554362
Ni 3.351048736887823 7.611943721393668 1.544981613873931 1.4245793561037918 -0.33977205409487937 0.4128363781807213
Ni 3.602290560623866 5.626460890506397 6.691674911501437 -0.5713037504234161 -1.060219328256903 -0.39613912003069846
Ni 0.5400004258848716 5.971906820606051 9.650199746385605 0.4170910396920171 0.9049997735275446 0.40658139840994495
Ni 5.515844467116308 6.748490981668215 6.298322984022519 0.8281515569192381 -1.4831382874846069 0.40708739151208595
Ni 6.507113219801924 5.965979121454274 10.853843140431465 -1.6470157749992795 0.3370952785936646 0.45313584913071636
Ni 5.856038826248685 1.4828232048466155 1.6874270031000784 1.0253073468710665 1.5007408310577186 -0.8585661646553536
Ni 3.595751567497063 3.2893173074400335 5.578273327417423 -1.4114189074624337 -0.7115327452812132 1.8253423480597468
Ni 4.308779679216283 8.8194993968797 11.483935331393402 -1.2043075489597905 0.1623458813614946 0.8023574786742698
Ni 8.42505732847865 9.64964587699611 8.569725604886711 0.2241598293444978 -0.3068153966632006 -0.7003304488074906
Ni 0.3443456009446051 5.035950910630442 7.301447135011687 0.5419152699589699 0.5969890710046621 -1.5419854395298025
Ni 6.949615961481979 6.168799052744251 13.449069482536217 0.4045317149697678 -0.10387642437069207 0.11055383639086766
Ni 6.057904768456422 0.6625509748328718 10.116143759601957 1.4238936428906768 -0.6986828859017387 -1.2126680051093437
Ni 4.572543767410452 0.31723100834019363 0.09040204307954172 -1.4999461030705652 -0.43495017936062513 0.3734517057355117
Ni 9.10434386518237 -0.09239986293428862 4.644948760143406 0.5897719844309327 -0.28771081462326575 0.5009807365281372
Ni 2.164453035121273 5.528978025549461 0.9776146681706974 -1.9239305274483058 -0.6493835254459784 0.6590331327206005
Ni 4.566819832917019 5.951706333340391 9.003663747495445 2.0170168031820292 -0.6582846845903502 -1.1201841388463096
Ni 1.8743106857017018 8.17455646713658 5.897298390954021 -0.3419654622017724 0.3872513306227653 0.366686104876904
Ni 6.698642736613751 2.283136686575732 8.096041313262331 0.3454853024295727 -1.6152824484517405 -0.326568925141044
Ni 1.708261013212585 8.747431542036 11.33152677657731 -1.4129402292029665 -0.6981632659528428 -2.4176368418022167
Ni 1.1344504732907728 3.325309555727222 2.1075925072108572 0.6104475105024132 -0.19825827898738757 0.8764777548284517
Ni 2.580744232114571 5.282098617907928 3.4455214421192477 -0.7864919723969229 0.12638180456205977 -0.09030845587827027
Ni 7.294237570918339 1.6192251195469292 6.017011053933109 1.1960995592277013 -1.5094345021769746 -0.4540503905251857
Ni 2.3101355038060856 0.569493507773933 7.964331542921846 -0.09698021147149105 -1.380821751401867 -1.8797060104122918
P 4.842494891594287 3.0263868019390827 0.2912389737626496 -0.8766572178291095 -0.7923332616690484 0.48684583978865187
Ni 4.483091082398187 6.739201165653792 4.057014550789496 0.5660144770000187 1.715136381926601 -0.9431297476300466
P -0.03422042196260261 6.309906078646286 13.93412754690807 0.605974305222408 -0.33425138138696625 -1.060583139354225
Ni 7.277149125707361 7.506384366342437 3.158257731600258 -1.0595220450795624 0.017645223885588965 -0.6390752015414349
P 0.7293737421302408 8.243993905481675 9.194029953348737 0.5515329955543921 -0.24594350087849257 0.07462164127063277
P 7.867390506715501 1.0566031117740935 0.24218077986075848 -0.7446516393223692 -1.0162100125554887 0.8533586523124851
P 2.3828887488642074 0.04897113082059945 0.7084841598381862 -1.3023989912175893 0.34227168058828145 -0.734873991110315
Ni 4.0798778716584945 8.187162089864026 7.188458705757895 -0.40917358461715336 1.1039748760762988 -1.5999478749771996
Ni 2.661842566134802 4.686355591124545 9.023496532173096 -0.5526056597932805 -1.3120884505912114 0.0578279667520617
Ni 7.747512053400762 3.8052586843926357 6.405658796413298 0.3087079857002232 0.4863048796835173 0.05401630631545536
Ni 8.548575759553774 5.7149132762868 2.3248806554461274 1.2022727779179487 -0.6732341068113308 -1.2075872481523269
Ni 3.4029253664957846 1.5212791530937604 1.8963774719971793 0.4296485646420536 1.4495959327527874 0.5998147133789153
Ni 1.4516101640005468 2.7161828957027208 7.394522199927481 0.6300298035097149 0.9600535199685789 0.18497570294586854
Ni 3.072632117352858 0.75218890044363 4.5433063175473105 0.8511534171310502 0.6054158616157768 0.8191087299906795
Ni 6.441056422379323 8.463318774097377 0.7674425375265354 0.7521155517995821 -0.29472555537820205 0.19541438178068926
Ni 6.885309687715138 8.342930909136781 11.811351794041734 -1.1863903023597375 -0.20473180252687323 0.41897000188228484
Ni 0.23038373234573237 6.727030858332802 4.166654756225528 0.36679229143746506 1.3594327442031298 1.1875421565759936
Ni 1.4861112254698663 0.5768753456238788 2.888427013805443 -1.3914154677573132 -0.1358339511138951 -1.1594559398627386
Ni 7.606543957947597 7.076765108287568 9.131658517633154 0.16710679308524767 0.9165486547074085 -0.7803861166095012
Ni -0.5309643894903836 6.916133723304371 11.719117721443096 1.1545942408950631 0.6460572892862229 0.8048938719428784
Ni 3.7999052310961883 1.2244774041583661 9.61797714427775 0.46919161704199847 0.8782217341027521 -0.42539158913791253
Ni -0.09596944926724855 4.456397912155347 4.539361619002403 1.4162379261176319 -0.44766402738286776 -0.5142283455666627
Ni 5.327825259645922 1.7878681604149478 12.00642125869076 -0.22795323494865904 -0.05926804163269793 -0.2304592891999644
Ni 3.618638043440872 5.005617762627214 13.025893818699927 0.482125294384531 -2.1359676053873407 -0.8446009607245131
Ni 7.320977051310803 5.7773671440687115 4.761718876215434 -0.5978660742929768 1.0969009999486528 1.6866596146431467
Ni 1.0761089467954055 7.385894619052671 2.0597541226500424 -1.5174283190157285 0.40251391320879065 -1.0712030809619166
Ni 1.6057673900664133 5.003774618672209 11.800643035042853 -0.3479257935502653 0.722863339802684 0.16096879850830986
Ni 1.1175843167979862 1.2383982351351144 9.752520169572186 0.04179328188670221 -0.5590192766291082 -0.35473510316261486
Ni 2.768819011764504 1.2980734939396315 11.709763997422193 0.3702925912812397 1.7259710106482598 1.3759731650603142
Ni 0.709627094330888 1.6646275902375611 13.475611681691285 -0.3070437106239228 -1.1304335844884594 0.1044415528455427
Ni 6.803989064976715 3.8936091878438672 0.8768780521012317 -0.35859535744896953 -0.6406895972164063 -1.7820868798052212
Ni 6.440343246075125 8.958698444617257 7.539055250698645 -0.19420879150836232 -0.48016328556215365 0.7037998954133298
P 5.457669657159584 6.383909697744235 1.9973697200925653 0.12911668699471957 0.6778206977407487 -0.6642403879531529
Ni 5.591292962882503 4.084444052411346 12.170421243957552 1.6486108874005412 1.3469592943264674 -0.36640174086726573
P 3.9500890463243805 2.811424349417892 7.893990130456102 -0.621928000338187 0.11070733124959643 0.5493385590062345
Ni 8.774828626553115 0.44268798227854883 11.500840388411872 0.1625130030669782 -0.4872178784160899 -0.14127363407222768
P 5.318276106793609 7.704184277413251 10.175627294387033 2.0913983034173977 -0.9396423033020785 -1.3393539711753837
P 0.3078504244325086 1.103339314773875 6.573481221429992 -0.27406597014632156 -1.088911296874957 -0.6932802268289285
P 7.4745878176111145 5.993792997317998 7.005697552675732 -0.4869294006413937 -0.3257824246840067 0.7712895536248717
Ni 5.623321062361941 4.145304851046218 7.2853701034684795 -1.5080782452593964 1.1192729398859498 0.07428765496998173
Ni 4.949508385343687 9.091988317262889 2.9547422218629413 -0.8288619527227016 -1.1694824708608051 -0.538090239785925
Ni 2.4961633748426713 2.953605770791187 -0.015735262638987082 1.348160256613104 1.300951203027469 -0.09246252610679559
Ni 8.35354519543043 4.761165006825939 11.128364150180122 0.7884930619873518 -2.454831448574643 0.9510088932678074
Ni 8.121864778895247 2.2240819837761667 9.974755167990212 0.907933402234572 1.130624360343027 -0.7301246493507877
Ni 5.964506458696256 3.1421992241169003 9.93361323106492 -1.5288550727954315 1.1377254901641827 1.6487713242378057
Ni 4.547202853536611 6.892061707530207 13.205537372509452 2.269056646766247 1.965543575003402 0.24078252550284338
Ni 6.975160640014162 0.8119447389084914 3.8778053861834376 -0.08638058157877382 0.1994731252310952 -0.8548012982962827
Ni 9.148959063329407 3.863359398109962 0.2426846342886594 -0.14451630937924143 1.7111943665597176 -0.6462534644574289
Ni 8.966589694113058 7.516785625947818 6.919957089257267 -0.12157846963614545 0.7356435222864879 0.06867005167288819
Ni 3.6579090503213862 3.443669036134318 10.971061538751844 -0.6414976949399984 0.3279537213037126 -0.09661305794005942
Ni 5.005488094208269 4.737176349321097 4.713026532495566 1.3335155101167357 -0.6221853677646317 0.03615690953653128
Ni 2.4380719231552694 7.8276378742789054 3.730398327526656 0.6672904876333863 0.04689563611027407 0.7733428366094746
Ni 1.0397369552813067 2.8604760598988355 11.249648579637423 -0.9585028876520072 0.9751224984865594 0.7320897434969585
Ni 8.004700100348431 2.3515923497488167 2.335670920308344 1.1207999180534376 0.6510110337470724 0.1524039396574343
Ni 7.696005904989786 4.574044216258245 8.894945114036917 -0.7871632874323347 -0.022269352921161646 -0.9546164081134076
Ni 1.971710192389316 6.759040433752391 7.794272337678348 -0.7832351560225221 0.5159029050556083 0.26445261542627363
Ni 6.904398731389841 8.224173161442925 5.34783680150112 4.1847074507042645 -0.4314089989765861 0.6111136833315024
Ni 6.699893110653579 4.679538737100003 2.8925884438505878 -2.0926468311125186 -0.3910501355435652 0.1430752060573407
Ni 0.5666704410529 2.2519329077595875 4.468748829059867 0.2393923300235361 -0.7748456464072462 0.3831820456493982
Ni 0.22969926833430077 8.572647775327939 0.0682778321985314 -0.14212595477019394 -0.5202668384512588 -0.6456140311012172
Ni 3.35508698193497 7.86372274286534 9.21605783911853 -1.1385785821930972 2.1633742795350677 1.4060332176704882
Ni 8.394835324834519 9.170132063737157 2.1133942427556573 0.6122729937469261 0.8488777337229961 0.07671014836854531
Ni 3.525832503595884 6.463025957360592 11.014493975677503 -0.10938912665880515 -1.1867332875214531 0.8012015106929556
Ni 4.172424074665592 4.151380742676788 2.120023077572729 0.6382429354481267 -0.3383929143591656 -0.31789068064075576
P 5.102915386985658 8.870264582896704 5.0312782165334555 -3.4062324350745463 0.9191197578686945 0.5662584746900248
Ni 7.873281157747579 2.445472285065064 12.21317662649572 -0.9776802319114064 1.1979849491758723 0.7008855499800123
P 0.4979248763431738 3.846270952898984 9.059202583735614 0.22684123283140284 -1.436130808386817 1.712592789569141
Ni 2.1967867815882247 7.268387245398642 12.749746396496501 -0.010355375092395069 -1.329021221790808 2.1787348211515383
P 7.230885286233736 3.2432109224751278 4.34955113494459 0.08086556529781558 -1.139134197586251 0.3250987683534208
P 1.8522577924511112 5.843572133970106 5.365188288361958 -0.5688848565692782 0.7234009574737089 1.3427347147221584
P 2.650107574220271 3.040390991185153 3.6632560201968865 0.0173091807024089 -1.1350607988478258 -0.40866759151501236
Ni 4.9851949866433625 1.2660917046098168 6.5646563593177865 -1.0702972813181955 0.43249246184875195 -0.18743316334742557
