# total energy = -340865.4709437535 ev
CRYSTAL
PRIMVEC
9.32193473890108 0.00000000000000 0.00000000000000

0.00000000000000 9.32193473890108 0.00000000000000

0.00000000000000 0.00000000000000 13.64359376598668

PRIMCOORD
 96 1
Ni 2.6516057388174925 7.43732864427417 1.3389738312308554 -0.5036942788045583 -0.34370892725544033 -1.7822717421225176
Ni 5.252537439511279 4.597485073993838 3.7125994712902703 -0.11062916971349335 0.5318530006269614 0.413943495201971
Ni 7.2969403046599295 3.3708675919353914 4.211040533884662 -2.242163164809513 -1.5082733919893379 -1.7158598903561868
Ni 0.1721733410473529 7.745698250810628 13.72736574372637 -0.4111870155027564 1.4543889832660566 1.0643346359768573
Ni 7.873912143443714 8.391176989184391 3.2178965045913173 -0.751057542848713 -0.3602202946469022 -0.43913079310087594
Ni 1.0856698263501254 6.364122244887141 9.821122650923972 -0.9463114877921378 1.3544378620916997 1.9198285894647904
Ni 2.0221141187995366 7.096378875257514 12.391480269528332 -1.1953351702578512 1.8209434476611028 -1.1813373133168623
Ni -0.04519833356265643 8.161195533233332 8.106177473445602 0.45758822847511516 0.25982642950817186 0.21011594965692199
Ni 6.6065018742569865 4.066293257510554 1.8535371802371219 -3.4092385688907223 0.611574939238637 -1.2750085150197783
Ni 0.32015160005826754 4.450394263185531 6.930017760621149 -0.31567053306098536 0.0904552658687797 0.5875382100044074
Ni 7.532533565421596 7.61953518385584 5.451612020296931 2.536564761189393 -0.6710790081415411 -2.0048719402893798
Ni 7.051605621926359 8.993252798657494 9.046658163707294 0.7024963461105579 0.6662936709377557 2.1171142201262634
Ni 5.671698242350212 4.173663303704234 10.192323963082469 -0.13794097015456888 1.1217378564866745 -0.20002308419729423
Ni 1.9512674135493222 5.131790416734171 3.0486744881337295 -0.29935045574472313 0.04684344271609998 -1.440316050112758
Ni 2.9506161227130026 1.7195147899670096 12.940716555400147 -0.30068382984416603 -0.20774076455652607 0.36433097438116613
Ni 6.1959265734621916 0.0018252348536831515 1.5396247512083239 -0.418508231754518 0.5667462129597207 1.7747391811908986
Ni 2.5621897392438013 3.969895128695756 6.745311078098939 0.9833456577273 0.5744458955968236 0.08690714350620517
Ni 2.00327448836392 1.0636420941782496 9.177499909789068 -1.4937659424017822 0.31622846244698444 0.15482257640125593
Ni -0.27388217617544675 1.2451588105772196 10.369540470911447 0.1565228469218143 -0.42716976408425783 0.8313284119853231
Ni 3.68478374973815 0.46639131821008156 1.3330227079898374 1.2561412458016303 -0.1789284683105241 0.4714688431119493
Ni 3.634482589010498 3.1121932203579976 4.77790459865492 -1.8576690852169104 0.30471274849790103 1.0817525743429888
Ni 6.313877015768897 5.941279277762178 12.08752832794162 -0.4969294492768991 0.20331975267069502 -3.1104411574359916
Ni 5.489016284088574 0.24356817606976622 13.026685303447321 -1.159216313048107 2.0017549919269526 0.17680576554056648
Ni 0.7795598568337524 0.6425469898472886 12.624185594857561 -0.2703183301784312 -0.5864686310893126 0.07397115217082745
P 0.5632965602835128 2.0267471204455045 2.784398565874118 0.009569131745673842 0.5911966326926011 0.8517763954270298
P 8.783453331767847 5.452735313452544 11.208171564828039 -0.11703944411521133 -0.22061504941603294 -0.20762223670079077
P 4.478993959462855 8.058570351904436 2.7311749785548947 3.21876944693045 1.3960573374046987 -3.51793812568167
P 7.300622468945961 5.744493231994807 3.5457377687497034 -1.0228753403908062 -0.5702665674081534 0.8553527999243785
P 1.8921197366002944 4.877478710690606 8.666984144916965 1.6114998414808568 -1.5008182212628733 -0.940655060837309
P 5.637011322582311 2.005782088852382 10.636204672892786 0.2550410923043866 0.8136577341784373 1.4206440256051276
P 6.50726987723218 0.3770965037901075 5.113632219739843 -0.3825356703146509 0.6466563563228024 -1.0090114379245205
P 9.018440666760926 6.505041934790759 6.4712517851603675 0.5954461519975746 0.8318344050874642 1.550540271078349
Ni 7.795207047071667 1.4624997228020546 2.762118209266416 -0.7990034746003722 0.5360477554345995 -2.9198943881602486
Ni 3.821163657344813 7.328830643957428 5.963751666228848 -1.6481550308100457 -0.26368976911832004 -0.021994759103536314
Ni 3.4534692570962005 0.6996671459552738 3.649402345820099 -1.406568521348668 -0.8140703962358237 1.105143442463103
Ni 0.750814738371968 3.5547054701247967 12.977827178242396 -0.7583720742322553 -1.6512925479977627 -0.7474752248140933
Ni 6.864719471024214 7.743041499363746 13.61547455910554 0.9737014497693166 -0.42998306516333695 -0.580163257696575
Ni 6.056414495728678 6.81301069812646 9.704988121536047 -1.8922987594756377 0.6903311715029337 0.5215336209788244
Ni 8.211011953346116 6.376082287365566 1.6876030102192385 -0.9557055274125282 0.04012000794933736 0.2622278398608129
Ni 3.4750308925230096 3.2543900153430987 9.218498711678668 -0.6256211329190581 -0.12863974735830103 -0.47125826976303997
Ni 7.528758181786552 1.043982133471315 12.249191187387705 0.03692052717543318 0.33708910794607755 -1.3125314516659008
Ni 5.481996867107862 3.777891235532774 7.693022793263604 1.2640905825556938 -1.375743308437695 0.6265845252735919
Ni 8.119936649359984 6.241361684171342 9.010448039776513 1.0020494047843902 0.7489150425844134 0.7962462235702094
Ni 5.690575160525434 3.293262483881703 13.12259962384074 0.36994523524414996 -0.03397661405576084 0.8773781551555342
Ni 7.223902944707899 2.463545024117779 9.160854662829228 1.6808018703107892 0.8210013190277021 -0.8996567640480765
Ni 3.952276671732216 3.369404048155881 11.696885188352878 -0.3446548361084774 -0.2346216481077701 -1.0548341526855898
Ni 5.537602208794379 2.666949643665105 5.681765932043663 1.7287547440409838 -0.8668651714393522 1.796960454482944
Ni 8.602738301770392 1.2251352944091327 4.76625311222173 0.5311287208664273 -0.4986713716686702 0.1735803166247333
Ni 2.8528197036630027 7.553433343470409 3.5899293333430147 -3.31876684796171 -1.239955380070387 3.4583787780607986
Ni 1.4076214920378425 0.31902271374171476 1.6312276767098708 -1.368320790721379 0.04296801892109374 -0.22515741737107675
Ni 0.5187050846829339 3.622597122011285 9.678820518074486 -0.587791206555478 -0.14420494878640971 0.5420070583418278
Ni 7.760529449238667 3.4635276248547506 11.372044655039234 0.19179812518434064 -0.6404453424160841 -0.0633668942924199
Ni 3.762407501661642 0.879922604562092 10.567372437774752 0.5557840575212621 0.20008376223190058 1.1670975155683965
Ni 5.5667705431006835 7.725078130808856 4.497119529685028 -0.4633822094490729 -0.22117297880203202 -0.7328127377059122
Ni 0.028060888440025654 3.761745644283646 4.274224608645972 3.7939002844094407 -0.20354035332193335 1.156657551181995
Ni 4.546484768148585 8.076822700441268 11.701400733619089 0.22567009534143717 -1.925310181404652 -0.2844745670741552
P 4.4804015716329575 7.640360386425442 8.011477801169828 0.5793430757881247 1.2868152778467195 -0.715901049552238
P 5.828055056450455 5.793946096646437 0.3716571547751733 -0.3647462075417138 -0.836084695723386 2.3848048828738606
P 5.060598799892607 2.1041751117360676 1.4092873218047126 0.9600072401116756 0.8798872947306331 -0.524010107543775
P 9.129688637873565 1.2213971985136938 8.288114609108622 -0.08997858334267729 0.11919351434373665 -1.6586741851738143
P 6.84665356118541 8.517433275488193 11.348945832547194 -2.5667232870506442 -0.7914958533694175 -0.6927513509086521
P 3.1046610969577113 8.816331796164887 13.221011290594227 -0.37496582838719295 0.2438539653393155 -1.1493808150149238
P 3.1944220081227526 5.379147959341334 4.797292358862736 0.3252910868698849 -0.3577396943168936 0.5994904972702771
P 0.6987535963349422 7.349124496237653 2.453554706484009 0.1026374097572684 -0.4450559003360593 -0.2595862884729078
Ni 7.741568633649333 0.20297487834837372 6.882115133743612 -0.07768382513572428 0.5760237816069048 -0.026126264773406616
Ni 1.008558780846208 6.32603281888025 4.826516624778449 0.41412424375420936 0.26357818324112026 0.1519964198063705
Ni 6.620503420478805 7.591093960471839 7.351850230002806 -2.157583898105536 -1.887942539389471 1.6611295886928423
Ni 5.158087595090863 5.402639235292721 5.941362242982801 0.13348833369985397 -0.2642039897505772 -0.1841678623325925
Ni 7.62522156414566 4.836350333905877 5.775988321252488 -0.6972847200026314 1.8628812255454692 0.5497183109431565
Ni 8.11331807558003 2.457439156757399 6.49235851016399 -0.8348803910026397 2.39077009931836 1.9442113891845292
Ni 3.5106220399763406 5.740195820005288 13.100647399341565 1.9048246598567904 -2.052934600124561 0.5629211827866757
Ni 3.239409665956639 3.060148857803794 2.6389167210297835 0.025569878049304353 -0.4733565470529654 -2.585945882725682
Ni 5.351228764311808 1.2628704868897733 8.631906636076696 -1.5869491487246863 -0.024967468578615065 -0.5298182295851198
Ni 0.7038732029827602 8.95361593145698 3.913706233884415 0.4590727834404416 -0.2043847036000996 -0.46507065289508936
Ni 3.3087089300132297 7.750517691154624 9.764352067374785 -1.1583076851909084 -0.1882453748360758 -0.2521174908996884
Ni 2.3158576094757866 8.840904416564829 7.461572200372095 0.8375872484108414 1.2387006817276796 -0.20259830112363816
Ni 8.83535786529853 7.931064926323854 11.39671235917517 -0.017297610738183117 -1.408153863557917 -0.1203872775415217
Ni 1.8563607943187392 6.681944293413563 7.540446023765856 -0.3841500659896223 -1.6206192872836218 -1.05417929271041
Ni 0.6723081992133193 5.575048421293077 0.47476800891242926 1.2662773057943675 0.29366240422101036 0.25644105797570677
Ni 8.672270614199517 3.97498490515189 2.0797068970070196 3.463736699938602 -0.3588738079213368 -0.05102842733172502
Ni 4.2748156193187175 5.526770120439017 8.211574066020667 -1.9276506566123706 1.0591965434193436 1.2161302526263313
Ni 4.150759309651632 5.513001622589732 1.7259012475679203 0.2567940704397513 -0.30191975913379615 0.5715593180776479
Ni 2.146133140727017 4.790868613522219 11.40524006522292 -0.5641311439343768 -0.15765593208499298 -0.9698077711418653
Ni 7.804808640020051 2.6421999065020367 0.27286328869072984 0.8386833096884975 -2.1328228891107717 0.785596457165847
Ni 1.0778300790980953 1.778830261744261 6.478988058934992 0.9452460226421012 -0.2436397924459804 0.21632773489458873
Ni 5.390632583139789 1.8325246067760026 3.6421713209171265 1.108470192843491 -0.10293385795176466 -1.6528205546065147
Ni 4.59132327502405 0.20785491126922728 6.580741639350612 0.42633904065284645 0.1966667661305516 -0.7498203280075023
Ni 7.9428478520391534 4.748640248419131 13.261763993402434 -0.07633219620383627 2.1217928565488555 0.715095265821491
P 3.7817784823866343 2.221314545706356 7.1892868716452485 -0.07995488055808811 -0.4442691427687059 -0.15501232381455884
P 4.11003177606766 5.866769052095736 10.859591792094632 0.6954751775977184 -0.308401767313714 0.21313339632700712
P 7.421155087220338 4.6545632813947675 7.965771422155048 -0.5301285617366871 -2.2406012196390317 -0.18652556393149167
P 8.237038795590667 0.2484510055710902 0.46616759177244926 0.12843328777444976 0.4040367776112203 0.9704654593305222
P 1.3306502755574454 8.571547107590495 10.634267574820285 1.5405543635102306 0.7700286846345771 -0.9637466525494499
P 2.1008658248460903 4.0983513916362755 0.8375991557230101 2.393086920376995 0.2304495190079515 1.246953665765091
P 1.4648581723320946 2.296840862277045 11.280632829203164 1.2683670984438606 0.3910123403270943 -0.23005665444490703
P 2.1898623373492216 9.091972089262725 5.3335944600589364 1.2885690273130324 0.14370152678742992 0.9805552394663565
