# total energy = -340860.04924613365 ev
CRYSTAL
PRIMVEC
9.32876839488229 0.00000000000000 0.00000000000000

0.00000000000000 9.32876839488229 0.00000000000000

0.00000000000000 0.00000000000000 13.65359551227182

PRIMCOORD
 96 1
Ni 7.248200988735247 4.287175342499822 2.5857591549498147 0.25053806222771047 0.235993074534 -0.4616274315414953
Ni 2.555504094031783 4.333128854488668 4.6916212877338515 1.9822164076733926 -0.3719617514535465 -0.3467060622105513
Ni 9.08872030417159 2.00732701902395 0.8899103762416557 -0.47598087204969003 0.8185289462278097 0.471170338034924
Ni 7.282428239138632 7.817619668858509 8.704249117335959 -1.262855424597012 -0.44584702877878696 -1.0164714937469914
Ni 5.171999674337028 4.62439165418736 10.668892357613469 -0.22203326991979824 -1.2300450629352104 -1.78356397857138
Ni 5.87966136992166 5.644436480599946 1.3093933628834855 1.0548596066068865 1.9646532019786487 0.22955606065940468
Ni 2.9009110641696267 8.668720503773327 10.918821251319432 -0.482721276097317 -0.8339385959146605 -1.3340443860370121
Ni 6.243753862697275 0.0339119380393532 7.310722392988038 -0.05878595978995682 0.4552714074164804 0.022339029816832497
Ni 1.039821814925854 3.7228874848682096 12.21012333409736 0.13962684249742405 0.8458404895585689 0.07020757136333715
Ni 2.5891716183451696 3.7721153944835453 7.040981994326591 -0.7031406645627761 -0.3215419042400979 0.8006296973498856
Ni 3.7172435801273953 6.061814897143384 0.48176184292228796 0.8711969660454867 0.9536229338518868 2.869749648985058
Ni 1.4335424753987034 7.230989411467805 0.850576558143854 0.020510461248525964 0.3463743899027454 -1.1038545484483506
Ni 2.745297882381981 1.8695224556664112 10.815422117837262 -0.034210070222805596 0.6110100678741025 -0.42416105916492114
Ni 0.7091608286290104 7.78509025426145 12.205263045882544 1.4087336473207868 3.9876784161382868 1.0452660493811805
Ni 8.436648738091938 2.6896424514998336 3.5410595316555016 -1.0054139503812491 -1.271025104891998 -0.1989859011820315
Ni 0.4612292241875234 2.622671224831558 5.3048180111095 1.2085701808908864 0.32405644313183546 0.9444363822566121
Ni 5.624015807083182 3.304482903826443 12.538710535230761 0.414119358658203 -1.2846702064792583 -0.9643822292509197
Ni 6.189217883995124 2.537639502992676 10.229655704378787 1.3047970591361204 0.3746336418587548 -0.11368235471752033
Ni 5.838474858465964 2.4617686314934297 2.657467530093108 -0.370873146375058 0.10155420399541865 1.4394776133718628
Ni 1.6941042990609982 0.5726315078798506 1.4234011715247539 -1.1574849321792968 -1.1023352835903466 0.07682096291479673
Ni 2.3227606570423944 6.263278974470043 2.717065298402475 -0.6947341856666358 -3.163706444518035 -1.6256321671171812
Ni 4.1950350993179635 7.594428890471756 4.85961467775544 -1.249902721091086 0.6125414169169644 0.7326510153170673
Ni 3.8185073585762233 8.619389977708158 1.3920798324052754 -0.06161160216421002 -0.606184364350685 -0.35375474152721653
Ni 1.9671386857620845 1.6726947761185698 13.030472817627683 -0.7710265297714721 1.7094205624887462 0.717772298433022
P 7.12173087870017 8.239746428398762 11.078076384199333 -0.01723976091705418 0.1845375869671854 -0.005519644266648559
P 0.1938518025026847 4.4879304334458165 0.9769580448813476 -0.19222004321310768 -0.31843575451094835 -0.37979795966851365
P 0.41839431939678334 0.7006389989087889 11.785196078353485 0.07263006476190072 0.3777588177512978 -0.01412641209905309
P 7.681373009784798 4.109014528053418 11.12692927733437 -0.003070668505523744 -0.813137085788277 0.4596068015670407
P 3.9119443005332437 5.849454818598094 6.016197220808537 1.6861937307503219 -1.6045884590730042 1.4141712733965903
P 6.52707788068616 3.5968371694006316 4.569366848033277 0.6105516401804453 -1.7594598864343245 0.005307528255842472
P 5.0989367620559385 -0.1598045973249153 3.1613264261717053 0.7480023009621569 0.2977669133076872 -0.39782447815292127
P 6.013995631521211 3.4822332524735153 8.16169635665579 0.1315101269275606 0.44635276477061187 0.4371605567483826
Ni 0.35258079285798694 5.573043417820686 4.2755684891468935 -1.5953898232928718 0.9410219572584245 0.4708579490008278
Ni 7.534734102973455 5.059252182275072 13.20489746042335 1.329229224036556 -0.8690120425790259 1.2271888244333382
Ni 3.2720840919837184 0.19466620396363196 8.735324176975839 -1.6598658914890703 1.6773972155046144 -0.9900541800957273
Ni 6.717263477299357 7.757831593678542 2.5480616027884406 -2.069465507900049 1.2105327039338958 -0.057210387772720826
Ni 7.4260446250639855 0.5750700478786092 2.9688925964303494 -0.04659301726819072 0.7024382391791129 -0.035509248650203364
Ni 4.977214995017679 0.40920641562946414 5.281346830402245 0.7955096025145009 0.3194359136406886 0.3733100379513248
Ni 7.5329056644127945 8.959274317091355 5.164649537898535 -0.19851744618604522 -0.33142908144682276 0.5452721022463448
Ni 3.296124327549138 7.508650867179543 7.599167904700406 0.1199656166230708 -0.5486939834437002 -1.1389732465283546
Ni 5.321605129425361 5.189061991313804 4.033053167502955 -0.5615384435065361 0.1524597325960342 0.8304699206397698
Ni 7.095050601743593 6.093047612965279 10.457861628531925 -0.7128761466829852 0.695720460839305 -0.4930907922570991
Ni 9.086192207998431 6.0371496341108 11.776580960951595 -0.422147371169002 -2.882886443477332 -0.49368086043261433
Ni 4.791908344155632 3.754456036344104 0.8716054673450836 -0.7471612931181004 -0.18283808777757543 0.6307810798534427
Ni 7.5163564296851835 4.222237787291872 6.551486602594162 0.24269979713021428 0.24466437705575286 -0.008925841734720111
Ni 5.514514726343215 5.655220536600577 12.55027540912694 -1.3432648761940158 2.1111461754682868 0.7213517882541641
Ni 6.1481526465255945 6.7438318090379346 6.2441848517865735 -1.8696411699771223 -0.027114853938921043 0.199236840850573
Ni 1.8411350141353395 6.165196305966038 5.872383997874867 1.0544752266842743 3.502570384976348 0.6469042106675504
Ni 2.924503518863048 0.1572345216950072 3.4731330391269624 -0.4563540989576979 -0.25679741287386093 0.6047270630788681
Ni 4.437974879913484 6.8083868847510525 2.788501273515303 1.00781536073389 0.9421617272898225 -1.7883578004155973
Ni 0.6106238491152902 -0.09346772689197058 4.566936703925869 -0.7987494496080372 1.8171546700426315 -0.020444641007597047
Ni 1.1160751659199322 0.46674252617400497 9.718928969175913 -0.7046918110999798 0.04524524499104466 -0.1541674593157603
Ni 5.905921852310738 7.945395806436915 13.597014505648355 -0.2540836134871237 -0.7445770773306919 -0.4734275095002169
Ni 6.741966055404608 1.967073384384918 6.052707220782297 -0.06038364329437988 0.057625106712636244 -0.9042816644145975
Ni 4.6951970045721225 5.682264635515653 8.333458569016699 1.1146117869648546 -0.5716606195422026 -0.853194358820479
Ni 0.7478089822665644 1.918302584409748 7.736249488525031 2.820521508086865 0.41389978644822917 1.3430427328808805
P 1.1013170546803148 1.7869068847826877 3.118234980256383 0.19070514923047802 -1.957716108539183 0.35856244732850506
P 6.973123601805668 3.0949401132674774 0.6773348031517169 0.11481312588785386 -1.0976458485344773 0.38974632913047713
P 5.009651121933071 8.352027482052387 8.722995276966813 0.6554842390270775 -1.9162185035160288 0.5486849845826357
P 0.270767496036594 8.830070877983454 7.8577809486926915 0.16929248788265683 -1.1715488664715308 0.6799475142757645
P 1.447134490617491 3.4102338197634228 9.22286705753099 1.2208947638945102 -0.37682396464185425 -0.34496516826004464
P 7.724313329655821 5.721958544064687 8.137583356698672 -0.7124585995295923 0.8423970110946589 0.42501312275257125
P 8.295569777107909 7.1719476377411695 0.31492428727654626 0.3911090138059587 0.14465849138406053 -0.22356127652855046
P 1.656126883854625 6.322339405733012 10.338160472678558 -0.20709670321462398 1.2490452581867972 2.9947284025520036
Ni 3.04629991604664 4.787990261525645 9.789299598964112 -1.2446890381006306 0.09290706984338193 0.44804557909200254
Ni 3.7764532716810306 2.168854639829243 4.376632631956956 -0.17196900627355544 1.3405577616754978 0.1537537688171094
Ni 9.200115124849383 2.6109356344779306 10.388924830410938 -0.8548028409581794 -1.3839816371870874 0.7432650433874877
Ni 9.100857031556382 4.853916666159259 9.529471949356532 0.03615459554368612 -0.11663089582288301 0.6795448795207071
Ni 4.9322596612226635 3.6182093772703934 6.297898033136427 -0.4643926529914583 0.4621560503514556 -0.4371888388831567
Ni 8.4077202280072 6.88686048256879 6.389377799532088 2.3538660272031593 0.2256096744171469 0.46326419581396994
Ni 7.753073921913558 0.6011178343534885 9.808838703889128 0.08335413604762418 -0.8784361641064032 1.0044713839623216
Ni 4.117727597521055 2.856832634582274 9.020657611627817 -0.16238213391606873 -0.7181037136305116 -0.9456049486434167
Ni 5.603100708853585 0.8541737311489086 1.0691458647808558 -0.17134165710220167 0.004516399813114803 -1.312094107018166
Ni 2.792706682204822 6.490490451936616 12.294093442118879 -2.098530543586805 1.765819252993449 -2.226443954302043
Ni 4.8760165179460175 0.625419275427574 10.251528867099099 1.1457650726392072 -0.3083871120256947 1.724936141625842
Ni 8.206619972639041 6.262644618234711 2.465402186694334 1.9271626612323585 -2.789207528464932 -1.1581019969380053
Ni 1.2853176779990327 6.272010701474014 8.389752087641444 0.03988423778944744 0.07343584849264773 -3.392483718029886
Ni 6.789990553926447 1.2541036197134703 12.31840980922203 -0.21541370772075158 -0.9641197196181523 -0.047918678058149734
Ni 2.3544691400407887 4.162029917544407 0.5325252677778515 -1.2940855862558875 -0.6705583597513806 1.2563543902537009
Ni 9.242197198049075 8.18579816209111 2.4185568444687573 0.7589670275037768 1.6893461603363744 0.08896659713839516
Ni 4.3376719645858195 6.78626837542796 10.538459386861206 0.964862511321448 1.1879586752881217 -0.9340267568875139
Ni 2.6716379289382273 0.19017999935229699 5.947410615855032 -0.45356985134434147 -0.11194557453207173 0.7448491000451559
Ni 7.793364871625257 2.2527016081109625 8.27955414791943 -0.36351053536239974 0.8655158565003094 -0.19900415601447663
Ni -0.10168823740040975 7.625008592521986 9.839271944279144 0.07159519573948314 0.5033582356213783 0.8110305809682355
Ni 3.48072199203052 2.04118111870067 1.8585816763605811 -0.33471906505200416 -0.28757094661129184 0.004417155231089168
Ni 7.715674890333517 -0.09563666549071333 0.6593564011409772 1.329949390032032 0.20529230301603354 -0.146140989466858
Ni 2.756249856209611 9.006627144305197 13.03764011021011 0.7736601107395773 -1.4212991426906232 1.565120482885369
Ni 1.1138176040236065 3.849665444252785 3.0611494492142906 -0.005138092557513733 0.1873344329860322 -2.776126784021574
P 3.436867452879167 4.1736722202163685 2.5258199537255486 0.1318464272210568 0.24199608619497032 1.348031958565356
P 1.8154156002999255 7.633889579816623 4.002101247602876 -0.8509911805215732 0.9510911685689685 2.087765077540185
P 8.679448587164957 1.1378018669800263 6.540618587680032 -1.8888848486980823 -1.4987891066479864 -2.3698274356284217
P 4.41245137020957 1.233207179020207 12.653127876794544 0.34010269796142073 -0.1599521843183374 -0.24928259255405458
P 0.5218979350824204 4.768558437434544 6.497240748581993 -1.069218703542036 -1.523483266960557 -0.2383312357488734
P 3.8374540867226594 1.5602551334061128 7.129539057655644 0.19490761734759982 0.9867436276652554 -1.2543049639238397
P 3.4121928610784162 4.545796782383456 12.406516293048638 1.3092898048001516 -1.8790352095975122 -0.943112521238866
P 7.359801042312707 6.751630659225242 4.468603091558181 0.23467384150194423 0.2725323071106145 -0.7159912952731992
