# total energy = -340854.90350949793 ev
CRYSTAL
PRIMVEC
9.43629489757486 0.00000000000000 0.00000000000000
0.00000000000000 9.43629489757486 0.00000000000000
0.00000000000000 0.00000000000000 13.81097141790090
PRIMCOORD
 96 1
Ni -0.21656862878325533 0.6072633193344666 9.961342571783442 1.7980727137105161 0.44655536769972126 -1.1892956489319904
Ni 5.420943797815611 8.72640239644676 9.796025291266048 0.6881688737442921 -0.5651367023807558 1.4414362797601306
Ni 0.8355905151411033 0.35406016302141996 7.5415915939172455 1.2759670222783057 0.019513387442579296 0.05716822168087573
Ni 2.7263437468600777 6.461927537738854 12.12427912329418 -0.6675249722416955 0.04686375443107413 -0.15740884907119343
Ni 0.5669392005149376 7.713104745638837 13.028856502888004 -0.613140483953544 -0.6901537653848049 -0.7563568435744393
Ni 1.9763281589037414 4.13703208305092 6.441754626590001 1.2280450017860465 1.806663797813637 0.6198474636600744
Ni 2.351345389176769 8.817283352230554 0.06182566028448104 1.1335024532217703 0.05701395549119858 0.16537772620928293
Ni 0.27679294983022107 0.6214234233993781 -0.04960943296045455 -0.19315386788128672 0.44158696795085234 -0.6925132667559171
Ni 5.415819889707356 1.6478224259890697 10.78284658595953 -0.5803872007819231 -0.432622559668713 0.4691479082882566
Ni 4.987968844520669 1.136790441623259 13.320391776175915 -0.4351185866176894 -0.6873229808042292 -0.3774500282616273
Ni 2.9125784621906723 3.7285631875039287 8.775490945931017 -0.1561793475394665 -1.7475873033664548 -0.7288660943533383
Ni 7.495031971455112 6.548373434939075 11.655797279705059 -2.2092682138537043 -1.032302804352293 4.240484448464568
Ni 0.5712581926717482 2.5815909837281716 12.199990291463186 0.733614150561285 -0.307038054196968 -0.7244201427668426
Ni 2.1242703896978767 6.541947318140324 0.6144952957141468 0.4592944125329445 -0.10623284041801058 -0.31012569198335627
Ni 1.33886869602155 6.314570357225955 4.6302105975441386 -1.53162723622393 -0.7572526159158314 0.06445344248837932
Ni 7.216765072367967 3.772130560866381 7.349563937172919 0.9039620762916496 1.4838414841992187 0.3922192161510019
Ni 7.288613021421836 0.7170536663855371 0.7273552694827408 -0.5905502573578538 -1.8312877670099041 -2.0205183885773845
Ni 5.9782985536426025 0.06219084489551134 7.8331268672051575 -0.300583813931192 1.589785332621901 -1.0697462939107318
Ni 3.951033275091793 2.756058639370011 2.8245784072272286 -0.7908479353727734 -0.21521470433606804 -2.50104882767097
Ni 6.980725592773345 2.7758842948680647 0.9722743025393664 -2.0520072032142855 3.7544271660154824 3.0319700605122817
Ni 7.007062291723876 7.623997813288473 7.010130974811913 -0.4921549107063911 -1.0174251159095125 -0.8865958170990602
Ni 7.621308469253754 1.6489736539618265 11.298396668303669 1.0153965155152578 0.7712304182521621 0.7587068318638546
Ni 4.374468134284625 5.613359286278629 9.195151287180384 -0.10368102053043435 -0.86042661490286 0.4770612495980623
Ni 3.3902342716413876 2.704781813108031 11.954072898410514 0.14189609814757498 -0.02810832820044192 -0.4549793300973584
P 2.1127581099703066 2.1500880924311816 10.136631185077984 -0.7909402379762637 0.05651156193348333 0.6220781527628061
P 3.348629647609538 9.470359883103834 8.028718612517602 -0.1759884118455937 -0.32418602673116426 -0.21871500417984266
P 7.406142073886496 1.457171524664621 2.7742508722280297 -1.4979136460215687 0.48842526846062984 0.04057483609856883
P 8.00982903746953 3.7531541719056074 9.645955175981284 -0.32331365142853996 0.5755653539132475 -0.042150408115804824
P 8.488258623098655 6.421181616539141 0.11117559513632233 -1.6339913377151536 0.676793542027815 -0.3303744149300633
P 8.51067925968284 6.517365770033504 5.381016947009631 0.8897122512408547 -0.35994467238801237 0.46807113028431
P 6.710838123520694 9.641722997737174 5.29696315055608 -1.233178723468186 0.20340665595754645 2.4819586438087384
P 0.8661641104831749 1.4597381968661778 3.3443955821064555 -0.32271355595069584 -0.9888287923290583 -0.7660984963422355
Ni 9.134654257212002 2.220011037333882 8.340859922888379 1.2814869236552704 2.114103458324398 0.23318568699219194
Ni 4.612630780222447 1.9526241862187774 8.61049166855036 -1.5026506464859217 -0.7642388174256773 -0.3558136809387743
Ni 9.029807585037386 6.739524459891032 2.589943991937061 0.7084582201209476 0.5782454718485719 0.9444186416447994
Ni 8.87113628698895 5.65925742447117 8.244693698354249 0.10708670377787365 -1.9181568581893222 1.135742655406199
Ni 8.53794071552952 8.920535290574056 11.658172395120983 -1.0843239346145908 -1.0369066216728915 2.3494784396584243
Ni 6.159833994133582 3.139247700990641 12.41580118576929 -0.6343929655744172 0.7597632981528271 0.407787245792588
Ni 0.16042361800369004 5.011653944615916 1.2234448809398568 0.41987991529106405 0.10043166035520122 -1.451034464971527
Ni 0.7003231156011258 3.8603693540897486 10.092546702757279 -0.9990478989539053 -0.6826065491651663 0.4243392366139982
Ni 6.794670167045065 8.114609655580136 13.902399795950656 -0.17279638727085728 -0.5771977473103479 -3.7400019917290876
Ni 2.2066869889934484 7.4901534070131826 6.580817303922133 -0.7212157768969321 0.5094592063127935 0.06210859640528659
Ni 3.1658957976715087 1.4014879487036442 6.256190831823858 -0.9109757886053215 0.045582830836121496 1.7034129228420858
Ni 5.210476677287968 0.8909315535987105 1.9273075507424677 -0.08115969949946668 -0.06550708056387428 0.30417281683403097
Ni 8.234252438093137 4.225346366633157 12.230595970207776 0.258817014407051 0.680376374283067 -0.5822273393144555
Ni 4.083745325984044 7.386354163567877 7.992520041810281 0.45612604210729185 1.463965314100582 -0.12131056068673947
Ni 2.3609515373428884 3.4136740280703095 13.988718303170284 2.692114188454344 1.4873654381920773 -0.21692140261452963
Ni 7.011629458435468 7.382334301958086 1.9909761194128457 -1.0301245657540516 -1.1304999189500207 2.271465770428372
Ni 4.323285670971231 3.719466599260177 4.753639221554436 0.6300722267118761 0.5398609585331025 2.723725644712038
Ni 4.088869234092298 6.040568663414927 5.778966261048184 -0.11895877262511124 -0.16052656876456872 0.03978884986216374
Ni 6.4608895453044 6.572228388341777 4.588916427613138 -0.29235319849128366 -0.550353373423994 0.3822083688822192
Ni 2.7866133621223654 0.2631490110940787 3.1534172413504113 -0.5413740527435194 0.5942724434044475 0.6832711793323587
Ni 4.880253538709019 8.580441787572946 6.088705090747944 -1.1131544856930378 0.012650855994791115 -1.425697528868635
Ni 3.2497844589650318 7.2167178908936735 3.7486294685208783 0.5603372241095833 0.8780818660907781 -0.912716425445512
Ni 2.4599382704102744 5.233359692320227 2.3686779755731626 0.4106301145580219 -1.849904353669827 1.5229045116389515
Ni 4.358360378960885 8.040544177234482 12.600259990407483 0.8839226411422711 0.795487491027314 1.2822222591593984
P 0.39919396133041013 3.8432896603955666 2.9847717796363673 -0.00676791485145286 2.4169017634084056 4.227023694973972
P 2.7799702105418658 1.3784256440690696 0.5016513636468127 0.958902179972955 0.6817125765959873 -0.04349612351042187
P 3.8059691142295504 8.504941992408774 1.7268410155060365 0.8682926479144982 -1.1863787323955117 -0.05256491858090948
P 7.1176367948777015 3.5378651047051872 5.24031046711312 -1.134719613458323 -0.6059221118282339 -0.5963018151296504
P 1.0324250204864345 2.2792992779308685 6.42518166192973 -1.4410868668405117 -0.9939969667935591 0.4383517488430063
P 4.026589688025116 5.265820546634031 14.060536056080606 -0.6494313479647783 0.2991828198186073 -0.6826834251496888
P 7.881891751775761 9.108194886428308 8.603738112320015 0.7718222861998901 0.04706378625702217 -0.5096384122031352
P 6.177838444723912 -0.43995403697240953 11.913123153241855 1.0817201784431563 1.4251293150699909 -0.014805697554264825
Ni 5.649368187459292 2.1166364271572173 6.292458287483648 0.4663068392950356 -1.5376608440125195 -1.516447443159698
Ni 5.400070713588246 8.526032111417887 3.679960607204894 -0.9284585187711171 0.6941533734625013 -0.6663875162031426
Ni 9.248956096835 7.634179575440972 7.361993424760751 0.6080527850179914 0.9355707043358662 -1.3415257820157218
Ni 6.539805279207408 4.295618454445628 3.2440311499897043 -0.6501319735762288 -0.012702535168332961 0.08477209944107335
Ni 1.2109219740329238 4.752287944130675 12.647037591280853 -0.6002625995496114 1.4255509759884417 -0.4708975439895116
Ni 4.948459077947442 3.9084567126895005 7.428258861776233 -1.8779175510533015 1.1696953582025598 0.13571927991290175
Ni 9.132984033022018 4.055474186587486 5.286604929689726 0.9172461949950653 0.6589079199966459 -0.343420449480744
Ni 8.168405972569378 7.4090295801132475 9.938940807788972 0.481987483255086 2.4283298027396887 -4.575547527119553
Ni 1.9732047453055237 2.8823917549378058 4.496921045406537 0.2608540994417378 -0.04387536122671153 -0.6727988190461252
Ni -0.4714759799477768 9.63200361403275 2.0428087434420013 2.8078341424271835 -0.819533476232924 0.7294898439802663
Ni 0.19581349824162372 6.190332099116784 10.982746943504443 1.680951765625092 -0.627688556971048 0.5695026926589353
Ni 8.06746592646625 1.6289687088614588 6.44929516981156 -0.25122043300671576 -0.4336391738586854 -1.0789171617767224
Ni 1.6346587946612332 0.573202069412633 11.830422521471037 -0.10410473833141427 -0.8758612042903754 -0.29021712598488725
Ni 7.754143191979168 8.893858885008614 3.7477594421349094 0.6596797651656638 -1.3303481681323477 0.11403202474745522
Ni 6.899611202168268 1.9602298398748605 8.837488346781925 0.5059118552811674 -0.12970444117738952 0.9339300834086496
Ni 0.7632565969020141 2.8102040992690256 1.3638899754687832 -1.7227684445505618 -4.121045393768929 -1.1146711794478803
Ni 2.22186055112618 5.483298834241662 9.972266970341318 -0.3418021971510307 2.4122580939888065 1.9876686890372157
Ni 6.535643873174736 5.7083261577362245 9.616289352204616 1.846693817152329 -1.0708816930667557 -0.40369662066298223
Ni 0.2542317124526412 9.688810109081906 5.230919466469777 0.42111378769816504 -0.017479130621369895 -0.7245160449147587
Ni 6.368838488958133 5.336809792855762 13.773751013624544 0.2913016172983177 0.16903692022842498 0.43977691132530716
Ni 4.961679327044431 5.259922862347366 11.742432846431939 0.10284464067206804 2.230123202925843 1.8327147292644177
Ni 3.357395965533237 0.45164183178435086 10.25403850933897 0.06420918768805715 -0.9394016480461821 -0.7595738078498403
Ni 4.845112776655354 3.3394009512377645 0.6688587340243963 -1.070746453040472 0.05839489499912524 -0.25675910343675784
Ni 1.2385986268533853 8.049952163208568 9.176879789445552 0.573426967414006 -0.40281704627150633 0.6501831385291383
P 8.430215973423014 2.4352246141754335 13.561531573141648 1.8320015052474772 -0.4439384989021645 -2.270192045922271
P 4.507585945855799 5.428483397407684 3.547195713061434 0.3466119598348482 0.5863261919741772 0.11196562913672976
P 4.16937970182642 1.4817436364765824 4.467738359926632 1.0802983583949652 -0.4208399652114881 -0.6412488121539859
P 0.8016236281678563 8.240914462263353 3.5867649282922702 0.9325216330968973 0.03019889218088347 0.3544365980855896
P 5.9113008601460875 5.764585347683579 7.073675928019643 -0.12164866075244858 0.31132202628430256 0.3152013067340507
P 2.2323914561884495 5.78019297937981 7.9411979213329795 -0.21289968304964624 0.592819770118321 -1.376640623440984
P 4.734302366130062 3.849442124643416 10.371597757947178 -0.2243819726576329 -3.4239959297055544 -1.3426133586529458
P 4.12424590351743 7.311118584659749 10.658976343349847 -1.0020072386925452 -1.4258289122401766 -0.9476083522266906
