# total energy = -340871.95160353347 ev
CRYSTAL
PRIMVEC
9.26241100475965 0.00000000000000 0.00000000000000

0.00000000000000 9.26241100475965 0.00000000000000

0.00000000000000 0.00000000000000 13.55647476431712

PRIMCOORD
 96 1
Ni 1.294699800108443 4.451755516718562 7.357180241773622 2.173879807052082 -0.9505905747834661 -0.8437717799549984
Ni 7.066524860478852 2.7376166999545832 2.0609095884506283 -0.8948781117125104 0.2705271037551277 -0.817060074991767
Ni 6.372325685929362 1.044522080828653 9.61676020855095 -1.4426981771916896 -2.9700206153926785 0.4739378734777322
Ni 7.9847539682464195 0.4760286424871461 11.560121466101618 -0.5562933930575128 -0.6325422855189234 0.2598601109595847
Ni 9.119918002457968 8.362762220802047 13.35371046511907 -1.3940824730665153 -0.5570292427822728 -0.7125185062332503
Ni 8.193352724851385 4.948674600822281 7.558155107940263 -0.8127740460219035 0.8137670060627921 -0.6118649596752301
Ni 5.201973752586236 6.770776079412443 6.809769903196079 -0.36290401212665246 -0.11512628625289852 0.18399225598667668
Ni 4.183025188341496 0.5778984904021031 0.48856161071955945 1.4432455650547273 -0.031211392605797864 0.3621036277125441
Ni 4.2262158105185295 3.0340138497862488 3.9762224132162904 -0.2211256705038643 0.8164172992014457 -1.2589393773720576
Ni 3.068599692207231 2.6132039963127416 0.47958633452621935 0.3344935793047594 0.5837244926852722 0.6738385731645492
Ni 5.500204859782484 0.9082238514785618 12.055921650964725 -0.10315008772762879 -0.2825732362863843 -1.4309312664637486
Ni 2.1055312531166925 8.974600037342062 0.09254260010619171 -0.024416738281467627 0.039055314130248875 -0.14984337801910969
Ni 9.003656220436499 2.7751943011066795 7.31350149054046 -0.9383053296582099 -0.9749024120559534 1.288244296983762
Ni 2.579729643203628 4.911134049313914 2.238011516680515 0.15611866950486017 -0.30186987973246726 0.2494980509989703
Ni 8.585523203722408 2.054458319236324 3.720140833208291 1.886243040199861 -2.78377710147798 -0.9074394933172887
Ni 4.7242463839341164 6.120841966708127 11.422238438241022 -0.28717525383476994 -0.4020765685610559 0.8069831503717393
Ni 7.807601096756406 6.115247470505055 9.734958760698351 -0.7496650333765605 -0.7934115823348916 -0.17593981799584538
Ni 6.3809026784526175 7.829775308528187 11.045042499124152 0.6737526983189621 0.6221010355809415 0.7437059875796482
Ni 2.467024626980137 7.365811882521376 11.860247662574606 2.102114918503954 0.7669251060085889 -1.8302927500864865
Ni 3.4073538472320277 0.17043947604632625 7.516427946690524 -0.7235593374284442 0.5371337894099265 0.3261084405648577
Ni 7.6680999257059455 0.7765169992275817 5.184822546263009 -1.524641548934716 -1.205536536270885 0.12819983160740503
Ni 8.357575270679993 7.651909231396392 4.348334214972454 0.7119922014161351 0.3911198124392361 1.0583905025782805
Ni 7.087142987214018 5.717074949349941 3.536138408833886 0.5050217393667302 -0.9693760829210853 -1.2286186149013292
Ni 0.45825037094380555 6.296846299242543 6.013963933202109 -1.6202282224927902 0.28145480641122494 -2.0506046664398037
P 0.09593912619504394 4.34202373440432 9.266785568922838 0.20544528365413006 0.4380375600366972 0.9453864048747074
P 3.9163696400132517 8.295415230913733 5.713918319704234 0.9397834568656331 1.2730693890155365 -0.2820983535324948
P 6.072306933423192 4.445558963804894 10.869255833246644 0.9923152082157619 0.037258370130826154 -0.33099790744667507
P 1.069576902400361 1.6314625367828082 13.411081838433361 0.23683048283363087 -0.4083233208017161 -0.5999224426013732
P 0.43133565725690387 8.409824530748756 6.664389879926927 -0.6596494261483606 -1.6333729874048644 0.21822829435141125
P 7.142319169137369 9.12013103790941 3.0832305965157967 0.9539042125377313 0.667773855027708 0.7539716311717143
P 1.3125021539202075 0.945534695195809 3.3752364373244874 0.5334550550067586 0.31790302193592995 0.2080446689501901
P 5.133107727305035 5.910399990327645 2.214748045383102 -0.5666310275380951 0.023147127540424653 0.6887571421475944
Ni 3.135372412617746 8.919562791582695 2.3090875532101482 -2.9064637165766394 1.4241972901740245 1.2464445873391565
Ni 8.20499557539321 0.5363278638971187 7.386977417742637 -0.456144296939737 -0.36977502821487285 1.4990130497333345
Ni 6.895642641189966 3.078612358424982 9.125242962502913 1.2338160999418686 2.8188430919431773 -0.7108758284235047
Ni 2.553674481251238 3.450701930394909 9.29091600188351 -0.4309004347712837 -4.597695009750869 -2.0767131906013976
Ni 3.680428246336314 1.5939219852744415 5.707940359688567 -0.4116349016734524 -0.7565738446812519 -0.2737304411837737
Ni 1.8595030939345458 8.601649061155436 4.8484321585081185 0.01342270116380914 -0.2496852273091119 -0.39522123620211935
Ni 4.164676352284729 8.89265548782454 9.788927124236139 0.4308325576478257 2.1056707541760122 2.1398414865204503
Ni 7.9761306636685045 7.438734843790898 1.9743514320477569 0.07127252229274177 0.5838509909608073 -1.0720687713963215
Ni 4.8618302359216035 2.2590649767294955 7.970569512144787 -0.7074200086644203 0.4818715265025121 -1.160735835016427
Ni 8.762185167433014 8.316190818634746 9.293356647164154 -0.02292344156539278 0.9472329711651429 0.5514772026157921
Ni 6.122833385058558 6.016223035228482 0.21028266291244785 0.3549384774226726 1.5587785998277413 0.048795167125832095
Ni 6.452890136217983 3.0294104315529258 4.604348179380649 0.7478935432984345 0.9215790180424646 0.21800332282479876
Ni 5.828316504646138 0.3315072447114125 7.089412277892416 -0.05077157412591256 -1.2945599547891447 -0.4135822552078103
Ni 0.8143002259023733 2.5418463824907684 11.066204329381039 -0.5856733888815269 -0.19083781815360037 -0.319692766846501
Ni 1.9566102101481453 2.827341674655188 4.417065009054045 -0.4640638088971298 0.40085426611818065 -0.1926681864941198
Ni 1.3029155586053394 6.6833852322667635 3.4587583754237707 -0.6276700450282868 0.21196431571957047 -0.6107958949807674
Ni 1.082673951458548 1.0885092703458588 8.710699130025066 0.66960139515475 -0.3511350445161824 0.4221262881230795
Ni 3.3514088852013013 7.326789345263851 8.501671523793936 -0.4197888982391544 -1.003686169056865 0.2064935224129863
Ni 4.165093160776681 4.831125343681229 0.34921790065494773 -1.3525378168555093 -0.4604565511618457 -0.4034019722406988
Ni 6.426112506212878 8.7439382178965 0.30137013826118475 0.9024255850424652 0.06295603200724642 -0.6847858162046723
Ni 4.9730717912178 5.45795900352054 4.5629739159874285 0.40099927633647714 -1.1131758258492763 0.2639728475763777
Ni 7.616702807442949 4.208626492158206 0.11563193807807844 0.35294278714888244 -1.183846195781645 -0.17298999133890208
Ni 2.766200500091475 6.519570232519175 6.295233713499241 0.7596604540263756 -0.253976141374982 -0.19449418395926504
Ni 1.0474860523269698 0.18782502136613988 11.402527101536124 -0.8336092375996997 -1.6436432589826209 -0.7403332144526734
P 4.632261380966046 8.1071382038941 12.498785304867893 -0.14587796561345842 0.083009865334328 0.4236393823334962
P 3.5451692594928197 5.305972102533421 7.981740905970161 0.03386888483330296 -1.6509747596470277 -1.2281529881188205
P 2.45822533659451 4.904770773003466 12.014751160612013 -0.5225512636100613 0.06616142631842153 2.0832517630508636
P 5.93800197490572 7.857136470422023 8.997459667522829 0.26556744575700714 -0.07676928374125488 -1.5381699224384542
P 4.869814434145194 2.436579082245866 2.012024436032455 -0.724440711592133 -0.5427297954404653 -0.7613031318361212
P 1.0025818841274725 7.595167702025492 1.4342482094546571 0.5294533900465334 0.10802541354205913 2.106629518544856
P 6.836298374347106 2.3382863774329397 6.645275042486063 0.3861082181572576 -0.4866074985256007 0.5542465378308132
P 7.092885681992006 5.963584753900564 5.639642120197512 -0.15826836885801132 0.19784613115063346 0.9028449319680709
Ni 2.63184922951934 5.3347041012452285 10.015293037491327 -0.47905051211394917 5.4247191379338835 0.6676643260330372
Ni 7.436252517661058 7.3447398976505305 7.369787309293494 0.8843805546152962 0.5024822607743281 0.15431426930626974
Ni 3.750424285751248 7.110261964900887 0.9856048111297707 -0.10841699255352295 0.1525242672853825 -1.0000889386239098
Ni 0.19465141822320042 6.929691263776878 11.250247508363545 -0.3423994644153974 1.3236998095778945 0.21944416903638336
Ni 3.74104146347689 7.187297436624323 3.765094092185729 -0.8352544865126066 -0.14789036805779693 0.14175828701813004
Ni 0.9307426249370226 2.5829622246189796 1.8224784587151048 0.14159347930549163 0.36771994545805703 1.6774280687425498
Ni 1.4479093393386173 6.212123026445347 13.450666604034474 -0.5146559200223846 -0.865477032842574 0.5998985313419732
Ni 5.4284674871122895 2.9928053835487147 13.244715970715033 0.5879231041476519 -0.243019128142846 0.8877188749599098
Ni 5.346532200005698 0.8875306992148454 3.922159573086995 -0.1472617333348625 0.8163846461912971 -0.3631492953682391
Ni 9.130301165113009 3.7585196329060255 5.205686126887878 0.10012132820363402 1.3286486689427375 1.7517226656910672
Ni 5.949283591421186 7.95435473556681 4.8020284059786915 0.010932844862419881 -0.2555964505872243 0.24491428828302983
Ni 9.158458894347017 4.668153223328474 11.532669532580648 -0.2394524938375102 0.2705687556263405 -0.38156147932683965
Ni 0.8931372365521301 6.450796831347296 8.214152394840823 -0.439312827204695 1.9788148381910113 2.2656296233625692
Ni 2.8721995308000237 1.3577119816804686 11.851422437438368 2.300863763974515 0.9862044673323339 -0.2896178018379915
Ni 5.964937065896671 4.261727894032735 7.055359024100038 1.459006684543726 0.9721639300788676 -0.2429389097242139
Ni 0.977388126391781 1.0914825042551075 6.159750576311185 0.6759862156351714 1.2593183579780312 -0.9509286748491752
Ni 9.154022199510475 5.42218757250023 1.5487593958099348 0.4313123254977217 -0.9323475694128781 1.2716023175517068
Ni 0.9942735015212536 3.8039795457614574 13.422509801041558 0.2145279626816886 0.439196870452121 -0.7204729851936366
Ni 4.074608668379632 3.7142360462389883 11.288680030044688 0.011518285052244679 -0.8880258646773674 0.7427629069400885
Ni 7.479359778139701 2.861418084474897 11.633489023095889 -0.37621512741326174 0.6212962802914591 -1.1481975933400999
Ni 4.03398373403083 3.922408731941072 6.180980022167879 -2.7866032580728652 0.4861853233865175 -0.185948351271783
Ni 5.301377946711031 8.35669534164143 2.377398760076508 0.7595072162779629 -1.4876989102720959 -0.5103349240495275
Ni 8.521640355522752 0.8037049540369844 1.4816958356961474 -0.22708985850709923 -0.38696259573775293 -0.08453915749466086
Ni 5.3642048800644115 5.632703648168172 9.025453452083337 0.7928780784289248 0.14731315539808823 0.9036319466457405
P 2.0451032841947616 5.155457924884529 4.855766135484266 -0.16396079125709828 -1.7023310026318166 -1.509206702436885
P 4.215906747150946 2.0502439222621547 9.91219592012785 -0.01574903530414062 -1.6691773986979834 2.038723855841818
P 8.61331969893006 3.9784185308483244 3.2680860889370607 -0.5423826965136916 2.9795637789964236 -3.022219923104053
P 2.2968556133330327 2.475342271997288 7.27356382708283 0.5123776655111691 -1.0186566743237682 -0.24569821763690586
P 7.271474227176516 1.664862790604464 13.359417962735515 -0.47375532515328084 -0.7610956438110054 1.0323639966075315
P 8.290154181504223 6.162661752067189 13.15181398906467 0.38961083199387736 0.8758370359206593 -0.7315130450578821
P 8.448652557376704 1.4936100748782875 9.718718049369762 0.9967817286275478 0.11452387678220921 0.0479724141142206
P 1.6644181948797165 7.928957204790608 9.701216723913298 0.12375722245501913 0.6967247337341034 0.8833937652219948
