# total energy = -340859.6312180519 ev
CRYSTAL
PRIMVEC
9.42061129260247 0.00000000000000 0.00000000000000
0.00000000000000 9.42061129260247 0.00000000000000
0.00000000000000 0.00000000000000 13.78801687670850
PRIMCOORD
 96 1
Ni 8.52624654812899 6.3457895843112855 3.643276267278682 1.6707768819746196 1.2188671919415202 -2.6755714536043143
Ni 4.7139890112233225 0.38521726661557015 13.70072445075445 2.942752523705345 -1.6788288057448182 1.909638536305666
Ni 3.516497451277917 1.3907365555333038 3.7282793833362633 1.2244439146983492 1.4233999910837098 -1.7692689021049464
Ni 6.060985669398141 6.996744391025476 2.0347389512523266 -0.7560357127895948 -0.5264629399596417 -0.9550398688040713
Ni 6.263227348590896 1.5906325025610235 4.276960267654878 0.5279968601056649 0.5810813986354703 -0.3490041142161086
Ni 0.47936591193346106 8.433952821137588 8.38068774389128 -1.1660238228882436 0.46995472046026804 -0.6044753520793783
Ni 6.422586406035682 4.876155410777268 13.633205046845827 0.9884642099007881 0.1191112390425755 -0.7789475843907617
Ni 4.866461601950673 4.882194022495292 1.3683211534711068 -1.7987162608317862 0.8126313497964521 0.6947490980649712
Ni 6.9189395639128906 3.871645069308833 11.088653710631204 -0.9285209965779364 0.406307575923268 0.9337382791128176
Ni 3.737307154957766 5.799384719635534 12.72159606178504 1.956168561546405 -0.028600437345512035 1.0686654021417272
Ni 4.587178165144802 6.5330053887922634 10.124099007040552 -0.34980398440958466 0.43060912878311003 1.3102647671189112
Ni 2.073759122447426 2.315520265223823 10.992441009420302 1.0796311571246118 0.40031304890272995 -2.0876344654995918
Ni 6.017876952983661 9.226970443308586 2.6297334438831923 -0.32090272799420216 -0.024425994252848256 -0.07938409565628264
Ni 0.17117721407545974 3.365880720938166 7.2962048926950995 0.4916643442232177 -0.704084259422968 -0.9662326521960972
Ni 2.550555091671562 8.882741313547859 4.433205813129605 -0.5829876145192476 -1.168168122924756 0.49195436465981074
Ni 1.3264503053557668 -0.03036733989555843 6.412447944364952 0.6476788840500458 1.2165969078501047 0.14889361251133068
Ni 8.368093328905589 9.416522559343496 3.6422974657849183 -1.88214213065761 0.5827315326443835 -0.7082900699741995
Ni 1.1842838631768082 1.3255553473008332 2.7517981860872345 -0.24927359369299001 0.4090499145550956 0.27057672604614047
Ni 0.24847521231061906 4.7490336845322965 11.29661841106998 0.7905910821669611 0.026890910853573046 0.42264513674102694
Ni 8.454075246456934 7.979003249064933 12.612629737260782 1.1180611789660357 -0.8470509649269026 -0.9943700338622617
Ni 8.296214066177775 3.5320603008226548 12.956612989071681 0.06992860667033764 -1.5542745413098005 0.43580044317606237
Ni 0.8261452011201937 6.881991927160795 13.61103363861124 0.4754165149057876 -1.5499671721836983 0.35162483966840735
Ni 6.879919392717792 2.7856558623970336 9.118015423517654 -0.2833625649568991 0.48510546005877747 -1.193231493651287
Ni 3.231354394365008 4.237861905387611 3.899361449239567 -0.3333160140568905 0.5147399950957586 0.1681087519872008
P 5.241006258245883 7.718777708523593 8.314118879643107 0.9699964901139037 -0.4163824436607667 1.381781287101659
P 0.49880157470328473 0.3569705062796488 12.710606918931568 -0.2988262078101369 -0.95203013544347 2.3056771262027578
P 8.942712923839506 2.859155470234833 3.4662526219517305 -0.39498649448349393 -0.7729725977542494 -0.1502161879774961
P 0.6042163288411224 8.292106679736186 3.5187160051930415 1.7857471022656275 -1.3646646820260304 0.6834431861338488
P 3.756233162666833 7.0192125485098575 0.8207688583628198 0.5145134809072494 -2.050301019156456 -2.0536568230025662
P 0.17082770940348047 6.961200425327959 10.228846781912186 0.6772871938347819 -0.956041056375076 -0.9819390071877604
P 2.8447513558559563 1.6537505969615949 6.902363998674413 -0.29153944434073664 0.29171145114222663 -0.812429518198291
P 2.731336618768124 0.6560965762550607 1.1046514375099383 -0.3758425745651914 -0.5635122794034553 0.6255712535177291
Ni 6.175436673707475 7.748810616724939 13.394175881289755 -0.5340561789258672 -0.8532825476589111 0.4514687458409386
Ni 7.1126367488338085 4.2428736704952374 2.5128104712200208 0.20003311149962325 0.17984943746289672 -1.2064839877858191
Ni 7.726361300462766 6.158479573719262 11.08701264017679 4.021255223652467 0.5633053055989717 -2.337476530101542
Ni 9.222052884312005 1.4305480580611865 5.276797986015449 0.10614053781452043 0.1679881672489365 -0.8362459038915985
Ni 1.4833317420800525 1.2395451679161742 8.643859109525017 -1.0039214249961226 -0.46975751684779743 0.6189768881296631
Ni 5.83589900827682 1.939967603540424 1.4239847183046375 -0.14348966788693998 0.4109813272498535 -0.02862640548744102
Ni 4.063128410620178 8.206369698073559 6.7288278635783705 -0.7367899771861053 0.9979415532636039 -1.3740481801234592
Ni 2.498261279430134 4.929739846740022 10.139596854368667 0.6800040785453128 -0.7818621869343954 0.025709488950962173
Ni 6.114626629027522 8.928968252237949 11.351770436720534 -0.7200932332567147 -0.9340378126311075 -1.653092834431295
Ni 2.583706222148519 3.274821094001461 8.471481709594835 0.49652501474962873 0.25870799963301255 -0.25487448481953523
Ni 1.3397522082354096 4.206463008576102 1.3330023403789901 -0.17185227819003304 0.3377974468670118 -2.302627026522525
Ni 8.088621479877627 2.162228081330376 1.4885403979597651 1.7434632538957524 -0.14644540808115425 0.31556948870674684
Ni 8.564221031491483 4.498153390206682 8.974606402734004 -1.1032889057528676 2.1934824117743577 0.6650176324388095
Ni 8.57057052337596 7.498570923954436 5.573915581703368 1.681005244570847 -0.3366479066436009 0.8545650139157606
Ni 4.3895337441710724 3.531796523711727 12.136984024652513 -0.2831116252883576 0.751353476822577 -0.15674473312463327
Ni 6.254890107763359 6.463924047562504 6.678322083324588 -0.35536965142282023 -0.3798627514681781 -0.48166506691866073
Ni 3.5063514531183024 5.890208831294625 8.15907257796199 0.24686704113402647 0.21438809466971465 -1.4438795990943005
Ni 0.977934797542463 4.473085144057441 3.4041783312615452 -1.0684064920533858 0.27700448394935523 2.6304308525119344
Ni 8.291202301070147 7.348698421891945 1.1614153297204821 -0.29025106454661626 -0.6790180604829595 0.1160742519884646
Ni 3.5756871508478856 8.293585715679601 2.342390674277368 0.47977582031574784 2.436327476233185 1.3026830981169113
Ni 1.0213261322900797 2.184733921259177 0.11378402504313134 -1.5605544607812414 -2.05763534803434 1.1205106689477928
Ni 0.8219869433786398 8.72409822254702 1.404654566379185 0.60835771785292 0.38658798600715355 -0.5473832350520766
Ni 3.8943016390153065 0.7768763471044403 8.609499314643344 0.8506294263067801 -0.18784042608817328 -0.5701696368189728
Ni 3.0483213412144554 1.0250943767319047 12.698115188606916 -3.538980548174267 2.776691398275792 -1.1609155551274009
P 5.851320548654989 2.1692652778254846 13.004953912893633 0.5509622106525865 0.2813146812889349 -0.3043175699420114
P 6.468888709614609 6.500476018648207 3.9965256321720286 -0.5981771777754924 -0.8546043517941283 1.650297273964029
P 3.034341154335284 0.2622519139899318 10.53084613827449 -0.26470946863208605 0.16902586448483145 0.6678142213473401
P 0.4884389024882656 3.2011707563859884 9.752209078954607 1.7954681862081334 -0.7017723234603398 -1.3157157629311533
P 0.3042621871496195 5.465782039200754 5.48450079346552 0.5993161764759422 0.1802690414988186 0.5636740017923002
P 2.2268534735076773 3.3213306510246876 12.804889336927143 1.7044783879921228 2.7661863849794104 0.18187135298893192
P 7.239268603301342 4.275327675750456 7.1373112134388785 0.42471898855092016 0.4814838041457901 0.17921463209237523
P 6.021786506592054 6.011452096210349 11.826574888757166 -5.638500452257535 0.06419350395877331 1.9562986593663663
Ni 2.411685863379201 8.077316746552151 9.357734177806583 2.483232882535472 -1.9382106915164041 -0.9049308679628222
Ni 6.962010597882952 8.905002217587942 5.946633581505404 -1.9831350628329198 1.782522167570427 0.1005159925388914
Ni 7.922781041992902 8.53035393457058 9.866856031974915 0.35290473482209544 -0.43719938040611805 0.14873163301216968
Ni 6.304941814561901 5.3518209066688565 8.984216368121768 0.8214736306784304 1.4639925677940915 0.7150674979073491
Ni 4.712359245502234 1.4194788400133251 11.10041534359525 1.4959241263953655 0.5414905237167255 -1.2574391386774473
Ni 7.442179145882523 0.47469799913115013 12.764366578260866 0.014881802207838888 3.420220778933839 1.3253604851097691
Ni 8.302940382506433 6.854031553402453 8.015911319250389 -1.7022471846687586 -0.5578311698582781 -0.08460240663242849
Ni 1.8903492448526915 2.485496351383451 4.935131262475163 -0.33471032330125583 -0.031559262863519844 1.2285651359555745
Ni 7.420426954842087 2.223951925287472 6.424443208484391 -0.07767611182624042 0.3247025613562666 0.8354018107237484
Ni 5.089466308017885 3.8370149028884595 7.935320817434186 -1.058955888163447 -0.9593912037942317 -3.654141287209526
Ni 6.331545620321187 0.644074934424528 8.402982562131339 0.04033109551887892 -1.6952635542620738 -0.46150350436912135
Ni 2.8095842146026233 8.261838256257224 12.796864860388277 0.4820923842640664 -1.0770274009531775 1.2369307343114504
Ni 2.1233115368574267 4.592227612696847 6.463008364163141 -0.6251357086422072 0.06870630422746232 -0.8460394929432528
Ni 3.4908639684624014 2.747003095035012 0.9503955251004944 -0.6382994997176749 -0.25038533869993007 -0.8105330725065266
Ni 4.389948251059673 6.68350907179876 4.874049904195399 0.10385405577318889 0.06719038180356815 -0.6124380585698807
Ni 9.278030155495317 1.8957001519600831 11.417373688330489 -1.6559411025133672 -0.035010968857546156 -0.3263663222119347
Ni 7.939436682425769 4.504295628646857 4.69007667405661 -0.2524188241901911 -2.0971678589113236 2.3579142291306034
Ni 1.6698033182837697 7.1166876116087705 6.051988043732173 0.690293890507095 -0.3496692586039333 -0.21103640458866238
Ni 5.136663569651745 1.9083143502290927 6.419314627799067 -1.667166538915542 -0.7273290888835215 0.14525858686190468
Ni 5.5832570596746525 3.955262413472933 4.311223030242172 0.33493092395249413 1.1526312036314212 2.171814954103253
Ni 1.0150802671277546 6.048098273407098 8.11299260080513 0.4810937677962231 -0.5434592174073221 1.0003900148040965
Ni 2.34284945803816 6.261380908814402 2.3658442276832874 -0.2192683055801514 -0.11776012433131977 0.05767909987902324
Ni 0.9604313021101852 8.851163425125364 10.908333793478766 -0.5228438551498157 0.93992512464982 0.3242896421885641
Ni 2.092977169100734 6.586203579699731 11.549973499932763 -2.322836411590864 0.7228443136392906 -1.5586094212397288
P 4.859886015399687 9.384002609810546 4.546474530745317 0.09232240098450552 -1.115154289731886 1.1406244089785325
P 8.793810744720785 5.062447995369999 0.42644562905357913 0.7465200599896756 1.6140514042581169 0.9722174090246223
P 7.576404012900334 1.1781227835144243 10.197465784261775 -0.7488361097173619 -0.7201582821666952 1.2406799169412375
P 4.632387677835599 3.1810483310666418 2.6823899496521464 0.24591084786834425 -0.4221517420443762 0.23831452357832503
P 8.613048058846433 0.36730962696690656 7.223404294201258 -0.5744991174322621 -0.2511715820466513 -0.4653835561498178
P 4.152567692446898 4.773206972626605 5.94918468299252 0.7195044506327801 0.0705587840551688 0.16691421745846738
P 7.611260273987217 0.04678369680636971 1.140265115729628 -0.14861824736275697 -0.7449773980929041 0.44224491324982546
P 4.458379570123218 3.7985882301929474 9.84678070971109 -0.6689683895564414 0.1585930991872817 1.974757380292186
