# total energy = -381169.3367540363 ev
CRYSTAL
PRIMVEC
9.18970354309362 0.00000000000000 0.00000000000000

0.00000000000000 9.18970354309362 0.00000000000000

0.00000000000000 0.00000000000000 13.45006004478524

PRIMCOORD
 96 1
Ni 0.8107744631667705 0.1264466452602565 6.516782714701023 0.7566985431845742 0.07220711829186918 0.3536603820411974
Ni 5.012257311585683 8.122273553013999 1.3593299246288286 -0.04856968137858732 2.0229969320248644 -0.31870983410794146
Ni 4.300147181842283 2.0669573169701265 4.170930759925624 1.5826847170213776 1.5069251054915596 0.14302815486948917
Ni 5.308009541622227 6.554712297221386 2.8535509131296215 -2.782555313255737 -1.1037740729194023 3.71248244615258
Ni 5.371574721225209 7.142265184758797 10.757869509630996 0.8330286825058814 -0.21560679756816417 -0.6665039871763488
Ni 1.1410671130465662 6.464625633111506 4.665812838708894 -1.5934730658861331 -0.13552079074885048 0.6683451541501457
Ni 3.0728806492965166 0.22087084945580984 1.6827771643183305 0.9274529603247382 1.6202475057664998 0.15325960278951026
Ni 1.8231269121116727 5.051699519313889 2.3656364675941437 0.9110881458134696 0.19261470754836504 0.603348951784419
Ni 9.16563573769004 5.476465997788523 0.49349351457363994 1.5931257098490434 -0.04475107896344551 0.10170718463351515
Ni 1.241501383377778 7.077339929027255 9.618944516486913 -0.18240665666711164 0.42637786431058183 0.1437408646657976
Ni 4.722156749245515 9.107740605190578 3.511541959571022 -0.44151009196632995 -0.4112991156005884 0.2947967749357697
Ni 8.338746210340563 4.201734646296767 11.968158983799064 2.765654166625024 0.8820897016985905 -0.08385961492913298
Ni 6.630968457456393 2.835271673755862 11.85722363919688 -0.7281302446285782 -3.0394419434092947 0.7611524651908698
Ni 5.383153747725102 4.431422097358924 5.527019476104841 -1.0698475953752866 -0.6556004528899677 -1.0314317146012495
Ni 5.726563780482634 0.7232214003315105 5.700337285460376 0.25512028228175415 -0.032891351411382067 -0.6362007082071173
Ni 3.2951887683908847 6.249209791695646 4.9698109897600045 1.2061302039908262 -0.3044651512634692 -0.19338835248959596
Ni 1.1922905207532342 8.472851554557177 13.215195325637861 0.7970188400701758 -0.397963831944263 0.05707411930517267
Ni 6.250036865017067 1.798443368319044 8.78348099570537 -0.2531035089620415 0.0037008458903549173 0.4143944666964605
Ni 6.217027449788802 8.195056005299039 7.25501641478668 0.24743191249856095 -0.6287455374806526 -0.24136925124424882
Ni 7.98998777010451 1.4049586408012629 10.707108344013967 0.12075006019757913 0.1540273341934702 -1.7149800588543946
Ni 7.694244729771538 6.354385949069671 4.133217135439188 -0.27666484122174934 -1.3372742058282197 -0.03778724605110267
Ni 7.799834423806273 4.043782021312517 5.6454343204437425 -0.8094349543463415 -0.03808600823844408 -1.3248629766480602
Ni 2.7509837125995005 0.9958697966193406 5.38738101136792 -0.757088065313509 -1.9210560341139884 -0.1969706705242156
Ni 0.431058668509933 2.403879419006289 5.35614980378071 -0.031238903409623618 -2.594645467382209 0.9727619686741827
P 7.799007350484852 1.0749012473328936 4.685933694678351 -0.4300699684501883 -0.6376934907025599 -0.2240428441506593
Ni 0.6633918352302794 4.73347846404541 8.864665593965688 1.2966443481219991 0.14003770478259753 1.084798560258164
P 0.4903000925825982 4.236995538900012 4.558575430823817 0.9039229955235981 2.1679099626218923 -3.5196463666220286
Ni 1.0123101763084739 6.1110242190933555 11.644348750818494 -0.2997348356673354 -0.19279777009344862 1.5602963220238484
P 2.1002148541948182 1.5950936076923576 0.5783696167585676 -0.6500952068010224 1.017662428731299 -0.9524816211585918
P 7.187974770322659 8.502938644049756 0.9092917613330002 0.6880570307567763 1.532653363495599 -0.5176186021951343
P 6.932317216967887 4.7222394565776575 0.27761910694956954 -0.3385754626836169 -0.012053331620108274 -0.49242256254548095
Ni 4.788166389998475 3.312355134662154 10.598123054509621 -1.605389357707745 1.0400577657073637 -1.0126508344493206
Ni 2.3013315168536685 0.3567295891138363 10.961664051910537 0.26950380469693586 -1.377656466300008 0.56041050054968
Ni 2.563807830258378 4.227254453114388 0.09050755253344678 0.27016277843717346 -0.6851334293520781 -0.4601097093453882
Ni 3.1353614438780806 7.22834513811157 11.013205423360773 -1.8193259666623376 0.8434755888708183 -0.23063515265619636
Ni 8.307142819758713 0.8533466839313758 12.936617732605802 -1.8234183915641562 -2.058692842764577 1.6645393857053397
Ni 0.27923557580776887 7.254204963961331 2.7286270017511365 -1.6181664548677552 -0.2575407187977887 -1.3613988667905652
Ni 0.794052878548354 3.2315041226414754 1.1376071896519553 0.2492057165695321 -0.5022385201946382 -0.09092526352666276
Ni 8.115013687192638 0.6650772268652639 7.866738222716725 -0.4930589105778992 -0.5678147634335512 -0.662723179977678
Ni 6.842009999972294 6.455242945765165 1.4756329750870365 3.045655271308858 -0.21779146392430876 -0.16489075927053537
Ni -0.015413889800214268 8.584543211763284 11.146266817251682 -0.44127149359296264 -1.1392969484163604 0.6187105218421538
Ni 8.330273303647786 8.099740399857064 5.702919592163924 -1.6441759915576393 -0.5943171805994538 -0.07756066929429868
Ni 7.870172414941335 2.8510963433057155 0.6239441136799307 -1.2837003863668215 -0.40102884402283195 0.7680005984609547
Ni 5.045919195767514 3.4168512539719 13.48610594898035 0.07706136106037696 2.0371135739319044 -0.8196082953349175
Ni 5.6269382040656994 7.102758649105592 12.938069705770074 -1.2663343842845483 -0.532581908373186 -0.05607498861669697
Ni 5.145599910405875 1.1098680694218552 10.677868545190668 -0.9027114917140001 -2.149250438539176 0.32648047919229584
Ni 5.60723547960874 5.2979284368044635 9.511842197244334 -1.4734223457484237 0.03400798151432853 -1.846869937718877
Ni 3.819534874764596 8.744554330347516 12.612807499625232 0.27089400017624315 0.14500944696557608 0.8989733648278067
Ni 8.652684863744797 4.701875073463561 2.566016116026572 -0.6864781163054307 -0.7527588418105359 1.5924163424868445
Ni 0.14364517549402564 0.30056947264864253 1.733564980075717 0.3542476220032351 -1.787339129343096 -2.624006179932513
Ni 7.78209829591358 6.763392085919452 12.727791827620951 1.3804931644178549 0.9698483945718137 -0.6796878328564746
Ni 3.257170964716237 6.636022794420632 8.42496952306905 -0.11157456434589817 -0.6002062923903793 0.45233289361344675
Ni 3.9377879803206426 8.266542709380518 6.5171052732963775 -0.7855789736643504 -0.34392412859003996 -0.18203564648093812
Ni 2.4533659727379735 7.408720639809898 2.113071249491128 0.3743469638562714 -2.168551967081265 0.16558649978597934
Ni 4.163229788332838 5.939709765116373 0.7980421288686742 -0.3004236342042439 -0.9193437009540426 0.9043433708904683
Ni 6.956743449060516 8.357787276140387 3.31214469045037 1.1718553419683562 0.6492081762103786 -0.18219325510472495
P 3.8217587830288613 4.147579723150841 3.0434928962457177 -0.035097615034081486 0.6081420022976882 0.9766044823487247
Ni 0.6003532256419352 4.775034303595025 6.522633798964898 0.8748427903281901 -0.010008019055305345 0.9466673284696598
P 2.1403095308765896 6.3581721069410655 0.15817685375139096 -0.7766163651544238 0.47373038545261636 -0.5789967481922996
Ni 2.6169059374936006 2.20919554884738 9.612569619119471 0.29022946728006144 0.5959734852559543 -1.1981279025116396
P 6.227035036977995 2.4669207855057054 6.8003641013276805 0.6073752993349928 0.6473068454226079 -1.230955233454306
P 6.968910616588975 5.904237509330987 6.088707942940705 -0.18796332481928274 2.048309442647724 0.5372050089674942
P 1.6190603546064213 1.8830713485075454 7.527957962618436 0.28052201018431044 -0.23975511267959354 -0.2028394706001668
Ni 6.671155031173877 2.937635781837056 4.002576309468971 -0.030760935331940572 -1.6071981287817096 0.7721632144790765
Ni 3.0057774338185674 4.856436697829984 7.011731878320364 -0.6712240183598376 0.6234629489254746 -0.20740832091777184
Ni 6.694662292909374 8.629085704973587 9.473993484115397 -0.6325844516107686 0.5402157707693599 0.030475542881037838
Ni 4.356902791098901 2.441823705052366 1.8904460856235483 0.01741459593202162 -1.2128934908565885 -0.6125794692437515
Ni 6.073741591704415 4.315153967774288 2.386753487430734 -0.787517842558276 0.2751080382575907 -1.0813900487972474
Ni 6.524854950318091 1.2967406915451232 2.32029630811385 -0.2848036682787998 -0.07255370299801053 -1.018884474063858
Ni 2.18963066994399 2.50704303129819 2.9086964863205385 -0.5480956877380689 -0.32175736268501365 0.5012437603815367
Ni 0.7603211526193809 2.0857686401806665 12.330235142450707 1.2829964183212612 0.6785444632806508 -0.8324841228563212
Ni 6.19930051159968 4.990854491968024 11.587078518161883 -0.21397620394327663 1.0517675979451242 2.3708023979471817
Ni 5.470400793431437 1.1598049186285353 13.387208197086268 0.7072857970794012 -0.9204755005656405 0.11529186529648532
Ni 0.7393787371506465 6.8961005951932215 7.365091603134589 0.06019029633665118 1.0651545607749913 -0.5125671558141559
Ni 5.246309871844228 5.882531429495473 7.352031196418995 -0.15766878760079944 1.1855413240958808 -0.5127376199537492
Ni 7.768975399213702 5.662879134733224 8.193709713725836 -0.46076019844519356 0.7238776399998114 -1.982872553200153
Ni 2.0066636718385427 3.8543454718928447 11.207773503254685 0.16100042307719367 1.040864320769059 -0.81213538399664
Ni 8.150210251870883 3.2577407263376603 7.675425135827783 0.9466310759150858 -1.5744247910054303 0.6055048217851572
Ni 2.7463521019995434 3.2256594711701005 5.437644095051383 -0.3404109732304589 1.5608421672249893 -0.1973725339483246
Ni 6.657324527299006 8.766627998325882 11.735729325191219 0.7651289333401146 0.8635553903398289 1.4064682483253776
Ni 7.826585650902453 6.209813532485297 10.43424766557364 0.7016800208568496 0.985113034040368 -0.27439121469622424
Ni 7.27820846968968 3.7456956065688516 9.671844126124991 0.2919323089037811 0.16303750811188053 1.4324194209735006
Ni 0.43660465461523873 0.0890601742209602 3.978258515878482 1.1372300385850027 -0.5781066322778625 1.1652908013769607
Ni 5.372070965218062 7.312908790375072 5.069395212510868 1.9021782233728788 -0.4219830776769959 0.23919564063169774
Ni 3.9397637665884817 5.41453658542124 11.91921462257809 -0.20490303799741483 -1.212428121184396 0.029627335948129625
Ni 0.7578748535286894 0.5545756362716452 9.348423536575849 -1.1788032340410988 1.3377398326107284 -0.8961762616986437
Ni 3.788813695725595 1.4110606039726348 7.39569055911609 0.8972041887425258 0.3998276246258791 0.38993504810251556
Ni 8.816463760793278 1.9832207380280458 2.856430047258523 -1.1015264145358061 3.141105676399384 1.5987032039368207
P 8.549429354417182 7.83668513512736 8.958170827804109 0.48250041833576257 -0.14020354093650048 -0.912346443700603
Ni 3.3981226380935023 1.9278803431214158 12.192157089380203 -0.025397099916865933 0.9722099528254545 1.0069224166059754
P 2.619387157457863 8.722701215254862 3.8511152910875177 -0.4887343150606164 -0.6494241488759267 0.2492471113304288
Ni 2.4617194132843245 8.81524153021829 8.234826285444742 0.33592028444895694 0.22736059566998265 -0.02068478204286115
P 0.12161745603351556 3.1098508267640312 10.18095554191813 0.49520603882788905 -0.750881679392481 0.5696762421223222
P 3.1528310703672044 4.54973953083997 9.213600476510312 0.22915856811066987 -0.49879761283388935 0.8221012369601003
P 4.21460942100022 8.247455695062838 9.403139031639626 0.6048743872900099 2.0729326405130424 -0.3321752155842279
Ni 4.739084183223929 3.559925748874145 7.7550897571174024 -0.3453629179190955 0.23013018799531978 1.2785864621790237
