# total energy = -340897.12893767963 ev
CRYSTAL
PRIMVEC
9.02426633969515 0.00000000000000 0.00000000000000

0.00000000000000 9.02426633969515 0.00000000000000

0.00000000000000 0.00000000000000 13.20792597496886

PRIMCOORD
 96 1
Ni 6.253446600541167 2.006933671161139 11.516518771153564 0.22608815671546223 0.5521302628187588 -0.03735838604380017
Ni 4.75437156796998 0.34691896969365293 5.990560696872458 -1.353682986203546 -0.5393979028537549 -0.04284537730030041
Ni 2.714824198142174 1.5992895106269003 4.555585028338169 0.8944255975561242 -1.042664092981959 0.949898690922764
Ni 3.4392742539149452 4.239176200819983 4.649163963330906 -0.17454885118558972 0.6570184162834168 0.3903860195970051
Ni 5.223489031027005 4.4425199949694125 2.6727160688260305 -0.9265227352009849 0.3001140733836251 -0.06753902339223852
Ni 7.336954166703921 6.078059983610703 2.5625487273891685 -0.45394009019956666 0.06302365202038823 -0.3907169205738626
Ni 4.940731692808212 4.399871312097615 11.469234322646718 0.37511623792212817 0.1949536400941868 -0.27383071420706384
Ni 5.590054731038091 7.901196421583123 12.459604240442303 -0.4467597704010435 -0.49454963619081277 0.14120549983845357
Ni 1.9502251812825162 6.415251696582496 0.4817974597356445 0.6492380010070496 0.448508377661034 -1.3618472671818935
Ni 2.6592888628918483 1.608160364470103 0.3160099549445645 -0.17388910611440375 -0.39523074928381613 0.7388538016936695
Ni 0.48105386018663127 0.04335347807541258 4.79042260969756 0.42911557495671904 0.3987770718741777 0.38911435197343314
Ni 8.519638420289665 2.2772104489881215 1.472749442712192 0.33263107217472393 1.0868765258331152 -0.5640470688610028
Ni 6.830395022471467 0.7497531962518723 4.897684137362794 -0.3437891456740724 -0.44145172792456877 -0.6954715780532925
Ni 0.7313536195469831 7.347990844476288 2.390053485404139 -0.13534415596167015 0.556489568228719 0.09609652331495709
Ni 7.532320509380928 3.9459055922783715 3.8637937925639236 1.0679758322738704 -0.280253329903956 0.2704700252649471
Ni 7.505888433178749 3.9375310730856024 12.546287733500561 1.2311403528819183 -0.4431774523664238 0.140438539765442
Ni 7.850949306426507 8.769339870789585 7.040458285361129 0.15412349345170231 0.7409091415608015 0.010001077076769872
Ni 6.841919010627896 0.6586613490711264 0.38587131305967587 0.33822065044735944 1.1509147351609468 -0.21679336167709762
Ni 2.0589134454610862 6.526150906022088 9.33503232527469 -1.0697858888994158 -1.095445755559365 -0.6818827836252643
Ni 0.1505509334494079 4.987702999271967 1.3305396386699786 -0.7001946945605748 -0.6846528901712339 -0.2104630485836956
Ni 6.241985782249339 2.064003131694623 6.961052863131498 0.5320476331362708 0.1407396159456286 0.8283492747523412
Ni 3.3921585591892462 4.167902545017729 0.4881487384079192 -0.6064913540681426 0.6353648425693832 -0.47081526868835044
Ni 5.930973466021321 5.604619896961721 4.772155689708334 0.34281521179657737 0.8956062481277868 0.4033420655370409
Ni 5.358248400752892 2.838330307702778 9.268622749046683 -0.1045366836625103 0.20212418970069704 -0.026798865360399007
P 0.32627505794216694 5.5986097355582904 12.360096362443478 -0.2983721509918539 0.13557915479061167 -0.4192348255078973
P 3.9853326120555366 6.142475196970603 12.526291764074552 -0.26674449678424383 -0.21884690177201666 1.0193842965184121
P 2.2987062514850787 8.551033842996178 1.2299894579052442 -0.29298517564832766 0.06655917597747246 1.3783666049931553
P 6.277333833626576 7.721469132527957 5.809320940773428 0.012435140439559228 -0.16273488926979715 -0.2801520284394014
P 4.68631957526236 1.0277015029212828 12.64040812447559 -0.1363180898391652 0.4956492970128948 0.5117742275992154
P 4.026023029124714 6.1264300513620435 8.30787769289552 -0.4899476186424272 -0.4659353148882298 -0.9684250318617258
P 4.731846999106671 1.0441527405165612 3.715270611768196 -0.12143114542500377 0.0466953471740099 0.4189052100826205
P 0.29605639957049973 5.569587694907487 3.598234901195971 -0.3803142371832999 -0.7370049214103888 0.29890282668434326
Ni 1.2093238879144663 1.0101402805623074 2.6881168818156644 0.8796222139947043 0.45668962792024576 -0.922603859762553
Ni 1.9614784414477997 6.5847635161051015 4.5637871840432425 0.11225950622806473 -0.4799948783050895 0.7373908439948977
Ni 5.957965046738534 5.464094021024435 9.07344862324339 0.015145340281870692 0.7159154477299412 0.19218739020295933
Ni 8.387234384086744 2.4026026302203727 10.323842849841274 0.9994119671615432 0.5811251073892122 -0.40498885711184446
Ni 2.382352176482685 5.34962120210172 6.9991704618581565 -0.5755062185405379 -0.9308596720134421 0.3899185930422833
Ni 0.7204297451042597 8.888306774365315 8.894204132439102 -0.22455835033449714 0.33457714015750123 -0.41851980171874376
Ni 1.3576016086648888 0.945643848805064 11.310462282532857 -0.3823418091362899 1.4810418099668945 0.15225327301218294
Ni 4.140179998724424 6.913273884827493 1.6633798503974253 0.5340628637940866 -0.011167072360413028 -1.1170131973174957
Ni 5.604222829241375 7.770867966645651 7.975408378515944 -0.27670109377632346 0.44412541810198997 0.7806072314813717
Ni 5.307044713360896 2.9197833359721046 4.82663879549974 0.38794475714536414 -0.5698109679279735 -0.013781370054808523
Ni 0.7312561574701706 7.345103079237402 6.693816360645081 0.635232430756577 0.22620976989499106 0.304890668836662
Ni 4.996312149390395 4.53562335112437 6.915538073260108 -0.5922315017150188 0.26654575050987644 0.5673509364232552
Ni 8.238577644148718 7.180220708363385 9.319261517363824 -0.4663857721620871 -0.29403418573813234 0.04897283035427695
Ni 4.612275469684049 0.3145949499775104 10.571663643229371 -0.4938420686008269 -0.5279094425981812 -0.8199173419349041
Ni 8.16246698157133 7.161296821782312 4.673426605897371 -0.41995756260653483 -0.12058730936746975 0.06238807531891837
Ni 7.46524313744143 6.335901322377733 7.0771500500010855 -0.4383694894548192 -1.4214672928373713 -0.361945504868125
Ni 2.4435186539488383 5.18732879567633 2.513442279501913 -0.5897976954625456 -0.1794185205730652 0.538152460482428
Ni 2.4189997222174218 4.94749086832048 11.420206385876893 0.15462922944352725 1.3062882989696665 0.006973088883723473
Ni 1.211489711843631 3.2833710280805892 3.8801186904300007 -1.4809309954206429 0.8865701060674473 -0.12292907012676894
Ni 3.5219997037426563 2.6110631834024525 2.463845813950684 0.047478762307253716 0.22612440927003638 0.2142176305301214
Ni 1.1260660063708356 3.308873604846501 8.121183670201543 -0.5073354751015714 0.05855610316733787 0.005475164181958312
Ni 3.7590581570560784 2.513971101511284 7.136083923966925 -0.1300919064237953 0.5539886561837363 -0.42842291976506863
Ni 4.021140901017722 6.737445078844825 6.080335001162963 0.9497922472518868 1.090722896162399 -0.6741116243202777
Ni 0.734223336253126 7.6003364050230635 11.352370975562188 0.0684129413567596 -1.6606685898960236 0.44556215054851644
P 0.3061374075341231 5.6281551836586425 8.030722619240166 0.5426066395990398 -0.3460535162282169 0.27204431173060245
P 8.423430716502905 1.5032261951020847 8.226649368858844 0.5905708261831442 1.1588311617945461 -1.1036745712270606
P 1.7624121495584708 3.1267458609365124 10.321769975855737 -0.7901498808644843 -0.7245954920024424 -0.1798376103883548
P 4.112258918570946 6.125013241541714 3.7099607334351945 -1.0191986628701672 0.24588153729230555 0.006930151460930001
P 6.8461152944906525 4.039297724957217 10.407858769760114 0.3202450398055452 -0.01110253767106475 -0.09425072835546995
P 6.425701797040714 7.910545561544016 10.312154620036884 -1.2828064137976423 -1.3359264335510734 -0.3033438931748324
P 2.498810334007133 8.410977228910209 5.717605516786409 -0.31589139082253986 0.6473379557708593 -0.2422485685254086
P 6.993598879800381 3.9537386554888494 1.5534498471661344 0.3730899515207187 1.533023088130192 -0.1958920927480562
Ni 5.327782477482645 2.943472035197341 0.5690314330425663 -0.42902661478733856 -0.7453764333035356 -1.323090972349302
Ni 1.7100172590054337 1.1447823348253652 6.809227703270432 -0.7807535272512489 -0.08257457756912231 0.2763473099813305
Ni 6.688786234569596 0.8035107510270088 9.348160827991974 0.15107005133735918 -0.33114291766497167 -0.9131095471188726
Ni 2.7263662348313464 1.387814852476733 9.16043623407837 -0.18148157374968096 0.8225172414515962 0.5194320012547893
Ni 6.301437649104903 2.1433264331002713 2.526438125503537 0.4879892093644757 -1.2143353655094378 1.4433535513875015
Ni 4.212527542224889 6.757253343530309 10.409496674106546 0.838434426902485 0.8669461611889326 0.5679934551032604
Ni 8.033925331375418 7.119126425028205 0.24709794965173693 0.37875409178503155 -0.1503851094551926 -0.020188559132732972
Ni 7.618114209774955 3.8944402011616006 8.188781742310677 0.7063555719556481 -0.5499998467393172 -0.11380936721368787
Ni 3.055445132335144 8.43213913355142 12.42568653528495 0.5179304770085983 -0.7640835227947357 -0.4727929612400115
Ni 0.256956960662621 4.892506013318817 10.17953309901441 -0.62730854792381 -0.3500410401210552 0.07290748679300346
Ni 8.491248078284867 2.259423619969858 5.939709858295588 0.5924983822231602 0.5745510537161201 0.3607836233495399
Ni 3.553819266968631 2.4899485044303016 11.38042471243133 0.1653170481746766 0.09668324905636252 -0.012293986876004633
Ni 1.1605296796436653 3.326028735218758 12.571885065063375 -1.3349260173110171 -0.177452655095946 0.23516595064701434
Ni 3.050887877817527 8.364854203485377 7.961209597806995 0.7707424228721501 -0.6929986910327678 -0.6226666782764244
Ni 5.665443452305758 7.7867506754595235 3.5547018402197654 -0.033047674483588245 0.6648343127834099 0.2613531505653434
Ni 3.1001603722060187 8.365034688812807 3.3718115458013833 0.22784267751272375 0.4340464365994331 0.17222843058252918
Ni 3.394116824991866 4.06943877463809 9.229606333389423 -0.09279394130428535 0.9992841833344274 -0.6003358759897081
Ni 7.095663332462256 6.11517679119676 11.406219675427678 0.41953872990156127 -0.4288263258510744 -0.7744185861721565
Ni 0.3248438092956441 9.102416518295964 0.31985790212538007 0.8046701859678466 0.08729358031134643 0.2641767360570676
Ni 4.783935064603076 0.3844166013205871 1.5544010048416925 -1.452774330480769 -0.12013042433570922 0.2375488490568941
Ni 5.8942627504219836 5.513962116993445 0.2887792311685071 -0.26698669470203695 0.7249557035553384 0.9369519009541091
Ni 7.903984919891922 9.008816827490573 11.36576388928416 0.33767351969463777 -0.04461635315779413 0.2828614569507645
Ni 0.22069926323513353 4.781751192141169 5.8815421445446905 -0.4065148068380676 -0.3180588307875038 -0.3128549179890612
Ni 7.970502787316385 9.023562478741635 2.675450421536601 -0.561330184150472 -1.1557790052317836 -0.4532163246596646
P 8.299356078160896 1.8318538792873065 3.6868080756324266 0.7448719828632914 -0.015448987565218553 0.9482336445155153
P 1.484825715970558 3.261072065876567 1.6580438016919465 2.229090133675639 -0.7786025423465172 -0.7106835099070405
P 4.70355592403196 0.9455536061413489 8.282717135825088 0.44777998413544173 -0.5939957927042931 -0.48429196301854655
P 8.400797856443136 1.8045013279152335 12.486244777197664 0.34160499353856005 -0.1558708151601122 -0.36207354580555706
P 6.4036284414959805 7.904508327341469 1.4267338060571815 -0.033022734782923766 -1.8280486912473162 0.8439263032549917
P 2.0239714860705664 3.2339360968974105 5.980113303694152 -0.8284122667797927 0.0816536084167497 0.5026388409568504
P 6.877501692930794 4.1373734518828815 6.070217896133854 1.2452665078706555 -0.8271922783297625 -0.07246679971115907
P 2.407493782593736 8.417447627898587 10.189003164144681 0.8867649956870728 0.6055485305388991 0.7232898858171414
