# total energy = -340894.14250245027 ev
CRYSTAL
PRIMVEC
9.05455851672194 0.00000000000000 0.00000000000000

0.00000000000000 9.05455851672194 0.00000000000000

0.00000000000000 0.00000000000000 13.25226163802667

PRIMCOORD
 96 1
Ni 6.323776156865643 2.0763551579990516 11.370546264583677 -0.20981693035926446 -0.393437147718503 0.20593070793098084
Ni 4.7773662041177225 0.3877225370847651 6.148784135700295 -0.9518424449126962 -0.4371644134031245 -1.0769050164427003
Ni 2.794472199901513 1.5070860047844554 4.732475513532121 -0.039590617808428596 0.04422605969791093 1.074283519659453
Ni 3.2472906750691095 4.346785724851178 4.7562763262460885 0.4770679344662816 -0.7211718110328742 -0.03331301232983295
Ni 4.699279690823475 4.538769530669585 2.5767698258594294 1.15447956969407 0.9164964613132344 0.24602191952491176
Ni 7.0971984426458015 6.073997103556838 2.7523096478195708 0.4347367777982384 0.2879620114021234 -1.5872810781428084
Ni 5.249661034815923 4.459687015930258 11.35954678680656 -1.3564412656749736 -0.7980717068147224 0.17324298788997258
Ni 5.617312331870614 7.70106506423903 12.337312350882705 -0.011131076916155024 0.4727741921869342 0.22992758506621044
Ni 1.5759097046394623 6.660433699861172 0.2311538262858143 0.9600344938051854 -0.4881380762375142 0.9333824384352958
Ni 2.7274956299991993 1.376908615912539 0.23712168585356 -0.5114852356038868 1.2673970212211076 0.5854905834467594
Ni 0.7475959683092428 -0.09456128265172555 4.686436704917101 -0.054088811424603624 0.3207446051497831 0.10745180042677624
Ni 8.496924546209257 2.4338744039897047 1.5339490692141138 0.7799035205461278 0.19506522597138665 -0.08984437175765816
Ni 6.95939711543973 0.747116076703886 4.727718248448077 -0.4196528868819224 0.0033308641454458765 0.401524809822644
Ni 0.9754928698696463 7.247911570403543 2.4976673910911997 -0.6531293656416557 0.8795805621234917 0.3276369613942422
Ni 7.428015795349728 4.039247642286343 3.7943480906025693 1.0207233270448097 -1.5103446726960696 -0.7791355320318517
Ni 7.597598623212433 3.7432993947187985 12.633036950853036 -0.7475690700794803 -0.15442765495568242 0.6483124038689867
Ni 7.918890580277959 9.027503570561803 7.000082869015376 0.6642218760103915 0.23263598513630904 0.15127136871488786
Ni 6.763565122219878 0.5397512922058708 0.45251152563134023 -0.7707627345871242 0.3473976889609372 -0.7853090078324153
Ni 1.9064825842614135 6.426871360989983 9.05383965968143 1.6839702407364419 1.4979527267896202 1.3539485811601069
Ni 0.07304221870284912 4.9513676565731455 1.4507512575948887 -0.8166540978026 0.03203723094120289 0.1715763988208271
Ni 6.245753025481536 2.0882890662228246 6.954097482296047 1.3613402456384878 0.1835258578732194 0.1409548172802282
Ni 3.07497337051173 4.32999857322229 0.5061326216109944 1.527672108230924 0.5664443654485858 -0.9139189303940454
Ni 5.961285958208183 5.691813239962575 4.748325518346776 -0.3798267560239201 -0.08944765053987176 0.8103754638827398
Ni 5.395285500645166 3.1074430176213284 9.068390335338183 0.30557483938788016 -0.6834884375494874 0.3793215342527274
P 0.01049513886356251 5.585521776655389 12.421358574641967 0.6781706248809998 -0.25567229813048226 0.8506348256234189
P 4.136203855685555 5.949732341445258 12.49111851585535 -1.1382073148966074 0.9870850701650743 0.15119037896530738
P 2.3808327997599146 8.505825177304834 1.2249359990547015 0.9867336003629265 -0.34711152517908606 1.0897299361215103
P 6.374952522025556 7.956611871370705 5.87728500724188 -0.23674872175310196 -1.0494044970295862 0.058644292005769975
P 4.776841039719407 0.9041520027261652 12.396152494434578 -0.0545302698373964 -0.039308567791635524 1.2958642754228649
P 4.107817814500784 6.019497715393795 8.217912850487364 -0.010497042876581923 0.7949203056699342 -0.30931270916375764
P 4.855280680798729 1.0973310102786682 3.894335770218261 -0.6555464597235807 -1.0953084586505524 -0.4990626935698179
P 0.01664952233829587 5.669086297897574 3.6935771916687017 0.7155727196785419 -1.0696974429506676 -0.0158999590597081
Ni 1.6383318315701842 1.002738036671872 2.5882066388165215 -1.190330260844092 1.1310470497027425 -0.34045905285957495
Ni 1.8433451472019526 6.3662239275432215 4.83932835947199 0.09678789295502685 0.6440857673821487 -0.16394407908654993
Ni 6.132571043086116 5.687557597424507 9.03080667353603 0.4179690714215963 -0.04080546405213618 0.510571722650682
Ni 8.554683575465289 2.416516815169543 10.378548745313198 0.7858067734044403 0.4510663681961974 -0.023098790800992478
Ni 2.440629104699063 5.1458143023284775 7.05667023838965 0.13509450184470925 0.6993526582752536 -1.0040810905024384
Ni 0.852171592763315 8.951246078103065 8.884872541802954 -0.8652093810034841 0.6859338137661863 0.06030239643448324
Ni 1.2081588074402634 0.8702390589770608 11.373567770785703 0.8057569912741219 0.8324797519809469 -0.26516429678131753
Ni 3.9952153238552284 6.929390308267056 1.633168922261235 0.22353942215167955 -0.17217160920266478 -0.5686591137117174
Ni 5.710945522266697 7.908332964960115 8.09780775259278 0.10475908408596152 0.14186601624058792 0.1521051774700929
Ni 5.2985556512107435 2.9765412640620816 4.828911995268174 -0.44530632578396856 0.05624982363166441 -0.49437248718300025
Ni 0.7259039622912661 7.3794652521813875 6.779339974198222 0.17734055499811394 -0.009740110105899353 0.1714992657259885
Ni 5.164928475515415 4.571402159833833 6.8457470123651225 0.1616614536999603 0.22494298736742552 0.32992112944272856
Ni 8.312102896236832 7.30492812585506 8.924431002833943 -0.6389772425109899 0.047036018342880286 0.31612973208559103
Ni 4.678372715035392 0.1967084744915217 10.323564938265505 -0.18090667508281746 -0.6534546101915585 -0.04649197291395219
Ni 8.134959511950113 7.2966613138608984 4.712425098986808 -0.3149933044883027 0.2817998484554695 0.1735944576921204
Ni 7.308549949291713 6.194178259743591 6.848901620578448 0.19674055679128052 -0.30124458744364246 0.4855890845634153
Ni 2.2415827431791815 5.229786278707287 2.617295313748004 0.645593719386243 0.4347074672221998 0.5905464007031119
Ni 2.251633303215895 5.215751712890255 11.607562917557575 1.1548883750967143 0.33930617020205434 -0.765100136984708
Ni 0.8368893087723559 3.413215461260795 3.7290013412467498 0.1434870967837787 -0.300043882267322 0.6228327715406435
Ni 3.6113110941285553 2.564866703134868 2.7395608293225506 -0.5269650764070408 0.06789280718723145 -0.8026094467840758
Ni 1.2437251135882004 3.5278009002379185 8.219649514825239 -0.7598214050842721 -0.7572842404847152 0.9678840717565912
Ni 3.6886098608253315 2.7969440943970287 7.330210264354618 -0.13738818297489241 -0.2326655528226638 -0.9275830581446992
Ni 4.216807536268277 6.809290643107627 6.165892724159187 0.006165505380763576 0.9798864955341061 -0.2017907176206783
Ni 0.8490830828277087 7.342404943865832 11.291337891479923 -0.31285620354064186 0.2766913235843106 -0.9179555623572642
P 0.2770368964930584 5.599266596597489 8.158648953593403 -1.1676191923998214 -0.9125966120381961 -2.3022804418163836
P 8.718634467883998 1.757553204546224 8.204077484959347 0.008151168352224672 -1.1234478971992459 0.3817774519923877
P 1.8544641451524784 3.260021384448946 10.498746199705417 -0.8893170726849651 -0.16286524420007434 0.061557351887506884
P 3.9892121515089753 6.269910587804015 3.988374604839249 -0.5980144269453831 -0.3144099211810069 -1.596448346464373
P 6.995805495536688 4.012029639159892 10.236033614904324 0.354653342082086 -0.27246982930379526 1.3295760658530134
P 6.783901660816688 7.560483987545326 10.381676189850749 -1.6984326960186746 1.6160545507310748 -1.1151828289769763
P 2.5863803343485894 8.425031350991686 5.733922370148827 -0.5412670948520097 0.5332763633370494 1.0460021562162567
P 6.655073401174924 3.842401538504228 1.5911992322772948 0.19497369469884485 0.2765637968675108 -0.07002656570078264
Ni 5.014822003183314 2.842207832796605 0.3007707054734484 0.8897505606779579 -0.10021954434439515 0.9428726373139181
Ni 1.731928803731901 1.2763305790766728 7.172044329420104 -0.5294086528515269 0.05246027468224514 -1.29511479885135
Ni 6.990110178182551 0.6939250722573346 9.44030180221024 0.18205004465864133 -0.3983469263152946 -0.9466642431458664
Ni 2.9244413339258215 1.707680695823506 9.380295431511765 -0.2511121895636256 -0.5203270022652329 0.1824735053493051
Ni 6.313164214196248 1.8406378341830538 2.4676107838462724 0.461254878693425 0.6452363360468242 0.6884486097682402
Ni 4.205779083903668 6.684047988668151 10.308470989093253 -0.2635828112268106 0.6978735026265659 0.6264297448632824
Ni 8.201727827004818 7.306087109354788 0.26312728358459087 -1.0503249519613267 -1.306549523050853 0.058061937139738715
Ni 7.743087270662802 3.8235590020750383 8.276541117368192 0.6632949933207479 0.09832669819705647 -1.3067829792178978
Ni 3.0838468379315316 8.30073037064574 12.417740373028751 0.9779178018435093 -0.6094368098497117 -1.2756983419979513
Ni 0.3060440803972158 4.898316997784764 10.284589590807819 -1.1884230165190501 -0.43300616826037686 -0.17041194619908073
Ni 8.659960928210213 2.308731349694736 6.110657200382644 0.20619784554943846 -0.43970826287090087 -1.0471393551444934
Ni 3.5408666282856456 2.6767267199759095 11.703920624633879 0.03475360143110144 0.5479403931071273 -1.0821207563156847
Ni 0.889440155926479 3.5654859730962976 12.715041371649884 0.8509497857606765 -1.4034448881180217 -0.0768153064878419
Ni 3.273250094551323 8.63511521943477 7.987416385155301 -0.2355819551385104 -1.0735062751737963 0.2179562716369472
Ni 5.569775899264537 7.882210563423252 3.6260836064708055 0.28454578663172286 0.6946215713481715 0.009511024814228781
Ni 3.1672212134432938 8.394707634268306 3.441771728147089 -0.2707183938303273 -0.37424309128855543 1.02309491260078
Ni 3.4553553769462577 4.3319000305265325 9.359688161613064 -0.3874829870175972 -0.16315937840172545 0.6656778917306277
Ni 7.15388903398802 5.848556703742345 11.535523943946677 0.4021796697978235 0.28552511982585665 -0.21605056997380212
Ni 0.5154262205494471 0.06621689243647572 0.4090414952887664 0.23375415790115225 0.5757769557034212 -0.2298903040703718
Ni 4.480738864655805 0.49322987561791654 1.641716425571737 0.27724513920525157 -0.9235453977402158 -0.2566477746698741
Ni 5.838759671346197 5.589143600092042 0.4890466695485818 0.594523383072989 -0.4478146940281191 0.011599789022457441
Ni 8.016897122473802 8.896873453760305 11.66265266294079 -0.32911688837387837 -0.10312977601265465 -0.7412963496968912
Ni 0.00016569842222689498 4.66616717005387 5.994289824274688 0.7303686470407937 0.743809345926732 -0.25326034625488
Ni 8.157514417401872 8.806853032242284 2.264334132552379 -0.5153789142313382 0.1283741524017402 1.6005996496285853
P 8.602545972180664 1.510698773662517 3.6139849052806645 0.5594152265159462 0.21500438809747488 -0.2679403168645579
P 1.7082149147804124 3.3594313832264913 1.6827190886980907 -0.7334979366983948 -2.1063955481571788 0.11364173128757202
P 4.909734796168815 1.081150514075419 8.265223824584508 -0.08588795821307144 -0.08772012632580377 0.9318577742606532
P 8.5648427902051 1.6915183087374404 12.638509526065821 -0.7480892042490084 0.6219763370776191 -0.3783434866101742
P 6.327588126032721 7.576202701260403 1.4202183805680408 -0.6400362799031235 1.1074913738699894 -0.12195436491832545
P 1.8795633815684867 3.226465190308352 6.027168737432627 -0.4992488414386951 -0.6252303252385425 -0.47568750917898717
P 6.985945081230399 3.8607732378866526 5.870672463102409 0.03326750380387819 1.034585943959515 1.1383929485448523
P 2.4459350760337606 8.521091163090327 10.13399145594419 1.2677762589373973 -0.6976395322388887 1.039824309540319
