# total energy = -340862.1805814485 ev
CRYSTAL
PRIMVEC
9.31520887567652 0.00000000000000 0.00000000000000
0.00000000000000 9.31520887567652 0.00000000000000
0.00000000000000 0.00000000000000 13.63374978529541
PRIMCOORD
 96 1
Ni 6.890618499515393 5.628966584560938 0.6146994675542422 -1.045157034607142 -1.6655179475685253 0.1333950026550993
Ni 5.287005260004101 8.02316161691175 0.9544745125449263 -1.9233201475578168 1.65435036098748 -3.0363023693390483
Ni 3.372981309018891 0.9865924218595414 13.553051637920891 -0.6546691993249498 -0.941410708056411 -0.3276261627609648
Ni 3.65382554693946 7.763500164391407 12.716157420202611 1.0203744283458234 -0.24227170845386017 0.10376046761811808
Ni 2.750091909659953 2.2419938315353907 7.908747561644266 0.9439982662779292 1.7808535216187522 2.3165045558355652
Ni 6.196765837544797 7.331227888007314 10.088811088792536 0.01759842980805356 3.1444630229073907 0.4630448807143122
Ni 1.974712538004763 2.1603739697602062 5.89719709789468 0.9013112689323638 -0.9717106445915329 -2.1343472961750987
Ni 5.247480827966655 3.051364401046966 7.344051204797969 -0.351692202571233 0.8741969292140751 -1.6654883798821705
Ni 2.0002362108264937 6.215247212317904 13.065290524213992 0.7054981090513591 -0.8070862516085068 -0.32583024720280657
Ni 3.9637611827513664 0.045834554654030586 10.55736237837791 0.7661141800715193 -0.6917200814306603 0.008209532393985862
Ni 4.254926672309336 7.435157675478865 8.409078618455414 0.7982624826692898 1.3769419567314867 0.6792018943589916
Ni 7.848520077473135 2.0164260441710806 12.31244836935621 -1.3871088699621594 0.27195946532628 1.936758789561226
Ni 8.513970667022761 8.33403808883862 3.2318801113182034 0.11841884096124124 0.5015250390673814 1.5780916983340565
Ni 4.226962414714141 2.629897767171343 3.1455383700709993 0.8677144068135251 -0.8186988961467707 2.8458574157484926
Ni 5.323260053661829 1.609491136427538 8.988322537289193 -1.371921877809076 -0.33037878580543745 2.006247737590983
Ni 2.197327404097362 3.8029434135563447 4.246967757689305 1.2880170114643044 1.1029348648475585 -1.057275672247547
Ni 0.962270411006425 6.973561120976959 5.525076852488342 1.9833818887364039 -0.10968917439772723 0.06810286631550852
Ni 4.5850017901068565 3.570305382516234 1.206913883481808 2.363409962137852 -0.5792962817105894 -1.0187222374543812
Ni 2.5929070719979515 9.41749005449391 7.971708128153316 -0.20347633285321728 -2.0204399699309654 0.02257479997672241
Ni 9.126454977862767 3.745123910926972 4.133480565723193 -1.423367852294194 2.521071293539484 -0.5928007439549274
Ni 0.6845318637861352 0.2247881043660695 5.3988017415259995 -0.17145812807540792 0.2059613040586001 -0.7370815402845952
Ni 6.763037396242976 0.6341412403813349 10.771452896660593 -0.3879666115222351 -1.388527861796873 -0.10437804659745895
Ni 9.042143020669526 3.709455975439962 1.5693267495277363 0.24391052960886378 -0.8148772084078354 -0.6134793553502016
Ni 0.7977917646512063 4.166702327311302 6.245989265254501 -1.1462026743972582 1.043111464932023 0.7598268044009108
P 0.9726661843162977 2.071078375720385 3.751080987120219 1.3444200728443814 -1.7903815157138456 -0.5997805177068704
P 7.4116088269776474 4.429251494639946 5.4747141747107175 0.11733075010338503 1.5129990795997814 -0.5081831678138474
P 0.5061260483667669 5.597024732697539 11.239731250620538 -0.09273043505620158 0.8097424582844314 1.9556641111061608
P 4.6119320594965005 5.024567875184167 2.8568162598492117 0.6604055875880949 0.038307894441263056 1.7314891122530116
P 5.995324441643364 9.083698168281838 8.424021145306996 -0.4450294179734981 -2.182486060663854 0.6792587157388559
P 1.2321413326554616 5.79465620809383 3.718250464312588 -0.1753327805394658 -0.39243313193402085 -0.8867099740794213
P 4.257069170392913 2.273153205837832 5.447828618324557 -0.5904155315522025 -0.5410598639372101 -0.20153180753233677
P 2.6295903652723953 8.457054739672115 5.292826334145086 -0.10898906300690905 0.5855414912893528 0.2497680168309053
Ni 9.284468869131024 5.694210308810354 0.18998741484245496 -1.1814578980551267 -0.579069510411764 -0.5138712193375602
Ni 3.069855091029132 4.322853176767752 6.677646737840698 1.6114155092971667 0.37875691999850897 -0.5111443073247004
Ni 8.22119364629758 4.506446632112092 7.735694265350214 -2.651909076990368 -1.031118811346521 -1.26864940557097
Ni 8.100580319401315 5.805415274557005 10.144436859688508 -2.32975422175662 -0.388758254185595 -1.4593314148729963
Ni 4.573292572319661 0.42378612093132006 6.730477946018963 0.496225738341655 0.488131905589927 0.22505585879620596
Ni 5.2091021666434685 5.493719064232942 10.331928730024051 -0.9086150016826289 -2.6229389150102635 2.903880529230496
Ni 0.03773311733539584 3.4416437149929697 11.809554698532924 1.6128121325343772 2.9116164644221727 2.2902831602451914
Ni 6.555429331944468 7.504267211487777 2.481069603556193 1.1294732774577192 -0.275306527421642 1.0616218650313844
Ni 2.682454176682367 0.6373987689892764 3.202758904757877 0.39401153216473433 -0.5585487647505929 1.2802957315606467
Ni 7.797854655401094 7.240684055953583 11.954562694912967 -2.0405100012079633 -0.6148777783596249 0.5837314346638076
Ni 4.437299835266943 5.796985010358587 0.7719429910333155 0.0032632441323040577 2.870947525947901 1.3019747591959772
Ni 1.9262455052706515 9.090386488386219 11.926272405000706 0.9484784135364699 0.7760903174476247 -1.9430839604483054
Ni 5.291532451606788 4.132860172799862 5.259627860579624 -0.38273853035407635 1.0632038648065236 -1.438977790917309
Ni 6.860353385282618 0.5267666885997563 2.1069326153885752 -0.19180866670730193 0.7182721208875759 -0.8160038658131108
Ni 1.5754254168986808 2.0944968112947757 10.81056839102035 1.751723179911699 -0.4145127374418797 -0.04744508085584087
Ni 8.202879945287537 1.610925678622628 3.6598441035124964 1.4172673958234108 -0.7722043521296572 -1.2444445261899921
Ni 6.910711405455713 4.1584769977121825 2.6370127238506273 -1.2555257237048185 -1.0655235140786359 0.43045794791722647
Ni 0.6212890464425971 0.4487704431485332 2.073871075396281 -0.019215139475870134 0.5383280668283439 0.1950855376863608
Ni 3.503105464364422 6.370541062540924 4.725403415607211 -0.40693672486683463 -0.8857419537391972 0.49779488260098786
Ni 0.47240685461490534 8.470487271135228 7.61202275531987 0.7801696297233209 -0.6790705109874499 -0.3703000474804074
Ni 6.19721296757963 1.2154577932307464 4.455509205935527 -1.6969602252382066 -0.5569955613308601 0.8843129346021544
Ni 2.6079883954645147 4.960674856248309 1.8579389402826272 -1.975473175412288 0.39861174994090703 0.851538568384611
Ni 4.593133967615386 8.6535963356085 4.5821671719901955 0.029148339429182057 -0.4944899865974709 -1.3131927393989835
Ni 5.62302348118128 3.1396632677174714 11.280278492612668 -0.33974660017358266 -1.5625905173746637 -1.25002664826346
P 4.583213269967524 5.198231317671585 12.546376556850996 2.237929329233823 2.153886651759607 -3.976636299391512
P 4.7523960968975505 0.1397253413226694 2.5602134827634884 0.15121891821039762 0.49221636007194575 -0.08010837541681688
P 4.565188340438309 6.010992623280645 6.90531696788963 -1.8267009189701704 -1.2112528699293719 -2.417057058039347
P 2.449834776060374 7.969375599804937 9.572855631826684 -1.0818266221140336 1.1840634539987738 0.29376653389904245
P 2.6586258719093787 4.243236084940259 8.830429743738705 -0.2511278732929094 0.6091537313916542 0.9736266306673232
P 2.1215109175659506 8.48281129272032 0.6079832018226846 0.4974089600164788 0.7542858199780236 -0.6864552334872952
P 7.917964961008172 8.867734361457385 5.285532525451869 -1.280750302599562 0.4384815895526512 0.09430266463932792
P 9.31441726625579 0.6910580992528886 11.092118721787594 -1.5504834496984845 -1.204907901547951 3.2046381497353904
Ni 0.42781681189116055 4.413927975737848 9.285524282317411 2.638641927567817 -0.7051947188783275 0.46540412497510814
Ni 3.2866479514598392 7.517802210250542 2.514745015825478 0.331509556975771 0.31052832673841363 -0.59262590893996
Ni 2.6192504832168764 2.3992159300336278 1.558296610480944 -1.8378206830324153 0.2119496604315511 -0.13179963314352142
Ni 8.32484397749736 2.517509769874197 10.097482616905582 -2.2127443453277635 0.8689634487292777 -2.1392897277820384
Ni 0.2798335377376648 7.657670074271815 10.501259668778117 1.1733370687202052 1.3066572522733109 -0.9917827327510597
Ni 0.39892196491096843 0.9917251020510646 9.127577460554381 0.7307126606437738 -1.102069688633786 -3.1088995239804844
Ni 2.1164620742559586 4.314860727395108 11.075595403958694 0.9205310363939244 -1.800353282214577 0.3969551881740906
Ni 0.8356813774987938 7.344185343808419 1.8353616680862663 0.24537991506553872 -0.996960163186941 0.07706136106037696
Ni 5.975119753194337 5.601784804526701 8.325381465060067 2.0891231342299763 -0.3631402965071746 -1.1931949839863967
Ni 3.00676318007235 6.164851931308575 10.47175653864637 0.7453892888193421 1.7095128650922362 -0.33504122427811334
Ni 0.8775541737400206 1.2771058467833791 13.601424587043505 -0.15872653944135245 1.3849391160043503 -1.0403632127629243
Ni 2.036826352010347 6.2837326293198625 7.993576512940285 1.1780519576973711 -0.04643412309282326 0.10641667429404253
Ni 0.20132681883000705 8.312482695076033 12.99340039830096 -0.5282002343657226 -0.7795525649646122 1.7925654107390416
Ni 8.07539199410571 6.622834184695578 5.759495951500537 -0.21607730944667947 -0.8126588606002779 -0.08811633332295793
Ni 5.955231781853318 7.423467088109788 6.009034566336439 -0.7460379781469345 1.4158653732695616 1.9548133330700914
Ni 7.360244764226179 9.356754891429063 13.242298126753601 -0.5094214110963227 -1.3429874541629128 0.7461040554981795
Ni 7.027542757474014 4.53094563193733 11.993051275703051 1.673571671110937 1.6550515008195625 1.0402153743311504
Ni 7.829023344912594 2.4084566174201814 5.803396668753914 0.5437919181563926 0.037212090273923006 1.3133328645212736
Ni 3.679842925841319 3.4771253462987994 12.742103071994716 -1.8367169084452755 -3.3502232666987783 -0.06445755625343738
Ni 7.8192237449825 7.748661036360379 8.439632504169019 -0.6272923499738938 -1.1850803252990625 0.15139092501188764
Ni 7.6751547216756055 0.5907128042272508 7.415205429195338 0.7828677453807743 0.47969765877964476 -0.9645861177316098
Ni 5.549163188552264 1.5302187073352285 0.0006781472194970788 0.12332759111676825 -0.08898536619147254 -0.5575740595421494
Ni 8.419728696972598 5.970592561591651 2.8377014508600906 0.8270320986028145 -0.4463753904784313 0.36339457860982577
Ni 6.19997958467016 6.196905565680683 4.166719094687609 -0.5256579275598431 -2.3628090953290597 -0.021583125487414444
P 7.8122187077701115 7.413024738754619 0.6304160882786306 1.4954381878978826 1.2809572764040456 0.47850878067786623
P 9.340080667213407 6.272340128640674 7.5668132511937 -1.0714118545386129 0.333916880865683 0.026543554816483322
P 7.035078761602766 2.766020917150887 0.7970111501320599 0.6895858086964769 0.5828953119157575 0.4596281417232794
P 6.335618343778636 3.505983863963661 9.08622631602046 1.6526179516774056 1.188697096116043 1.6613262780846805
P 0.34369581648362796 2.080430845615647 7.251478520211182 -0.9427368830670022 0.25736331267966 0.11100275100282819
P 3.799012395333436 2.164332933610292 10.865280339907633 -0.8717363834887245 -0.7771478121778617 -0.09281888100494982
P 5.645957525884601 8.282357308979144 12.303327848166518 1.3912938545777846 0.919554531413268 -1.3149326049082257
P 1.681320713481686 3.731533020909853 0.0734140941150883 -1.497954526561833 0.2220985759400949 0.02854464440691213
