# total energy = -381168.25016551866 ev
CRYSTAL
PRIMVEC
9.27300682314594 0.00000000000000 0.00000000000000
0.00000000000000 9.27300682314594 0.00000000000000
0.00000000000000 0.00000000000000 13.57198281556277
PRIMCOORD
 96 1
Ni 4.190638618116954 2.719967582846187 5.605866346642423 0.06024403239272206 -0.9293836016885478 -0.24439286856192108
Ni 5.06127193924243 2.3095999466685004 3.4099061691381554 0.981844390591425 -0.28448922236217455 -0.04845680994980687
Ni 4.774355840562677 8.60392212583996 13.540971013431387 1.165728917355644 0.5488438787580031 -0.046044086743256184
Ni 0.6446186209037279 5.999542570854642 4.552803311139697 -0.33826975851774 0.07971808195693368 -1.7976443679238463
Ni 3.795469439834491 1.3270507083145595 11.0877396121987 -1.807646216331564 0.5705933546199528 0.7925921717573898
Ni 3.3998829762528917 3.2907953260519087 2.1882107258489674 -1.2221672028490307 0.3393295672408221 0.21562968038629962
Ni 2.0830789402838 3.0228888909994946 12.186378548073138 -0.2387976338623307 1.6163224596804806 -0.5410768332180745
Ni 2.15946996904576 5.682201737364498 8.574900396935336 -0.8607485170186531 -0.14401494426279068 0.2978008518694162
Ni 5.412700345168718 4.506505043550147 2.0161862522308565 0.5153930552987253 -0.12021321385750262 -0.7494290061063544
Ni 5.114842098644935 4.638228102977635 4.438323407573203 -0.5037665268033905 0.9828571481266558 -1.3558571110367295
Ni 4.559157175294552 0.45484746716366525 8.45278046319198 0.21024990413162498 -1.5184035384448042 0.5161235057068466
Ni 0.9049462276231548 6.849497087156232 6.542034787647651 1.0105435582983306 0.4420104286415162 1.6052196648991
Ni 3.1149234819757576 5.199040999004076 0.7538666941197124 0.37796836265894257 0.1078590631675239 0.04749187493337627
Ni 3.782756147720793 6.391021092491407 2.7940774519728664 -1.009328712054623 -0.8521278652291776 0.29020144225560346
Ni 6.886904395972175 1.0788123203614557 4.350594273583367 0.6214968263380394 -0.5521240921711718 0.6406692855014321
Ni 8.957640964408178 1.139290869716336 11.577117901516262 1.8868215384111504 0.4041483634884201 1.3877390473469908
Ni 5.279975801023302 2.359572179491783 9.475822139673483 2.1600259318881254 0.42990516073755 0.1870338710264779
Ni 6.012932792453606 7.028373385386168 3.9127479368071953 -1.3078466445957218 -0.08280520552268966 -0.13578227194035322
Ni 2.6015883799844266 4.067168534605726 4.380235439332044 -0.9213555891777486 -1.1955267174433668 -1.2111538824576624
Ni 1.3554539276757982 1.8401354391264086 1.9498323258641312 -0.02858603916780883 -1.4003333390722335 0.7163990722345792
Ni 3.206818977852308 7.880683245376218 12.1327277135128 -0.6255015766220582 -0.35027629606031285 1.0098976971842155
Ni 7.205237441173599 0.023283592391163573 12.476560599694135 -0.7072582862755755 -0.44089636964173096 0.6729242888803959
Ni 1.792082718679155 0.873357730478506 13.00402220001224 1.2927398708612705 -0.7194329739648965 -0.01955092554873407
Ni 6.616790985337661 6.087357943806301 7.6094301822247274 1.1912653710638517 -0.5576522210782525 2.8489188282826357
P 8.360144054084296 6.256098845770537 11.935744015202326 -0.5645070392165569 0.25045758669876217 0.9307174900086229
Ni 1.089448458986118 3.409035433813957 8.23942805354737 0.1814859446250552 -0.42061782189835306 -0.0629586031104077
P 3.438236131746879 5.950887104975301 4.799446741949435 -0.10875020752322562 0.46049974569495533 0.6272239586298036
Ni 7.938769359016048 2.9292778888931594 8.139877690683322 -0.8879042514978386 0.855903530221526 -2.8586622808226445
P 7.983817625309517 4.9879224566608436 4.944463583706752 0.384029481251358 -0.47731964546577144 -0.30121681952950063
P 5.114749368578461 4.707664376753983 13.323533844358561 -0.17132777314513073 -0.2989557914094658 0.1297538063580862
P 8.141625652436373 1.4808435235630553 2.1696712036586554 0.3905364291319403 -0.6326708406769879 0.11253127183221266
Ni 6.055254794792716 1.6996493884170503 6.945530198598889 -0.2252065254414573 -0.8371848707661002 0.4454960731972714
Ni 0.7762656416767062 8.054617031063044 12.775849671143625 -0.8392407248538644 -1.5744947250114172 0.3003012496937667
Ni 1.3968671753634547 8.8730247787499 2.654123671845073 0.1667005587857645 -0.9883652224290786 0.10796962060345922
Ni 3.296934056452542 7.100127910824387 10.078689975447585 0.17195743630932964 0.8162879727124329 -1.5650361507016788
Ni 6.569257553262665 9.166274340969883 1.9243575220021676 0.45057734437492075 0.19004180461486625 0.017995665246472236
Ni 7.130506280601539 0.3466036605676031 9.211481175677026 -2.5710239713085272 0.2879748669179299 -0.6045409152099911
Ni 1.685980976618661 1.9672498142500976 10.239680498455858 -1.3427905076607582 -0.8831633943787435 -1.089643032834659
Ni 8.030015744427274 5.267438696035906 2.3902704679982736 -0.4884710340969007 -0.40957364826904946 0.6318894824262731
Ni 5.7909184672995835 6.465084596584848 12.330146315835043 -1.175656460882001 0.6496470635200102 -1.0321472526110353
Ni 2.591953726077692 7.52251336361721 0.8741468633442068 0.4133454566066559 0.8993070940181415 -0.16174989964870853
Ni 7.202863551471844 3.1228240836394123 2.9797286088594523 -0.011887238355889205 0.7095388547796361 0.4553493118422674
Ni 5.271453907914266 1.558013484883404 0.8225119804290304 1.4836440234764319 -0.1716905558011882 0.8353539882049484
Ni 6.513832792530664 3.4626797772696425 5.5869744501995084 2.426112997594028 -0.14161944744742064 -0.7585749342716808
Ni 3.516463215825041 2.4251230634828365 7.840846408818633 -0.9657510845739885 1.0562814266550775 -0.030728796542424497
Ni 9.068852133131433 3.003601037172731 6.060880727925744 -0.8326378748253659 0.643152456934602 -0.1899631288581309
Ni 9.254284447061139 0.9703366885992064 8.792500770925157 0.5439544118761858 -0.41720313978984924 -0.5637619335204163
Ni 7.922940336668795 2.40989678656767 10.14952183672438 -0.9021023973750916 0.17772184959693263 2.0431093865040233
Ni 3.217353113403848 7.689566578371606 7.115668542664902 -0.5716464784748155 -0.5402335113811729 1.434831372849103
Ni 0.31982692657233297 2.631948203748284 0.020198463079546175 0.9984999968702353 -0.3846496313338601 1.4156877100411167
Ni 5.869377376543931 8.508901626723208 6.733630869095939 -0.6364267081749942 -0.546180215882911 0.11108862584841511
Ni 0.19454860676484564 1.251475704137578 4.403090618816094 0.31327760734877663 0.5453620908569898 -1.0147370275543879
Ni 5.0148976329983705 5.579076630437847 9.952552047923875 0.6884933469632466 -0.52107699305738 -0.47157528678282656
Ni 1.6343952406387163 8.73449533244316 10.699349929076213 0.33657488731382035 2.555671400111857 -1.037703406542574
Ni 5.267614883162208 3.969579412647621 7.430036450223862 0.38660572661896647 0.8117430336542278 1.3089499049622295
Ni 8.171327092728259 7.726018767502859 8.086960350948798 1.6545516783650087 0.7338463211767491 0.004963000432230162
P 1.3377332119724594 4.208609704999775 10.385905612979341 0.26483853801078255 0.8759241963178269 -0.37460381706208384
Ni 3.14493093148701 4.75356575965902 6.503476698706756 -0.8872578761630913 -0.32365792214183614 2.2738741227595485
P 6.708927579387046 4.3029347286179656 9.322499465862014 -0.4778027557497771 0.15127959624500398 -0.35334387924204314
Ni 6.447391699901452 3.7058829226131635 11.51270574274152 -1.0717592105757026 0.09825882107359851 0.6090670852151188
P 1.83029677907343 2.6724156047578966 6.205965262631589 1.9505401596160346 -0.1936441772541439 -0.2993579119438909
P 1.2587828333757942 3.862995474241458 1.56161975716861 0.22813912570722 2.7228800088822913 0.2132976898190133
P 7.70170494407316 0.2627932991869924 6.643946985304813 1.3549600531437567 0.5307661953206859 0.39891925387899685
Ni 2.9828851403222556 1.5721733660341095 3.7223332364057975 -1.1711351759728799 -1.4797786269837545 1.0926100858827827
Ni 7.706118895237361 7.227409200067729 5.577623550296187 0.6735153854971755 -0.3287085971918661 -0.09324799812256844
Ni 0.9958374568797831 5.195684170597687 13.317711323484607 -0.7418987591675803 0.4083364334278387 -0.04575226653445024
Ni 7.95669408086563 7.540734821679513 2.8187380858511806 0.9525731524311335 0.6846089243071758 -0.021409833134343772
Ni 6.957759439765589 7.247856179725428 10.362494053096443 -3.316698395468456 -2.242246211441622 -0.8523649209406483
Ni 0.3376264628321754 3.6379952409469447 3.705856958194551 -0.3732154213549895 0.3194875928142304 -0.9594215428115347
Ni 8.904423179258275 5.296704305015361 7.500094942746256 -0.259324807281405 -1.3536773297765912 -1.8641032708780283
Ni 3.4580896389791387 0.46326272069625557 6.176324096882911 -1.9286770409943557 2.00510102558105 1.4602657537618078
Ni 0.7144415790572762 6.495444420348706 1.8393425970580488 0.30688713044140054 -0.3023208512269568 0.07386830804437601
Ni 2.210313864493906 0.5814713002357023 8.201711953610063 -0.4307615952005742 -0.866032905346044 0.9407175386441282
Ni 3.4409994877278285 3.5329969866775017 10.146889230137159 -0.05699698621033409 1.1138034321309462 -0.5342659809438282
Ni 8.96094215477468 0.3085184949657281 0.5511865878256894 -0.5618351488113486 0.12200064477522858 0.852570352083235
Ni 3.8122906738930245 2.9595357095838946 13.557365689184135 0.156772243928459 0.41447854176983456 -1.2620054178918911
Ni 7.291930780320912 5.117290172399871 0.07091810023861594 0.68589704699098 -1.1385001635466778 -0.24307363552986525
Ni 2.634553918616226 7.81898065914387 4.738074274753737 -1.1521282958530739 1.39989393754197 -0.5792931963867959
Ni 8.51795208121115 8.468628958853191 10.602921787550374 3.7574163305507935 0.47410293830068667 0.17517028681967253
Ni 5.14638886725967 8.803069216601292 10.94175930505071 0.009083193248190808 -3.9868510351409854 -1.4359886263819979
Ni 3.170505883820767 5.317448020885778 11.731431859738347 0.06023323375944466 0.1603198520704013 0.595325310148994
Ni 8.938863125947025 3.7129025886453078 11.883791068159141 -0.7680373652361612 1.742109053860703 -2.282766283042856
Ni 4.7124307021707885 9.24282301084485 4.6511185095183 2.3525329102140327 -0.41908981528960076 -1.9426967523122154
Ni 7.255497137202954 7.437210975467019 0.3083487989440792 2.3871612989211792 0.9836742447113125 0.09722935136781966
Ni 8.535580066848015 5.586476489742538 9.628534649647547 -0.6975477438560309 -0.8281057912829674 1.2493095675917774
Ni 0.9700677714064294 6.584910388483616 10.829030145139262 0.8463415975647037 -1.5227582158690742 0.2843547536668394
Ni 7.42910636765712 2.662011291299422 0.20980084809862468 -1.5771653298650452 -0.29564806719247144 0.29091312361064736
Ni 0.7546725183973787 9.135302498767292 6.365327445672563 -0.7328302212074089 0.795121880157779 -0.0161149032839916
P 4.945062619936181 7.575796059813643 8.672496937298758 0.6600613168747987 -0.7902205862014197 0.15333802143592948
Ni 4.303964032355837 8.632863179586753 2.4900925299570917 -0.7759193390873992 0.677787016289336 -0.19516807009783807
P 3.3512275103735516 0.7074423136397565 1.005764210495913 -1.3141828712263945 -0.12884980648657807 0.38682709860115316
Ni 4.951034436217159 6.309205354840669 6.388074130978836 -1.1443609932028294 -0.05560164852470424 -2.215570501922649
P 1.2701793585455499 7.857417271697684 8.673718192274231 -0.044743879874593905 -0.31173340279010825 -0.36778370881645694
P 9.287657997985427 8.401149289479463 4.321671765849868 0.8320038407857929 -1.2044561587225129 0.07544439428224425
P 5.83881354663383 1.2632616955865281 11.554846921451004 1.3725466558772683 3.918273543181904 0.3386919336568232
Ni 5.368375373393752 6.75701739186089 1.2394161589925272 0.03470989267735958 -0.5986728864649883 0.12707317420212952
