# total energy = -340858.2417860158 ev
CRYSTAL
PRIMVEC
9.31536418858288 0.00000000000000 0.00000000000000
0.00000000000000 9.31536418858288 0.00000000000000
0.00000000000000 0.00000000000000 13.63397710142968
PRIMCOORD
 96 1
Ni 6.671943235035493 1.1590828098596277 9.115513217912353 1.4188581373492983 0.7943392363554835 0.06774342609356075
Ni 6.790956326878635 2.2233445284644544 0.5616177128497114 1.34797590851644 -0.8246049772185605 -0.5198294938035241
Ni 1.8058485398744475 8.703111801952982 0.3873086196617912 1.0679141257979996 -1.4670660645130926 -2.4902679350053822
Ni 3.153362534909644 8.75251117781743 2.3101134189843457 -1.6179368553554523 1.9041919113687977 -0.3249319037582533
Ni 7.514760118066183 3.12596604906817 10.552316840995053 0.1539496868779994 -1.031146836370979 1.273952048730806
Ni 5.566433084160673 6.174661152860912 6.3944031398761165 0.015997918090153093 -0.02707345917802434 -0.12179109986758381
Ni 3.3713047935791924 1.2729351899869665 5.953357910821217 0.32030983160520965 1.6655896813467252 0.16108655503309677
Ni 1.6742131296650362 3.3952639100648345 5.24316386659538 -0.11604108475768402 0.21866692455072664 0.32220499174539347
Ni 4.3806710714958825 3.6111661039947416 5.375100163065478 2.1050513754244586 -0.2287415351779093 2.0540807979138624
Ni 1.85254646014759 3.7620563718152815 13.239940979672449 -0.6963547519891943 -1.0823279872304843 -1.040520821386711
Ni 6.95158115019198 3.884730401752847 5.354758202462952 -1.7603237770965168 -0.37977404840911366 2.063897269783652
Ni 5.480582688541825 0.9785883149040302 12.494749112493054 0.16291563782203555 -1.3406768037518653 0.0863183608822707
Ni 6.1225789521333756 5.764561563372616 13.552745317198873 1.9359049262013628 -1.0254312740434404 -0.12918559255944204
Ni 3.102901207536891 4.906365014199705 11.793730701913546 0.965704033386137 0.5161348185607563 -1.3384389155602818
Ni 2.9433197050036366 3.4960002575281828 7.2466220199009586 0.2100089917654125 0.5542822761647551 0.1930854765371965
Ni 7.558933574666071 3.054265691529295 3.3617164893028817 -1.1044284186739497 -1.4785175008831442 -1.1147961350615188
Ni 0.5980901579415597 6.4526781946626155 0.733742353154318 0.867676354486738 2.06973238840819 -1.0738304912824346
Ni 5.111414808943851 8.386706144662426 10.579679791525738 0.27087445979221736 0.27719371714202584 -1.6771894703691825
Ni 2.231094911402267 2.3311884987421667 9.038713630060789 -1.0047066399015794 1.2358110188847105 1.5577031073753755
Ni 0.36005652196398974 7.679166979207354 4.488196456321103 -0.33927583118475113 2.851255446835612 -2.8846913578965543
Ni 2.0443404917661283 5.951455713470374 7.341909810897568 1.3917900774879128 -2.4889826405350557 -2.268068571821365
Ni 3.4982732063705217 0.988974945884392 0.44022175086775656 0.30885813812484225 1.0709526555140072 -1.5594067203300435
Ni 4.400000452019874 6.3356679061026835 8.715846836224959 0.4420315116874387 -0.06240658726167961 0.42595877449529224
Ni 4.4113186194110305 3.6984324349579976 9.958024557000302 0.38786093918230624 -1.473568898628617 -0.8043110028562148
P 8.493711732170423 5.417517673531019 6.797274006816645 -0.2903397676056806 0.5207378645504064 -0.9916328374367567
P 7.539538986593325 1.0073262131770493 11.933983755459218 0.71662481509214 -0.1468459859536826 -0.23928357235981373
P 5.179789581496189 3.825913192775264 7.559045359035367 -1.5811888492021413 0.5199775893456142 -1.1499891380228837
P 1.3470854882862313 7.090035406928409 2.5812659689749027 0.96133984288017 1.01509286823191 1.1491363031042854
P 7.260897815396388 3.755815077862956 12.79589620337479 0.007572413030619216 1.1645320688340655 -0.7464717232502435
P 3.7814602752521367 0.5174004740385154 4.135212158787867 0.763486255530369 1.0166617553809265 -2.6689207810570164
P 4.806597464603581 8.700745699469564 0.5269487222491619 -0.7032735905962146 -0.8444389812253522 1.4395696588650368
P 3.030669874243863 5.151843489172346 5.005933215003915 -0.20850541063669253 0.7971551085377239 0.7049694902413988
Ni 0.2687258976404366 1.7731516118555504 -0.040456626320817535 0.26587957768078724 -0.012370605750210954 -0.5355445905459357
Ni 7.6953198205705355 -0.2735410093478348 4.314240415432874 -1.070344589616363 1.2926336843007091 -0.41258929516692167
Ni 8.61624603164637 7.306906398725542 8.421475741195342 0.44491860342724665 -1.4414223958030594 1.2329961751437346
Ni 8.317800396355937 2.506662012443581 6.607420365541792 -1.3124532901297976 0.17670394985537954 -0.834253556051918
Ni 1.1235540111519147 1.6850934749431195 6.703608020711229 -0.08770392837588767 -0.10142821994051564 0.47753896056542916
Ni 3.241700132745314 2.710994524151417 3.6381452615241803 -1.103237483689642 -2.619451213571979 -0.5006320949394669
Ni 9.164883716148067 8.85728107793952 12.539945396071994 -0.5324816353498959 -0.3283890090689183 0.4589324012078354
Ni 5.197824126409176 8.776703178405771 5.484048935526393 0.5932725413850234 -1.3577185897255004 1.077538536261641
Ni 4.168998052870983 2.8264305161771066 12.765778699677385 -0.42182983992858314 0.9324110756609619 -1.6571384652555785
Ni 8.997766084051483 2.281518977318589 8.746550276324754 -0.37727185081255027 -3.2770334727786663 0.9158588277292355
Ni 1.6146879530152494 3.709275518779649 1.780461378071057 0.2544613085415166 -1.2925478094551224 1.7546043581142363
Ni 2.6399462421000988 0.4379786111905627 7.916569033498406 0.16622773291440404 -3.1472560122714954 -2.0557926383986462
Ni 0.9986629245566578 1.2704293570419285 4.024831614863561 0.5481195989974689 0.2815118849014055 -0.6393204847830215
Ni 8.795939405288683 3.97418584328147 0.8492714988210872 -1.6969270580074258 -1.86687054921052 -3.6406093141613622
Ni 8.533525598367794 5.260879826055875 10.30750441455613 0.37501236535441224 0.5247626694390835 0.2976524992170099
Ni 2.4577470355127464 4.751105840612537 9.263769100763165 -1.1582495782594633 0.36154441277496446 1.3138105754886404
Ni 4.211494743931442 4.716573785864375 3.336534265509866 1.8290547639143273 0.2938038148948811 -1.2104023490036186
Ni 5.245230014354523 1.3080261665816062 2.0845810016396418 -0.7504327647805205 -0.7363048100195706 0.07530735448374772
Ni 3.402883877905136 8.579692542886782 12.296483697428721 0.10397695450429836 0.9740814588165547 -0.723457007522625
Ni 7.998469714735482 5.593671208812312 4.478979835072699 0.3875061269460487 0.6966103196434261 0.24754504103765756
Ni 3.1137163452662184 7.961953487432328 4.659179964522486 -1.5802889630956913 -2.126592077709712 0.7496804599955281
Ni 4.546782644268808 1.7922667390050593 8.091274961197325 -0.5754771650748154 0.8201279152838133 1.182744478077034
Ni 5.989043207645943 8.47728874524811 8.032130782939554 -0.5228019461682868 -2.4410297668048604 0.44680476470636604
Ni 0.12323202024763139 1.2453151354069012 10.820646835660902 0.6448956648779538 0.5485379174818101 0.5911758067569948
P 6.4739079094646295 7.148004917772168 4.523658184407239 -0.09536992956157768 -0.007042251558762065 -0.49377187748452384
P 0.043554916423120996 0.1858070471063603 5.613353641635996 0.07065982840940734 0.2133822791130196 0.9328815875394773
P 7.825846702451101 0.9090211757458756 2.504370432873025 -0.11424156965510002 0.9635101110586116 0.10127575352305139
P 3.540192344856287 6.860169482200687 10.901427810132203 -0.8509119905442055 0.03745788773614194 -0.5527753526019255
P 1.9599898697686606 1.5772029278448672 1.6706798120588917 -1.3099251243913053 0.5418797887353443 1.3862133547310835
P 6.840495433204701 6.290907581563993 9.40436309663519 -1.2051223315516018 1.872183991003634 0.6478097532009552
P 3.7612925119584295 7.664048143260155 6.934226626858872 -0.4533376807288773 -0.1555077753937386 0.6700667648269428
P 0.7572953197648533 0.11602658611013372 9.002869040509816 -0.7605204880338258 -0.34597021248579124 -0.15033085917848948
Ni 7.973113293633649 7.664644326563064 6.264048592231547 -1.5312446560735307 -2.2504400601063246 -1.3902281323174315
Ni 7.660191582519465 8.477223537699356 10.37331559890596 0.17377674890625558 1.4036649745486276 -0.9132915812226916
Ni 0.1159958454085775 4.2489052461889605 8.290112339617883 1.4005919920502587 2.578804386584894 -0.9844622878302466
Ni 3.54498975737188 6.61457922285875 2.3672678354686596 -0.41575406604814846 -0.9971347410915924 -0.7824859365613234
Ni 5.742223320241757 1.5700394128458555 4.486396727975447 0.6669909541150965 0.7607418600160124 0.6198958003995066
Ni 6.9041845776107404 4.329138477250715 8.54624013883873 0.8888406472691789 -0.057692469615461935 -0.43105495807127703
Ni 7.939615244301469 7.208843560761176 2.730053759116278 0.3346869262624881 0.7448110477183689 -1.1352497749301804
Ni 8.217026787436156 0.16119958127880527 7.516588724040573 0.8731803150241026 1.718863453069201 0.9042762650979588
Ni 5.855265263691704 7.738831886318761 12.659079587648538 -1.2172062592993296 1.300453180345128 -0.058821698123898696
Ni 3.7796065177946554 3.2648488125535646 1.4452424114280888 0.6519582281516901 -0.5905841959195828 0.007953707629437916
Ni 3.0110424020684174 6.623354295848437 13.42383651406386 0.25994521447422325 -1.1194462322390204 0.9578709104949632
Ni 5.309086835314505 8.531122234427942 2.9890860888659843 1.562071668756716 -1.8098247120401219 1.066011252348332
Ni 5.878376682043522 4.967240918645143 11.197585591997724 0.7972720937315625 0.9938810100409851 0.35546221113662657
Ni 6.883709407301471 8.917011192599682 1.108378351483657 0.9785240679689405 -0.2785222061454623 -0.9486715033838824
Ni 7.0760809914947025 5.14465202808101 2.0584169384696485 -0.8176390874236885 -0.35641120531345716 0.0636312036974001
Ni 0.48281439017852656 5.625650853794897 12.426784215961465 0.15901013212004225 -1.818708901903629 -1.3968363816625684
Ni 2.7204216726286603 0.2474635790640456 10.063510808622294 0.47549030556651656 -0.3048240772647847 3.161716667781516
Ni 1.03505805212641 7.744318635778342 6.653544459385885 0.38500752889391116 1.9217859703014775 0.49710479851249867
Ni 0.4058825241566284 0.09608611770066054 1.7171718627852486 -3.0700259868437385 -0.2082917519639897 2.941275424939186
Ni 7.767225116119786 6.970845323167215 11.936560385171477 1.3926313424422856 -2.408661891997116 -0.9488234555807143
Ni 1.8336083249161321 7.4114713608372575 8.927555253233468 1.1228076925120856 1.1091975579278188 0.8664851623921141
Ni 1.0599580203869547 5.8010964214039875 4.891993270453962 0.608695303697997 -2.870202677362076 0.8331929759978877
Ni 9.479407669888817 5.161410368111208 2.3710983131898478 -0.8291676568885784 2.0468043188571072 5.79843155352995
Ni 0.7399426595045681 7.223207852215631 10.887425886341548 -0.17150440793231106 0.9075713909094628 0.16999054239094594
P 4.442031374874935 4.717300384264794 13.767453281450143 -2.609410541506525 0.9128097564902665 -0.978614827910534
P 5.828744422076376 3.275291335718574 2.164094155055852 -0.6549358227227753 2.463784544002873 0.7839658635409595
P 0.12716869311965015 3.5277470184080686 3.821903860063203 2.1787703023751637 0.7258956988711046 0.38322961105788195
P 1.9976425714929857 1.478832682864938 12.13618956954121 0.6316308294482477 -0.4740905970055126 0.3943617164153015
P 7.910262531997325 7.0285353730877365 0.34660327311929146 -0.43510007467492806 0.7086402542247666 1.6561933277334895
P 0.7637993069850225 3.6627452750604492 10.584792994884591 0.3582320605722798 0.10966346336611436 -0.6112419813792506
P 5.998898862872152 0.9070724015744929 6.896338246422617 1.8186384536770097 1.0386793973025983 -1.3565723919361992
P 5.029625912076069 1.3440207334947165 10.32772434388884 -2.0721512822623285 0.5338702881673064 0.9653386796269181
