# total energy = -381178.6402682197 ev
CRYSTAL
PRIMVEC
9.11871890756848 0.00000000000000 0.00000000000000
0.00000000000000 9.11871890756848 0.00000000000000
0.00000000000000 0.00000000000000 13.34616685546710
PRIMCOORD
 96 1
Ni 4.519501421770055 2.29425138301936 9.345159263937663 -0.8819760589388617 0.2279442360875945 -0.6736776221066526
Ni 1.1172071755131834 7.004999691712463 13.184810966864319 1.9972825579778957 -0.5645348071306987 0.3339785873415539
Ni 0.6774852350890892 2.289126663119929 11.813799758652175 0.9563400756727336 -0.9081791996967907 -0.561398318384246
Ni 4.740055870537888 3.879650050554523 7.222251340573581 -0.04590241895906933 -0.7537816266480953 0.503007794260495
Ni 6.745781875731845 6.94023855163105 2.1709006516606864 -0.6928809345079808 -1.1056162683344635 -0.41527275553635573
Ni 3.3014412176310715 0.37857910791580157 8.170963744147825 0.7001936661193102 -0.23421284270512566 -0.12332579134455535
Ni 0.9945786466741452 1.539741243093085 7.684762782728381 0.6557524050867998 -0.3923187178433437 -1.569131403816975
Ni 4.044534721767156 3.8134846277960412 4.686853618258108 -0.16515301179298653 -0.9796581815733838 1.5808636046522389
Ni 4.559815277064328 7.882357209726151 1.6468105022445823 -0.47643878552271507 -1.6901007791142117 -0.5821550913156232
Ni 4.049258218044567 3.0575246115992867 0.25551379245188305 0.7193090467925225 0.6564278338872696 0.02063001754552576
Ni 5.755835538148289 5.812170982167293 8.13483538072871 0.06440227753546973 0.22663605879913226 0.9627572920529871
Ni 3.0290650905919523 2.1123876576203577 6.583263512017259 0.9493145362845199 0.24824669509037248 -0.022004529295549198
Ni 1.6330713288060206 2.922430794321599 4.92207917351383 -0.7492950516316514 0.17984969457321284 -0.7757900125983865
Ni 7.961890674072826 6.947387627077941 7.432760608841036 -0.1900538887997243 -0.1161020199026065 0.9004098401640172
Ni 3.5004663715900874 6.095006279534965 0.6355245392007997 -0.5482201291310752 -1.002296744908506 -0.2561878043143201
Ni 7.145956845102845 5.664037397173973 11.047396073948628 -0.3959653134569955 1.5401818106621603 1.233216775794973
Ni 4.211206661841512 1.4979866302470146 2.4664246460747234 -1.5232904342234603 0.915365433032585 -1.4832560440093938
Ni 1.3373604006589972 0.5240600576444527 2.8999084710482834 0.43946863605626896 0.169474779096792 0.5094535498858387
Ni 2.38397045613412 5.955006591606221 11.375124647132804 -1.0026795821692216 -0.05975655123334225 -0.37911970265456646
Ni 5.455483182191995 4.2674235625176475 10.368783765230411 0.979580534257913 -1.5694003412076456 -1.2149285190087464
Ni 0.40416623253822437 3.8700753959381493 7.023673915701864 0.5968957399599075 0.8551144586613273 0.26759733170284233
Ni 1.729520016308289 1.4081854886641139 9.918536999703253 0.8537520310961619 1.1102565953199524 -0.5572578138533112
Ni 2.8157417857391516 7.092840308778678 5.2629004029819955 -0.1439897474518101 0.5423104485148595 0.3084922701449913
Ni 3.1128569965632433 1.3713823400625107 12.33676921754223 -0.5209067860281029 -0.06442104658854711 -1.5498013360297955
P 2.562916191554799 3.674542711234439 8.180506483248811 -0.6151330889035407 -1.4179443672857772 0.4355767572010305
Ni 2.7481538428662375 5.077475817937571 6.584932237536113 -0.5270388670677698 -0.6328387337134198 -1.0086075176178824
P 0.679711114319429 5.840721690361451 5.849798462937772 -0.7098209047964291 0.18153582402638413 -0.021358153960801925
Ni 8.266930051431801 1.0914467952357976 1.9915819606459033 0.5834573550668144 -0.9948030076346223 -0.226833519521919
P 5.737525151034309 6.994321672135536 13.132240641789219 -0.3118843265456757 -0.41791173582109964 -0.267062799355611
P 7.585351423526246 8.417416265845146 3.6270077426156835 3.5474703308128324 -1.2415484355891198 0.8780816089804618
P 1.9541140574523634 0.6902514412442539 5.173614469004643 -0.4742507767324607 -0.017095264919389914 -0.6330004561022646
Ni 1.3955287071331364 4.801397491113454 1.6113222728769612 0.8487998292972091 0.7418067136744063 1.110171234694998
Ni 4.580460056160966 1.1410617435859767 4.691364648390222 -0.05920042161955611 0.1585445053375334 1.8600082748730482
Ni 1.7391402645180738 5.345456722571841 3.9543360040497086 -0.8236672958956395 -2.6912245867605393 0.9659734849974395
Ni 7.227633208339851 4.677081999318197 6.546909004374823 -0.433346325208615 -0.6444488071485223 -0.1917338476053085
Ni 5.25061292955765 4.468992838989014 1.8694239576908698 0.4635380183006469 0.413875618078513 -0.3836404733430554
Ni 5.668122583143626 1.4068997493299151 7.296109314412417 -0.30211747696689906 0.8334590851750807 -0.29240899142988347
Ni 6.990136180260378 8.730571302831333 0.42872932505262934 1.2418083741187258 0.02582698836543294 1.9563513669811725
Ni 3.7262458461628554 7.7816409618805835 12.200170811681968 0.6436887890540463 -0.8474708260731404 0.3564358879038055
Ni 3.6042100340381644 7.059073693498267 7.620073680524556 -0.4990331258834632 0.16597807879744317 0.783031267541832
Ni 6.02297752066379 0.061863211284191214 2.720081867402899 -1.4624280515204489 1.5385604730086537 -0.6693615112298021
Ni 4.901283935558935 0.2551608980388796 13.361381276068268 -0.6108648005454899 2.721099519943101 0.3024455497302791
Ni 8.1938344024748 5.38724781029264 0.5419227156711327 -0.21000719199319962 1.3370880579593425 -0.2819273751722693
Ni 7.945157825290878 2.1820273121967806 6.562777398625692 -0.8938681823907574 0.988605877684975 -0.22615397695639117
Ni 6.489992697975758 3.8767958916069754 13.120149220816542 -0.49728374729252417 -0.5830891730941185 -1.0073988420217619
Ni 5.334067442937696 7.398454165414636 4.261551107686272 0.8524556808822414 0.5287324527201087 -0.6574426483050291
Ni 4.377978907821373 0.2337218785450171 10.360588772750665 -0.6118119949501076 -0.19325851177995104 0.13754861981215666
Ni 8.699421759812731 0.12101998686348753 10.529818513415396 0.309349475938964 -0.1293542569268224 0.08128619777500194
Ni 2.3020843623674216 6.920040589749842 2.4024303902344886 -1.839317579292916 1.7129964527654626 -1.1006458117030657
Ni 1.235686687351793 8.500460436884492 8.616111322187864 -0.37143287553327 -0.45914785965275123 0.8576428815101358
Ni 7.6542068682959945 1.544710944774917 12.440869421890785 -0.9577449264400603 -0.29037396327772574 0.013305458859654503
Ni 7.472634941894825 6.6483301291745285 5.207647350870575 0.9411700528005147 -0.23634248745361877 -0.8808769123374119
Ni 8.84564953260146 3.228646486390586 0.32076551959840227 -1.2392763517254917 -0.2704260594008891 0.41463512195235686
Ni 3.514035024989291 5.170732953901049 9.415600453886256 0.16151541504039926 1.2509689575720715 -1.0057605350873904
Ni 8.951189582629942 7.731323872191871 1.6442745865790456 0.5762793492611366 0.8677899972464669 0.6406325187262257
Ni 7.872408687643804 4.9552485127205514 8.938181730429697 -0.2311606861423632 -0.5042228976145187 -1.139736092836308
P 5.384922537028664 2.206656971357566 11.741636954616371 -0.35232880771396735 0.0018517084967581015 0.07457613274467802
Ni 5.019854634584367 5.888540251131225 5.905345137790762 -0.3423554985513394 -0.14561674153227178 0.2501500827606724
P 6.374467650990201 3.203633841045146 8.585561790858556 1.4279436445903344 0.21540985106600966 0.23166590791355587
Ni 0.634719356341156 7.3338753997068675 4.165004849894103 -1.3477023431400788 1.1262480856522024 -1.5678026577032225
P 7.37091563499421 7.8466209512103715 9.506194012122645 -0.6351869222306222 -0.23407785978915815 0.00039646410747028497
P 0.4402353242859055 0.251330124320462 -0.08109550085694668 -0.25931349442749535 0.10305290002813221 -0.07209321842182424
P 3.3820142159075246 3.644058834679642 2.7030927826259794 -1.1047091831391618 -0.2212475407937093 -1.679879872717152
Ni 0.28441739505904395 3.0505852666820865 2.636255310300615 1.0275349506500047 -0.8722840284620783 0.8597460438960677
Ni 4.538030658132408 5.201718359983369 12.102450974795394 0.12639337452628555 0.883626450058091 1.281182247930658
Ni 0.4826410136458894 8.348159597453378 6.157080133220717 0.6423880679647518 0.6732701022555889 1.3741772495021558
Ni 2.540447668721709 9.167777388770991 0.864144494643092 -0.3535086869546815 -1.3371060556814713 -0.007151523443116716
Ni 1.821564362687026 4.067577723877228 12.996216715205941 1.1339603666947955 1.6978140885980695 -3.557933949348317
Ni 6.7758371725085755 -0.17876244917516526 5.550403572443116 -0.13972634418976582 0.817918052116688 0.6918265251015376
Ni 0.9818124405189806 4.489163444714174 9.52746798280836 0.8812466369720049 -0.9399593203218649 0.973205998190137
Ni 3.07948248618617 3.426431494608815 10.88006211489794 -0.599672017153464 -0.2913047026221112 1.1612693389223938
Ni 3.4937458759212614 8.525527794542025 3.4880202324606704 -1.428485118916101 1.5138583422762832 0.827041354574195
Ni 1.7816426122960898 2.298145075896685 0.9129095784120843 0.45635178496485274 -1.6754933136136823 1.4400111172778296
Ni 7.80348941184328 3.541692098752587 10.806805064620265 0.3652673701525064 -0.7454687359070259 2.2890677997808515
Ni 8.621392884048628 5.6698369022558905 2.8640737303707366 -0.2104756469891859 -0.6526192587744567 0.6230921958496173
Ni 6.275173923259067 8.709370281895078 11.59958008375291 0.8227265292489251 -0.12698498536369743 -1.0802862742101071
Ni 6.184588571869492 4.931448656959852 4.076706473150039 0.8050797627014393 -0.4484651831279244 -0.399787258306247
Ni 6.842759448917685 1.353500532726598 9.89938586672677 -2.0953115224288754 0.020120939119591154 0.16526331211860568
Ni 8.691205794280014 2.4112171875567148 9.139108137233965 0.4167835357539274 0.263711623495191 -1.1612744811287161
Ni 1.1088817853562798 6.282532729235651 7.967087431849845 0.33040038307199227 -0.3442426882717233 -0.42954134964022794
Ni 8.822570055616659 1.1902116372833604 4.715467245611173 0.9712802419223335 -0.800998393543214 -0.8164147280982843
Ni 5.7166432852519335 8.22553106861434 7.778493180191468 0.4476799682224677 -0.2873045803237826 0.7451164947739296
Ni 5.31100620339026 6.996245721777493 10.299356576799285 -0.3649701506270618 -0.3755515256873339 -0.7840057156399595
Ni 8.409437386998167 3.8704857382788513 4.4733278778505605 -0.13628389416712014 0.13145176288579943 1.7351722175315536
Ni 7.977273952489799 0.1934244369443718 7.6854567172201005 0.10722862867237662 -0.09156238289002941 1.5107113120068691
Ni 6.28301602132581 2.176929948453397 1.4794756313220259 -0.8531056557614146 -0.4095980737490817 -1.3015212165983263
Ni 8.19447271278256 7.371271265022817 12.317123850013168 -0.37918192335106954 0.7357260546979651 0.09351719262355507
Ni 0.09492859709793577 6.692118216286743 10.203051053180328 0.29631141180808324 0.7755547566591289 -0.5640972053726478
P 3.1557788054006433 7.53207986898448 9.822271598446498 -0.23630469223714792 -0.13331092758172525 -0.555749861849217
Ni 1.8302545015912202 8.642320343424418 11.169767454920828 -0.6556976405894642 -0.4665289826081707 0.5930933354946818
P 0.11760776233258567 5.224414850783516 11.876860257699347 0.439124879563605 -0.2729606528972847 0.1431471969458567
Ni 6.7283833604860925 1.9659866291766668 3.889767268932491 0.3343172016278952 1.0600064409151486 -0.03923272024837759
P 7.415086708291079 3.7206743090479946 2.3203774239159043 -0.20087771888810563 1.3100626784104341 0.1712660666692599
P 5.884272690787927 2.9595895729518102 5.6017601960616075 0.525337825216263 0.04128446057108374 -0.2833049722460863
P 4.4226971042391785 8.43050162715419 6.009819209605288 0.5616518291559489 0.16528825181927018 0.38656638874059873
Ni 3.912860423995315 5.754413018033857 3.432500913763728 1.5118068590638931 0.209632068041968 -0.5774623138256442
