# total energy = -340874.0790666684 ev
CRYSTAL
PRIMVEC
9.19002459129027 0.00000000000000 0.00000000000000
0.00000000000000 9.19002459129027 0.00000000000000
0.00000000000000 0.00000000000000 13.45052993127408
PRIMCOORD
 96 1
Ni 7.994439317881647 4.775173636778972 8.639786752131721 0.5913442140140589 -0.24063571551233393 0.11204404778314898
Ni 7.401462158853759 1.0253402549423538 6.827071824947283 -0.455950435761376 0.7172825032807969 0.20089391683802177
Ni 6.250972146431371 8.469784159701101 8.066875093212651 -0.45675004884453596 0.23528602116464642 0.0179090190699369
Ni 1.2880095432588727 8.761686916848872 5.380010522787913 -0.3054789372399642 0.08231592459109695 0.38728861161860395
Ni 2.6034696905413073 1.3092017404059546 7.913834529522003 0.010731784595207324 -2.2415347871968945 0.43861554402735425
Ni 3.1089118635215125 0.8189231083158987 10.511051327201699 0.2727331102675109 -0.9922658430350654 0.8145689331387971
Ni 6.261614195128821 7.414934735184038 3.46648378075337 0.008423705287320974 0.4336867392671692 -1.67400515910393
Ni 6.525248436047441 2.606042897480242 5.089102126321545 0.21576749151574454 -0.1540263057522057 0.39700738156826465
Ni 4.081391095918327 8.643429677955268 13.003542278476676 -0.1363826245285135 -0.20480482185665372 -0.08131370857882769
Ni 2.1708676539825116 6.374081718409822 0.6736269785089632 1.6025287483304982 0.8040986297350925 0.29420285010551267
Ni 6.211923731133041 2.5384318851597385 10.190041004562186 -1.1694269350325215 0.2886001592067546 0.2994147333237553
Ni 2.020730219120466 0.4999612422002751 3.2368967436467666 -2.233280517607902 -0.15224453126143456 -0.007782729269212402
Ni 3.8821697386961063 2.6298450616653857 9.465111631710698 -0.02416425595102935 1.9080064000188817 -0.5148119859842747
Ni 0.4138130308921832 2.6350741857662916 3.019456162294412 0.7448102763874205 0.2268869984676738 0.3965870062013945
Ni 3.1090497138932416 3.184141406386219 11.817850795129663 0.8413197188700801 -0.46487344928261876 0.5630250553543917
Ni 3.6928184680896563 7.691848561912516 10.44031478745287 -3.119913101482169 0.5297863479059199 -0.30830509383484966
Ni 1.8602172462796462 3.0147784396804203 6.5890786721726675 1.2237582014852342 -0.7547460474438937 -2.9089371178177967
Ni 5.702263336777939 3.8328560657163835 12.387467830164416 0.1823243813659505 -0.7068355969158601 -0.16184014536966967
Ni 6.388840898209567 5.081569063007814 1.7107056521052493 -0.8658565276691798 -0.3406349163158069 0.2652301170222464
Ni 4.773850273210378 6.051419948317002 12.937540439495484 -0.868986074437097 -0.4799856223337088 0.27590636578917
Ni 5.417179578018343 9.2123565421289 1.75833387453997 -0.7285449635684936 -0.680506472103028 -0.32862580767007277
Ni 7.194603891037773 2.9503287958848934 2.7150301583763334 -1.1048585642328328 0.24793662004912137 -0.04031001247295638
Ni 8.667323742388232 8.08848084147492 7.621218626451155 0.3545823796348345 -0.06268529484436301 0.012447995955365658
Ni 0.6552671469996657 2.886430553576281 8.502632065279078 -0.6776294076655491 -0.8107485309514425 1.4193461327293104
P 1.2880554933827824 2.9699219287199234 0.6422577479183955 -1.7935640272068851 0.45894808493711925 -0.6185182033256896
P 2.824719537165763 5.3150232625426455 12.263897837944391 0.011308740144599878 -0.19139986130465747 -0.7827646441440068
P 1.7817528146917083 8.239463758616902 12.328984350457304 1.8967447110621334 0.6120637059495975 -0.9295458382980248
P 1.273259553483909 5.77405581037421 9.53035988865977 0.2921146001179163 0.16926163464472138 -1.6975425801042376
P 6.560041869871747 1.7613233896015248 1.0636663342928263 0.2987076799544017 0.2537066897636792 0.680012306075429
P 3.5893387890453625 6.7734985754811445 4.572548294377533 0.6793623311962558 0.5921530830685996 -2.6545246602363446
P 0.8800009320189431 6.831313021384133 6.205644187199562 0.7921018623845326 0.13201354892654038 0.13468132556669063
P 7.017760244159501 4.857994140113535 10.81838229795334 -1.013977523680544 -0.6883521933996919 0.9489113873088303
Ni 8.427050544465224 6.213173574503379 3.6844500315232502 -1.219436691291745 -0.1882867695969725 -0.26288141428441175
Ni 8.963692851580012 7.294039959178027 12.589225634226445 -0.7463549951667211 -0.3421809206466881 1.1559582111221252
Ni 3.3503705746413863 4.1879034831406505 0.6897462819764314 -0.6988903739268544 -0.19076942680951017 -2.102365086841547
Ni 6.907415616603121 0.827104068376754 3.5285715881799464 1.1315674409825867 -2.4673172397464795 0.6040714317727404
Ni 1.2638581581320163 4.978640785450435 7.421733515517694 -0.04178968234227641 2.3652267036316164 1.4297760698133828
Ni 8.971844403561564 1.462739484437306 5.053942929510917 0.14554243665091066 0.38247679205225743 -0.1876249676432575
Ni 0.566876569644788 5.110563591194737 13.175050196966572 0.989716080030018 -1.751974376690557 0.3961370631481694
Ni 9.14268696425725 4.954048279134047 10.909846019595287 -0.1788078835722598 0.7339759047760779 0.6899686459571924
Ni 7.63973193137431 0.9050915376785108 9.291263013908848 -0.16029234126657554 -0.7482717525734597 -0.38989391045193494
Ni 2.691602028199813 2.385179031896626 2.076816021361978 0.5982465975608471 0.11269402266232204 1.0772006933062481
Ni 8.394361626315975 2.9882835982341773 12.979519553696765 -0.061439595362719986 0.983615623559235 0.26489741627317603
Ni 3.2852500590367804 5.075632306998701 9.740012843011936 -0.12969389965442826 0.40541026091997917 0.9647457832379257
Ni 4.464394568729161 6.564535791990101 7.920829057383514 0.765777622667707 0.37528953027519885 0.8018856812441738
Ni 1.3562822373636736 7.118786186587025 3.0674740417798856 0.7998727645792031 0.9925381228598456 0.4699758035061906
Ni 3.257918925335383 5.580118717401588 6.11252626109687 -0.7089711552016241 -0.8462834906332586 0.6324834072565302
Ni 4.479006708132395 1.8942295279974908 0.4256194557295015 0.24563471138882212 0.411008323833047 -0.2888364435872767
Ni 0.7005693741620854 0.5884565858376664 9.609893120129845 0.7342898364720709 -0.17033069933918407 -0.9679846018901973
Ni 7.4886387339349465 5.442672706763359 13.094750517429686 -0.7871113511484766 -1.263308710084347 -0.5563769539102547
Ni 8.180564889789647 5.832384897664986 6.153536746686139 -0.029190505521027147 1.4860071243919697 -0.14154848500016912
Ni 5.332796770470857 6.42091408469843 10.558128148149505 1.488522948835288 -1.6656891830390668 0.33157023501037736
Ni 4.904256724865664 1.793589566610807 3.2822522729529218 -1.2435983761396132 1.6426672682225967 0.3133652819665764
Ni 3.584247515316185 1.2200033598727473 5.545223274302201 -0.08109799302359581 -1.5601803652712742 0.42015553754995383
Ni 1.0112151868525598 8.322826473413597 0.837917051535148 -0.00452051357817286 2.062267447489713 1.9282810911075179
Ni 2.613146786636657 5.040232331538788 2.923876228552647 -0.6740594309261037 -0.9602908327903655 1.2906523922046225
P 6.888456595478043 2.9591787897498714 7.879360908560106 0.6751560064243921 -0.5519520853696817 0.4865049115094654
P 6.821470504842709 6.464640222610752 7.779827426157164 -0.5395675956623998 -0.5032067976451785 -0.3274479853118877
P -0.13160391188436948 6.539713535054165 1.4986577772949186 0.11606705289961301 0.847823838537185 -0.6300328888335085
P 3.0879677970435426 8.567915244322323 1.7583476595771428 0.8071250752662422 -0.6717945461513269 -1.3792307527656635
P 4.980616640778544 1.4973215476916288 11.797850544196795 -0.651010262416124 0.07478336365947764 -0.8465010059607034
P 4.471287087315592 3.7537850924928398 2.367763934934909 1.522807581049771 0.7332963622105501 1.4526064374443373
P 7.954600560452072 4.175450999561164 4.344305757896523 0.9924938998854714 0.33606092379187924 0.38791416101774484
P 8.932979788758871 9.204728821559916 3.3456046277894886 0.6978493342568497 -0.35351691448479766 -0.47709338838757837
Ni 6.306470706089319 4.49669750583757 6.444270532681651 -1.6167726598440222 0.7076730052154908 0.5554349017119595
Ni 4.178667508234832 3.3262008094649658 5.459019003842941 -0.22024738166396904 2.098455467374496 -0.4744896322161441
Ni 4.968926929255957 2.0438247513974033 7.335892251037318 0.6822190839187606 -0.37817585068405835 0.2674199255847136
Ni 5.20109452532132 5.322687743210756 4.060217278820809 -0.11495659344425364 -0.8439854386277011 0.4085434072323222
Ni 4.01915624809524 8.733069179678008 3.7985772732798635 0.8898719167471706 -1.013164026640313 0.6171488337819888
Ni 8.722215760410574 1.3194486180377831 1.1154631519686211 1.1338554656858149 0.23120388067547276 0.8967401046219138
Ni 8.622715362096846 4.571871908553584 1.91137443823062 1.536807751983605 -0.9355143971766341 -0.5245325557061483
Ni 5.784275117931693 8.89629320982949 10.48959813335081 -0.1662146202882815 1.0107968119597173 0.3892843018923941
Ni 0.6823143089353016 7.498848851467647 10.583146152613295 0.7565792439978906 0.8388254916933167 -1.2297421869828111
Ni 7.758513001680482 8.402724548867512 1.0836362581439143 -0.13355981036773773 -0.6161332480332807 0.7906805565569739
Ni 8.439245707350818 2.7572739452913337 10.580186964633523 1.237095799134405 -0.07448897234751042 -0.04743685332572476
Ni 8.70428602206107 3.653108371007028 6.423085687554395 -1.0594695945750723 -2.1408483305184096 -0.21854736825372684
Ni 5.560350974095702 4.626414705634214 9.076727399390055 0.29284530763635375 -0.7076005001063427 -1.0490162604522322
Ni 7.079397740371763 0.8602782198344886 12.667871109302585 -0.9034113459945022 0.21691394641536194 -1.1613829816821224
Ni 1.8484907746579304 7.7342145761571155 8.492207820168959 0.7355152242387396 -0.5099387170523734 -0.8936149287293708
Ni 5.872628016184965 7.183823991968594 5.695586783773881 -1.0625554325892475 0.03934173502241612 1.2543658990687625
Ni 4.277202953946459 6.063900001970834 1.8828724953720077 0.8230582015567308 2.0888243720426347 0.16029902613479488
Ni 2.223535686007631 1.0639015989272431 -0.21683220171179227 0.6271450257627522 0.7267354211635807 0.7146964877211756
Ni 1.0419558197480447 4.995293110355254 4.76984066539803 -0.062190100375499345 -0.4006007553464778 0.40729667930941466
Ni 6.516977413743723 7.393503597392626 12.387238998547346 0.48862684294847464 1.9272261674804423 -0.14593350144174222
Ni 7.555367503876388 6.988545155377813 9.952692991527263 0.03012253041699328 -0.4004125505950717 -0.6921846797719047
Ni 7.972585438950268 8.0698986113659 5.157457530649383 0.7290167609985897 1.2921418322659552 -0.5146083546139009
Ni 3.359128668258545 8.284467309973909 6.392915755197866 0.7071886093799046 -1.1858254309952028 0.2802867542450528
Ni 0.30414295115479556 0.8699599109422296 11.959700665643382 -0.23339728878236576 0.2576289076362208 0.016692115943700285
P 2.2269543752265015 2.315509454024975 4.427766805958385 -1.0097791693284803 1.8551280639626113 -0.763232230538034
P 0.3650378933646801 0.9394686633801973 7.155036239339265 1.1251463679475913 0.14120858516224713 0.9226056595347659
P 8.018324192289828 8.685529181481193 11.191970590375107 -0.9510690570817814 0.7449637712461493 -1.1465240622924189
P 4.199473724341074 8.849534363739139 8.460706253221531 -1.646210505489165 0.14598209529149053 0.7895670117778208
P 1.5857020160192465 2.4164526862294617 10.571699976747428 -1.2407542218225986 -0.3121771751957462 -0.47603229411291564
P 5.982366102105738 7.2442851650087725 1.0710266251406573 -0.5660347887149929 -1.271764297050868 -0.22745624070758244
P 3.5920314663064614 4.1718668898962195 7.710260776563071 0.5185251731698037 -1.2170450511311168 0.3962010836168854
P 5.692705711004753 0.39532453903593895 5.555714606593228 -0.14573424094674256 -0.5509161879059996 -0.7921262878645648
