# total energy = -340895.90867160604 ev
CRYSTAL
PRIMVEC
9.04988453411524 0.00000000000000 0.00000000000000
0.00000000000000 9.04988453411524 0.00000000000000
0.00000000000000 0.00000000000000 13.24542079203143
PRIMCOORD
 96 1
Ni 6.306113276598905 2.0371108717724455 11.404412695472198 0.1063613955760749 -0.38748375834854554 0.5468299336517679
Ni 4.68001195334496 0.24458307995455 6.106138886677766 -0.27168050063328053 -0.6934182950686897 -1.3608499362656303
Ni 2.7184314165191275 1.47249763585293 4.878566416408547 0.036350513604576105 0.18251721410304697 0.09481868504379799
Ni 3.279850043256262 4.203969935748294 4.967774746591 -0.2089638383303498 0.007491423281038711 -0.645406028855469
Ni 5.175429773376408 4.586852443646848 2.6488586204528586 0.010354346651130554 -0.2613248684305693 0.036353341818053525
Ni 7.369076495085539 6.085540444864684 2.60483093299596 -0.735821442625249 0.3949402146265908 -0.7813309970212737
Ni 5.24274281331565 4.632572459480816 11.330105904892319 -0.5457120179972408 -0.12812604094667612 0.03798573521515393
Ni 5.535470373126717 7.868322416205223 12.66440999644837 0.5321877582585609 0.5019197034026387 -0.9311121543438802
Ni 1.9601687548642133 6.529573021446949 0.24588173836155203 0.425256606221945 0.45658755512474264 0.08243702354999351
Ni 2.885836177583405 1.5331499608963288 0.492785208668404 -0.6785143813736637 0.34193152364004337 0.49317975242647966
Ni 0.34591011029600216 0.13430933392555627 4.9315616342870365 1.6932300687718131 1.112907402679238 -0.14294870778180543
Ni 8.664042549264886 2.314453628155614 1.1335903260819327 -0.37724742533251804 0.19110778398553538 1.0269091441405476
Ni 7.020592597674892 0.6722887601460683 4.99573526933855 -1.3422804007935594 -1.033517907706317 -1.449385359403878
Ni 0.7837697607499335 7.556354802224914 2.358055971047153 0.4662597881071841 -0.7755920376549675 0.5455405254163831
Ni 7.642509701421147 3.8820112494242194 3.4677174978680814 -0.053364531664069376 -0.9437565825807683 1.0349844649495143
Ni 7.848177373599046 3.8564724757339075 12.523744023741779 -0.2879393856943041 -0.07303475639948712 -0.4240499875083536
Ni 7.76009484903214 8.778514536652823 7.232264868131857 0.6234634631461069 -1.0791354484351157 -0.6727777360002027
Ni 6.8777673225577765 0.8394962337310937 0.36465151583649363 -0.4100343899555519 -0.5002405159280029 -0.29798468574544806
Ni 1.89790555040307 6.572786219310607 9.148042130187525 -0.7319604170079459 -0.30518017505262285 0.16073328545873608
Ni 0.09966999651342372 4.717270327293583 1.4767845660786925 0.08136435931110503 0.32905003969168495 -0.6300809684626245
Ni 6.477400438057635 1.874556848730141 6.896387459647719 -0.509204152879194 0.8879803561514127 1.3031335553907686
Ni 3.4745583054628746 4.60819207098978 0.5366717179291406 0.05285982411350897 -0.1595068692508027 -0.8527418446640928
Ni 6.1895688656903864 5.698132994781453 4.8261277664187725 -0.08690585795462452 -0.17615630488202566 -0.09022438080489623
Ni 5.1690043554741685 2.8478900124227113 9.345664455161067 -0.17243746126954174 -0.39338983942033545 -0.6705156794389033
P 0.34695989688284695 5.5278865700252 12.524193802994935 -0.05196508021338147 -0.23301753684544385 -0.08601419937829058
P 4.047823230839491 6.217967402841415 12.382242746707899 -0.49850399285287056 0.19668579229394514 0.15601531115777648
P 2.4922657562446466 8.430446933923166 1.2301127728116958 0.5751593767240805 0.6102986436293747 1.6806758862558862
P 6.444829904212336 7.652337875846264 5.834740094348389 -0.25896253884597986 0.12054771437878592 -0.11810362371366757
P 4.75838395198355 1.283925195248738 12.825169427420231 0.8848202132558761 -1.7914953176033146 -1.7314963113418633
P 4.0788643342263695 6.178528006759777 8.030221227619187 -0.7139418689433382 -0.16209339903105632 0.2814797461118894
P 4.82041185945109 0.9826183450555251 3.8676101684272695 -0.3051968872231711 -0.7484152201298594 0.16192550599462435
P 0.14309677164819729 5.617190828981967 3.6388743409918924 1.4513856776633585 -0.9624017084857813 -0.7288681512358673
Ni 1.3001697376917252 1.3506499927039717 2.5730947984895156 0.8524178856657707 -0.7885213441221259 0.10977736323615933
Ni 1.8563213317258964 6.523174753197819 4.804034283707873 0.1395959892594886 -0.30202877390783467 -0.5185943358448424
Ni 5.945710681473822 5.615697598061025 9.112676992048968 -0.1443378748198482 -0.9401683510088775 0.5753771491618414
Ni 8.529923262911087 2.2271131941069955 10.179913565934813 0.4611427785955929 0.29212539875119364 -0.12162269261051957
Ni 2.3250419928677557 5.222778768396859 7.06541215001411 -0.5017111869362585 -0.0955668760637322 -0.4846768571617911
Ni 0.4883245206627502 -0.3015050426609016 9.144664713340882 0.03866193534657212 0.7985188216544699 0.13170990164319252
Ni 1.5101904042512821 1.080891039422321 11.421883497247233 0.2580855355576652 0.70376004331433 -0.7757133937241802
Ni 4.167526051392913 6.923885533303995 1.6197292996694843 -0.3120136530346884 -0.7929145880938151 -0.16742355299471812
Ni 5.613688523731028 7.822656699677472 8.081639955640536 0.12043664272221838 0.4123447832562834 -0.5827636714338996
Ni 5.305241314770396 2.875881304777117 4.907163146027263 0.44897528999512354 0.2271111986633379 -0.23565471735797477
Ni 0.7054882609550368 7.374578824782105 6.868254084108713 0.13773296790882086 -0.08748718437939126 0.3541280657062353
Ni 4.782393295215441 4.464796653157395 6.883870564576467 1.862973013928327 0.18669705651234944 0.1224215343627311
Ni 8.004477926542128 6.889351174550548 9.354273610161634 0.8783549172465067 0.8471232129257346 -0.5942107369285766
Ni 4.60008337459484 0.2911121554511375 10.344315575365338 0.41862341717614354 1.0614650277385462 0.24598849518381505
Ni 8.425351849023222 7.2598986900536735 4.596876095574342 -1.7616232126342308 -0.21622617631971794 0.8880670023279479
Ni 7.402153822455522 6.02508721727741 7.18220995768497 -0.35754711869011324 0.726645946773568 -0.9737230470358713
Ni 2.2788785326996903 5.368509056396538 2.419289298667064 0.21031623859318616 0.5355541036276324 1.8108881203076295
Ni 2.3289605927996853 5.281892613097468 11.295694624566297 0.0629524324628206 -0.34131600154323155 0.4625013495060164
Ni 1.0570807936465552 3.583681811188524 3.8333436862511543 0.2076284073483779 -0.5784210781944877 -0.10056227239579454
Ni 3.651782191067899 2.5810179722548834 2.89580643519312 0.09654338104438857 0.5444786598107719 -0.4952240365500182
Ni 1.067044716337212 3.391960010823797 8.322693580691038 -0.2560139977406171 -0.4584248654437976 -0.5662900992589085
Ni 3.442159719420594 2.6240139728936756 7.03862992221145 0.38995330293496067 -0.3466191589236998 0.6594002862520322
Ni 4.095923366262598 6.665855230165025 5.847376447893315 0.3079955330142309 1.5674311332964168 0.7745422562342145
Ni 0.7367619463702074 7.4481905842424165 11.416771217566986 0.7101829161215382 0.10552912948276665 -0.29254937366248973
P 0.3075467454658811 5.473523914618501 8.09651525057844 -0.33450386371740454 0.6139663222889491 0.207922541550029
P 8.587815373221833 1.548932959236479 7.976445004719622 -0.8718315143056921 0.4644929260147484 0.8839972031339485
P 1.683106544896495 3.1901294896185037 10.443961137190964 0.9707922465423217 -0.014071647601717701 0.26335424015577225
P 4.001795518936966 5.9919012912949965 3.84167500980158 -0.2854929810363406 0.3143407585059683 -1.353151024959476
P 6.927487387282998 3.8383998566483113 10.28247319052737 0.24794998978556007 0.6263685526080438 0.1783211737438284
P 6.214519396896691 7.6293964189699555 10.386833742109427 0.16984938882739134 0.7038374335194846 -0.5405104191916433
P 2.384201086990211 8.468592196539987 5.814196856829959 0.011126963151096967 -0.1566539731830399 0.1727403372219412
P 6.967886071107786 3.95437412484156 1.351178505951142 0.277823894526857 -0.2338801419560553 0.8308093062570596
Ni 5.112234430825222 3.053856330784798 0.6162383013044853 0.7350328852856824 -0.17012398264501669 0.07546162067342488
Ni 1.4325966956684562 1.0222477887089185 7.103360125151678 -0.01882741711914822 0.05970924293517459 -0.3431000900268478
Ni 6.836698947289656 0.6561184267549097 9.23254814045166 -0.39046469535374045 0.16310564234565458 0.26315523677108876
Ni 2.681878933551314 1.6013679892725057 9.26097292226736 0.2827663261337969 -0.14787699832135823 -0.09459936994414031
Ni 6.3575980687761495 1.9052269068578758 2.586777318667539 0.5420217136298472 0.47796113570451226 0.13012018855856947
Ni 4.108719902760862 7.067380499864444 10.032280087252257 0.13757484506440176 -1.4003593072141627 1.6703189685015944
Ni 8.329242077020702 7.270677102337572 0.4304432702132473 0.1528302285615755 -0.1257662824652479 -0.1119067508743363
Ni 7.554200929745009 3.7681003548671836 8.162437323290112 0.7025541959316868 -0.49417682623242626 0.4332393673171055
Ni 3.268365739991554 8.513479623011975 12.325923506300546 -0.4978378200237814 -0.29804922043479637 0.23398015786902931
Ni 0.052149958678392165 4.764076329251872 10.369163842878269 -0.15666425759568503 -0.24165078704040963 -0.5841975756669487
Ni 8.583643376527561 2.3837666925404823 5.700630762867395 0.1712930632524534 0.6144656305228707 0.22042015979640744
Ni 3.5888040457415773 2.859808710137148 11.58722669465217 0.11889295238418233 -0.17840010661087988 -0.21004652987156727
Ni 1.3156631397320562 3.2713341020647015 12.786704703885173 -0.17079812589390583 0.5263811788791128 -0.590216528167519
Ni 3.148862016894258 8.392165923040807 8.131112053534036 0.0803243480823649 0.1721474408329487 -1.2748429359761915
Ni 5.5582851316218544 7.785353076307002 3.5306458688303723 0.21067722147703072 0.30322716509131004 0.9314042316630023
Ni 2.8094642033904416 8.495533702307549 3.5397066130609676 0.9684407155910095 -0.25761476656883375 -0.4079343128934136
Ni 3.3114522394740393 4.396433826631308 9.158479361830697 0.4304780025218844 -0.3899607591341284 0.5181425930194045
Ni 7.576879939974605 6.302212776435714 11.57285547827364 -1.3839333004476555 -0.9707133136752703 0.43423258446831026
Ni 0.7988622529127022 9.182374676519535 0.18848465672580947 -0.9308504160420613 -0.4944552767047936 0.7764191615419531
Ni 4.750338604779196 0.2128351805984255 1.6929636789515934 -0.34276687505714515 0.3971063690399742 -0.29708582808026257
Ni 5.9146967277400515 5.530293839267448 0.2643697471397017 0.47470329088884694 0.47350130016094577 0.3830234085843468
Ni 7.791289800453297 8.770632087367117 11.476944803727244 0.06965992638998326 0.6190560781070306 -0.08598077503719385
Ni 0.11240861375172391 4.853968830692648 5.8758274743736845 0.019601833391327532 -0.21205070478578963 -0.3115120308079216
Ni 7.910585376210099 8.855510952867272 2.4624291924673285 -0.3790631383850181 0.08028346754210045 0.05660592141950251
P 8.450311430113896 1.6204541954074696 3.5236656930162904 -0.351238402863266 1.0482950660154915 0.395682492109254
P 2.014992954373749 3.3319864271081 1.6412263950004438 -0.7539070964823661 -0.4236404107747607 0.18340450180400672
P 4.6555139163571235 1.0613070896470427 8.06744159205346 0.7156033158061611 0.24482249990017194 1.5711355787311974
P 8.628865648721215 1.6316308026036197 12.330082833156702 -1.1278627384374897 -0.20509381385198228 -0.019673824279843537
P 6.421834148029812 7.5645539974635465 1.3405023573606172 -0.8436514523270503 0.8509793534470312 0.7572767842855475
P 1.6225628184655287 3.0755308038493965 6.052759953702016 -0.14325338350641778 0.5912573107272076 -0.7587626248024545
P 6.958609939629199 4.096384910365435 6.080747626102674 -0.6029180348945875 -1.0675266605515936 -0.7222704434136916
P 2.4286631688968385 8.479198661020868 10.248206708351253 -0.8718744517284855 0.548991460079461 -0.12028006253969607
