# total energy = -340867.5178192866 ev
CRYSTAL
PRIMVEC
9.33842473090846 0.00000000000000 0.00000000000000
0.00000000000000 9.33842473090846 0.00000000000000
0.00000000000000 0.00000000000000 13.66772853612135
PRIMCOORD
 96 1
Ni 4.141712706219602 3.1551641785871225 1.4627474820816366 0.4209541221918492 0.2845223895929551 1.0794388386081475
Ni 5.485455974508836 5.086266338460358 7.021946194068753 0.3503673131122224 -0.9940000521173525 -1.0926635648285374
Ni 7.955543986577783 8.796058230435351 11.407455283435485 0.27686307327548443 -0.7432223630750102 -0.2825266993191651
Ni 3.4824759605484115 4.665000666675601 3.812859150358119 -1.433480001027531 1.3483967981039422 0.09955439995657048
Ni 7.2284822630924745 8.741316385475091 5.607923809982535 0.47076796039018276 -0.8846530915503925 1.3023411413964603
Ni 8.693074084031096 5.299117050193414 5.94409495535457 -0.33198675372250563 -1.0890812467939177 -0.15345552085040023
Ni 2.5170509493437914 6.686414730781292 1.9355005578562232 2.1859917598242675 0.7925651751741963 0.2988310929061434
Ni 3.5897557822651387 8.151594872469232 3.49844653428622 -0.9989949342287827 0.2652213752714981 0.16350210645312485
Ni 3.993362493145792 4.876151785132853 8.754384576849603 2.465032043256729 -0.9362199078840908 0.7480948606759632
Ni 6.55182001713199 5.913604065218142 9.266500979965793 -0.590294432593306 0.21148686186251967 -0.22268350190928746
Ni 3.238117404240821 1.3514007764549483 0.06025711852449106 -0.45580696820497624 -0.876428132537439 -0.3640113862582183
Ni 2.6666058191900115 7.8395700915655935 13.209790840447495 -0.8167209464847934 2.0061703473858286 1.8338958940567123
Ni 3.0498080723364165 8.446474305821347 6.354414125832193 0.1879214158377538 -0.43181806148954666 -0.6447784225737991
Ni 5.417285474984802 7.2484011227479215 4.815564086377794 -1.3496635806315078 0.13069097346037492 0.1824069137774278
Ni 7.13166147691916 3.1833475440067853 12.43043020387528 -0.4643805688066002 0.7608768429319799 0.009918801775608724
Ni 2.275923487945148 3.325300936234847 8.173711997273715 0.6492721966790947 -1.8341712592052863 0.9586106168744651
Ni 1.160000426010481 7.409059379434426 5.185317140426319 -0.3469570018790928 -2.9346208957371456 -0.12411409157380558
Ni 4.85144231366154 5.9867239297761135 2.578184945937502 1.5426199877900078 0.7785179530525108 -0.614739710119864
Ni 3.3509068964670248 9.402392800790972 11.480605030952153 0.29006800200153265 0.9467290349455308 -1.2995239836626395
Ni 8.96081605551789 4.800856067644869 13.19460656206036 0.7937034025436975 -1.125647733064042 -0.8442402349509847
Ni 5.567092482295016 2.501810640409103 6.052083563497855 0.1860249701459893 0.5312184523667561 0.30649786542278185
Ni 8.743053332449266 4.2477131637671794 8.447585578347834 -0.4594797890708731 1.004254382855509 0.22946787182097256
Ni 0.6691046589379089 3.059921586169914 6.597781875290537 -1.0420696539310699 -1.566713795514418 -0.3083878833566431
Ni 6.675526127706631 4.102323231289139 1.7412006265758364 -0.07270771207737156 0.15543989827028068 0.010497557097214179
P 1.4036025699260923 5.163327018196292 8.586258382016608 -1.5595746133664752 0.15298629452346557 1.710957053737931
P 6.81374415009776 6.70901371829474 6.416711690130109 0.8127807308901227 -0.3092072939341449 0.2884474356789742
P 8.023462348637823 6.535683219436438 0.06988129890934995 -0.7767364356720559 1.1702126641586104 0.27705256357847124
P 3.5627397199195183 3.7308313625815206 6.4226705388624765 0.3910653050522168 0.6043812497036752 -0.5755093038643314
P 5.64426522312606 4.174854775097794 3.7045147482378655 -0.08121086445237627 -1.13428483991375 -0.26144930982357556
P 4.532376360615281 7.062379704868639 0.6732303749228019 -0.7740524610819894 1.368308706536521 -0.011300512614483763
P 1.1828702278371057 1.663061358799486 4.175080764972928 1.2571316347393577 1.1300052387017894 0.7970586921691757
P 2.4763727718195865 4.680614512593983 1.6532625498747504 -0.6991536548905701 -1.9616385835220411 -0.17491960426144712
Ni 6.886994752600023 6.416721028554702 11.736108997010692 0.421197605661223 0.11962494545420044 -0.48647174427868467
Ni 2.856101131017643 6.340033885802459 7.755930491704358 -0.9324864089835876 2.661693152960326 -2.006460110712106
Ni 0.07395098434668888 1.5414377169089346 2.426007846465754 -0.9648262587668739 0.5193528112774217 -0.9641860540797136
Ni 8.789381256851831 9.09019992824467 7.627344120437764 -2.2211559664302265 -1.0221469468652138 -0.5698485060341282
Ni 0.9484477552957583 8.30870452781065 2.8971070872450384 -0.052954954930476535 1.0114295604477097 0.36258185290054334
Ni 1.9435409414302223 7.259046926783181 10.318533342367093 1.1046104527777687 -1.4504202284262957 0.31163390109776656
Ni 3.353839161789018 6.033967019788729 12.325680161380618 2.093152052883711 -1.3388580053755716 -0.7674372697583169
Ni 4.002579518218425 2.5524902706716968 4.137945585739055 0.9185129775226311 -1.082745534383877 -0.7555099221931117
Ni 6.736916930976633 0.9110352248514926 7.709665134746561 -2.519274092429745 -0.7511801844695063 -1.0107171077617174
Ni 6.6887493369293765 8.216636999754835 13.509087348631782 -0.7492487717747484 0.1392496616636634 0.6285156808580337
Ni 5.196618501867962 4.511504981651416 10.951376898612972 1.5394500747024584 0.9849171159794781 0.8585407107340568
Ni 2.4798466657679343 1.0733491842182186 2.506196898440122 -1.077610527150157 -0.1335873211715635 -0.19403498493465937
Ni 0.5148189431932121 8.976644685201896 9.730834532127933 -0.17064874480023515 0.5229356435326735 0.4895696664777181
Ni 9.156372004905945 1.8763042843654212 10.924095625008928 -0.3209847461850472 -0.6900542636924631 0.2922737514035999
Ni 4.89962858455798 7.855305337003674 11.999199499208046 0.10785854894689166 -1.012320190582779 0.3125888088118681
Ni 5.776450623230541 8.533321654530047 9.737969088516476 0.14617209981510954 -0.08602808333536152 0.6302426908514694
Ni 8.217075905710674 -0.25174618400258536 1.3928783231242567 0.5420898478636212 0.6293487182822903 -0.13852846722692272
Ni 8.773636672989158 6.089110417006458 10.35762305386814 1.0157011912398701 -0.635276396620635 -1.0880759454578552
Ni 5.871039525926286 5.620545624661533 13.652912161148146 0.05150459563719517 -1.1012191677080325 0.06207234385071245
Ni 7.999331859491234 7.07055082638693 2.3987275067041702 -0.747402462594629 -1.1651198230167352 0.849395039679047
Ni 7.029536465577402 5.675138054828315 4.337084688643189 0.19573551256553384 -0.42955009139097633 -0.7102567067822672
Ni 8.659679877688912 6.612510438557565 7.795812101610836 0.12390968887248337 0.6774566295331107 0.6720915085664554
Ni 4.263130902769122 2.3878071529858955 11.207441170147051 0.9071098778920119 -0.8672372100667903 0.9478765182864127
Ni 2.7829158974875257 1.736283946027973 5.9166231778888445 -0.24001093744414145 -0.5702696527319469 0.4478188077931771
P 7.454126616517028 9.235898028734258 3.5079315721446536 0.3634781394625676 -1.0297802950407553 -0.9338552643066563
P 7.754384982434327 7.884656005497379 9.375570043834413 0.9784603046105407 0.12824379747146303 -0.04645906279348773
P 8.158169123382235 2.697824172602183 0.9134837597796025 0.009949397903228026 0.8125141074922975 0.6238041343149774
P 3.184346755438165 6.672995414642109 5.058248263155979 0.6170956119465502 -1.085746011773098 -0.6645548338697781
P 5.901837650231802 0.46841911292128463 12.06700486633052 0.01725621597728641 0.2869001457965123 0.053305910511992065
P 7.856958238156518 3.4770036437373046 10.441023590059812 -0.8928667377094365 1.0984099803940115 -1.6770758276094535
P 2.069675042398871 1.4069083722317783 9.613360886126214 0.6339921305915726 -0.37854531820833515 -0.9288038179256778
P 4.419960405372771 6.75903965883587 10.11959968480399 -0.3621020850506474 -0.5179222494784822 -0.3777441624632785
Ni 5.910597092499411 3.253983387623196 8.945842825526544 1.077380927637854 0.10972979782767554 -0.05000050028784292
Ni 0.8375408894673689 2.5291161939170856 13.431823091239734 -0.843738869834534 -0.11922745290546563 1.6845276559018085
Ni 5.079178474194776 7.427810936015832 7.733719982653952 0.8256020510245071 -0.15633104262598238 -1.194697793784168
Ni 4.618952895010804 1.2227079471480005 9.261238777708014 -0.49707497371582776 0.7821776612922852 -1.1392933488719346
Ni 8.39982887498264 1.9827249710196537 8.586873784197243 2.1124535814258003 0.011816533018953844 0.07080535284833613
Ni 0.3636307828857921 7.148059750503298 12.193377097126271 0.03595842037248001 -0.4019351578871852 0.8319647600177414
Ni 9.398470662462191 3.47654606093228 4.289356934394231 -1.1473424444286562 0.28072821265784553 -0.8381415782524145
Ni 5.924726128907611 1.1215261166900672 1.0105342711978875 0.6487019259979215 0.8133520300125605 -3.394960461705153
Ni 7.842530372161363 1.524086924016379 4.842831352344948 1.8176732615502629 1.1312074865400066 1.9384896562094032
Ni 6.5366544155940405 1.9100813661158915 3.056732514171632 -0.3881669004584992 1.4422099247013613 -0.09507425269802981
Ni 6.916214683149435 1.284248165211478 10.259680722901289 -1.1619362830824311 1.0512685468215186 0.6549851879034719
Ni 1.1264474664502269 0.13179972316881713 12.075861428213889 -1.508219141712635 -1.419695031428297 1.5157565877402606
Ni 2.953687668007528 3.6717471501858268 13.0514092916766 -0.4409094822678536 1.08889381337346 0.4883126541421655
Ni 5.674661795174106 8.53200493666253 2.3561386875083747 0.3779112841687621 -1.1355071423566252 -0.2858778751795851
Ni 1.518231731796986 0.6096450418736031 7.604601321185593 1.5013545533823174 3.1695670170638706 1.574200076589134
Ni 0.7346118397682099 0.12929609153561253 5.471096279013206 -1.0390488648268752 1.47888568285584 0.4691260539113856
Ni 9.312164942379844 4.37942230421745 1.9257970008623293 0.8625734860425337 0.46900598339375354 0.4224795576974401
Ni 2.9353563405327776 4.320263384425019 10.596603611453007 -2.127728505307 -0.45831636489039124 0.012091126836579176
Ni 5.263789789960617 0.3507073370924618 4.647874929815721 -0.02363435158948833 0.6205825420538861 -0.8907396640641048
Ni 8.144002733275665 1.2051423704898212 13.108786440056814 0.03695086619273636 -1.490270527654014 -0.1872426446031743
Ni 3.465153182929633 8.645980408811958 8.858902092571919 -1.5714963045047257 -0.42040133501217275 0.5248274612387478
Ni 1.6190026715728567 4.77989130443508 5.414880830652276 2.0877023426230497 1.5229412784141578 0.14408050739340347
Ni 0.597958937338757 7.023074275759507 1.0137924475381526 -1.1801255523969483 0.20425357733887403 -1.4731125278174888
Ni 1.9411316278854003 2.115218539135681 11.564347353483903 2.1339585453771117 1.557708249581698 -1.0357406263892486
P 1.3047273303424656 0.11799473009397055 0.7824404490027644 -0.19941347563775333 -0.15765001854772204 0.16630358045766197
P 1.2975180665571842 7.917545936911577 7.622683312723729 -0.25098749106030327 -1.4809713617402753 0.2046451563503379
P -0.04327052419103644 5.949118093942786 3.8534654220129627 -0.02858861027097012 -0.611068946136496 -0.04694705817349979
P 4.646781400295958 0.43379970527258593 6.6599561723838345 1.0121129596679794 0.9435709489325234 1.8799975735107815
P 1.5286627520666225 5.13334133683031 11.991286118208503 -2.0293136182715115 0.02759693578166215 0.2297164974966689
P 5.087153488796629 3.2244833043360144 13.149789594756832 0.02950186611385887 0.6224604758028893 0.11226953353039375
P 4.510617831315144 1.0919139723077778 2.5309764080958788 0.13397890018302733 -0.576298118314214 0.46034470817432976
P 7.814337668317108 3.016591296061486 6.695532768553247 -0.8190467664044926 0.035369380638229406 -0.29765584165111963
