# total energy = -340867.38328688504 ev
CRYSTAL
PRIMVEC
9.26356661862050 0.00000000000000 0.00000000000000
0.00000000000000 9.26356661862050 0.00000000000000
0.00000000000000 0.00000000000000 13.55816612201563
PRIMCOORD
 96 1
Ni 6.005690688973253 5.949599792875638 2.7866235088294773 0.2943835986577511 -0.10020231795321452 -0.38920356925312966
Ni 3.285305387155566 0.4388781447130445 4.166763397817098 2.4988127392516 -1.8941730936802152 -0.7793623033306771
Ni 8.871171235312318 0.5345216913586341 2.936983238281041 0.43833169423834834 -0.54809363085554 0.6474819375478913
Ni 0.9734433748349584 6.71554853819937 -0.04125344138588088 -0.2854371880977407 1.2443846194863344 0.7921376007184745
Ni 5.039278361229639 5.193183257640172 0.5821892262966188 -0.14416124003266786 1.202523460476174 0.871301609944151
Ni 3.840211556939105 5.298991715976581 10.990059258853824 0.6188185081749278 0.6616307182444476 0.33051196894919205
Ni 7.2299173402994805 5.244846168876571 7.55349835535113 -0.5363652866750181 0.9215167973459613 -1.651315687926214
Ni 1.21198021620797 9.020342449162012 8.145692233635433 -0.2774608547604835 -1.6130838981385252 1.1014284555053613
Ni 0.12591225069166012 0.33848238837330513 6.350468597245475 -1.1940478189049952 1.8896446096822426 -0.22925395603795357
Ni 2.7276108838087922 8.529095509433438 11.727339118092848 -0.6897246482671863 -0.2937007136581135 -0.5492380288726283
Ni 5.185550078716235 7.5777827953379004 11.987832465152163 0.7974944941550136 -1.235386786863098 0.3949060189545457
Ni 6.00522751064049 5.339853308492944 12.170812918223568 0.3673201389164771 0.4563924083948011 -0.2811575868857803
Ni 5.95143397907338 5.740020860866978 9.571794234939803 -0.811159650346932 2.5772714948801356 -0.40300679368480913
Ni 9.0375726831408 4.990811380489306 3.7463243825313537 -0.6385784644106745 -1.0104975355517436 -0.8973615402559965
Ni 8.930152364206375 -0.16979654500763555 0.8096783380765642 0.5819769138665462 -0.7580630276322687 -1.519738455206144
Ni 8.72500141705893 4.983669170598097 12.18201257030978 0.05432843823923547 0.332273431724989 -1.3735046489151637
Ni 5.061538711902235 0.26771244455376114 11.009055128637105 -0.3423938079884426 0.943728300445994 -1.996584760579923
Ni 3.8117909344407597 5.8108315643798045 8.10463795893264 -1.297743494723449 0.4824441111765304 1.1706926891188225
Ni 4.922094243040568 4.71139441946662 5.915468181534323 -0.1224708995434278 0.8292082803185268 -0.3904631526918437
Ni 2.840107637270301 1.1297567985758592 6.388811425988273 -1.0142397762029953 0.880629057992664 0.8352981952663484
Ni 4.7209914745214725 3.1446010732287824 10.207550035420478 0.032851242202066006 -1.817752708637947 -1.5354370968883233
Ni 6.742542571432804 4.049790488947766 10.60918401039604 2.84734916980267 -1.7796947254239608 -1.1649290471621678
Ni 1.4114525969957392 6.520615305072679 5.192004931961622 -0.8714898146955571 1.5943894070528153 0.033317383205207135
Ni 7.497356509636911 4.312847991257258 0.48061977606165773 -0.9760858908410933 1.4244621137996372 0.8589217482225594
P 4.416535092829612 3.490891721935808 12.271834891669204 -0.27894978060118414 0.22689162645336408 1.1936122740294735
P 5.758288614311155 2.5509083498596583 5.291874517715343 -0.19041512879388495 1.045352952668032 -0.8419588951159757
P 7.272650173280207 7.092751708835007 10.895016917684162 0.1539237187360704 -2.1165300654880195 -0.6500538120401257
P 5.62103034718013 9.031329039215153 3.9254687926508143 -1.7230648927450583 -1.582479800099423 0.5119603754680925
P 3.517200251236754 1.7967799155880417 8.414848868230749 -0.24557326202326743 0.5984674553224015 0.45097457981333944
P 1.904348451588951 6.85704025529185 7.515657611921047 -0.3939092022589152 0.08597177617612935 0.574052773923463
P 7.1646462496465 0.22416627042070275 7.108939791565079 0.04582451453328237 -0.4088683946719087 -0.5255684531698303
P 6.34439447658962 0.37333933698372723 13.017846588837479 0.2728835198024462 0.35574426115341956 0.5279845188104907
Ni 7.800580836963621 2.5764387395615618 6.09697202208088 0.8524772781487964 -0.5613960043914008 0.5979678899781637
Ni 1.488988649900287 1.7744825106488247 4.018911315859114 -1.243953959706819 1.0005656211500122 1.4122036081472582
Ni 6.58625693839187 2.576346103895009 12.378551179537828 -0.6982108313613266 -0.5893942893765398 -0.8488962456657574
Ni 5.121835267261339 7.172890823969683 6.928331737914085 1.3829382835242376 -2.1603414062460145 -0.03285895551154986
Ni 2.7334376672349525 3.9716615677772813 9.26025493018333 -0.18848345898881086 -0.5169714555294388 -0.36552113803452535
Ni 4.617832396248468 0.30090009845290483 1.7620739631141007 0.349102844577502 -1.6222069434857158 0.276772056223575
Ni 1.3134162710830952 6.090637595202011 2.6006731562883947 1.1071105934918029 0.6082546166161524 -1.0435971463191898
Ni 2.6835348336630527 4.883798658487712 1.0001048460254696 -0.04431861941171722 1.097654590285226 -2.1760248784195424
Ni 0.603891910256568 4.366372879391365 0.7191130786713896 -1.5875531008572723 -1.2646071171807962 -0.07157488402450898
Ni -0.4256192017593672 6.498280845866841 9.200693902016653 -0.5543977186966969 -0.8192326571630537 -0.33176486751968665
Ni 0.6408350140777552 4.904576838495466 7.3617592000071745 0.08587356003536824 0.43912050868823077 -0.07154094546278
Ni 3.107806186474079 3.6060100647607567 6.865787841284415 -0.47379157770785496 -1.0468115394914295 1.1462152728027484
Ni 0.9911275235798547 2.6035346720282053 8.437219455346543 1.6562871729988766 -2.3404363840608147 -1.1391678790376638
Ni 2.7808949192098624 2.497902221458246 13.603450365803228 -1.0215738479705632 1.174986688508486 -2.2489007406436623
Ni 3.369325936718797 8.848160535740647 8.38858665676308 2.2974308270335664 -0.4454045419247296 0.44229864930589635
Ni 5.670451475285955 1.902514265391209 7.360944932498176 0.03810220618836019 2.207528862565095 1.71560200870911
Ni 8.527946827168185 2.3971794612155755 10.750473781735437 0.49642114218191274 -0.4254679509018028 -1.0613405863455398
Ni 8.018330234762225 3.337283259658244 8.373604690411524 -0.676841364546615 -0.16616319822505576 0.8341918495760472
Ni 1.0040224083639802 1.3714154619116945 12.309296755223086 0.16866668137319984 -1.2168866711763815 0.23864439611391802
Ni 6.191619735311028 8.19808048214094 8.93519730260683 0.5377518826098997 0.3696289895553118 0.05873248084420209
Ni 3.6739490626104523 7.506156897959411 0.23194210827113018 -1.8596588619534296 -0.2245902320136971 0.28436041009379415
Ni 5.994018594987622 1.6953623878462272 3.1778174441845572 -0.26579704526931003 1.489962509495292 -0.054845744195286185
Ni 3.6656489068873372 2.6591068083931257 4.5924354019064 1.1536871556997614 1.2561188772041272 0.2574687279092727
Ni 3.0202191637485716 8.046834229360467 6.0168162325262236 0.047759012551833874 -0.5119909715957117 -0.18261054514780165
P 1.2032909906853337 8.919351045486339 4.776677552756252 0.9689634208636989 -1.2636861480284234 -1.1860097790918671
P 3.580655682825303 6.159641903217062 4.566363093555164 0.15701829850099408 -0.654847376774027 0.6459873552802359
P 2.3972813604487837 5.517713788273986 12.55383175600538 0.08681792622650854 1.41915689953664 0.12310801890679444
P 5.260084736024479 4.246381900505749 8.14673623759748 0.6121891757838683 -0.9441124232582901 -0.6580957085079956
P 4.301212951538248 7.5183662788110475 9.953212328403586 -0.8021836721005668 -0.5882059254953934 -0.17324992986850807
P 0.7332650294506342 0.4859120516918092 10.138756010368503 0.3185211151359031 -0.16572431091542425 1.324756275866867
P 8.784121499452816 2.7902418579650226 12.79130236085637 0.13300085254047417 1.3309482636101917 2.4423248314672006
P 1.4228931018149884 3.6018321961992332 2.8201122286449167 0.592757806532134 2.0464975862499655 0.2880746257205878
Ni 1.5740930367621844 3.992967771084385 11.378866899438508 0.04222599854874663 -1.6811307144051175 0.791792815784546
Ni 7.021524144822693 4.417368813828586 4.77034590494738 -0.6919702497682535 0.41210824176544514 -0.07488723622719361
Ni 1.848822633057307 6.190183882479462 10.046343595772267 0.3620766311293506 0.06427655059088284 -0.9762450421267769
Ni 8.804130803428183 7.590047757589468 3.672120434552703 0.3465301987543193 -1.0083185256225538 1.4710620730463633
Ni 0.9100833579829589 1.9250803137634285 1.717765397445314 -0.26811129522478344 -0.4531145089744777 -2.5212600125115223
Ni 8.091771791205145 7.488259687181443 7.027305536772243 -0.20892475756229825 0.34088508465340006 -0.12004403526949001
Ni 3.3428506632180572 2.2041637863865247 2.0973808008379815 -0.5308633830201825 -0.28384593235122085 2.8712151777869903
Ni 8.223490445476324 2.4751694288862316 3.68512277671003 0.07086114578693602 1.9219484640212705 -0.36101065175868147
Ni 1.7582805325687705 8.58421373103225 2.703131908922261 -0.41326780929118506 0.10409573947034975 -1.465770742740437
Ni 1.867840735400561 4.361898576696873 5.03650577572972 0.26457217172327335 -1.6006616132147722 -1.4527627605165434
Ni 5.146216974697991 -0.05281066714498648 6.411521059643648 -0.6030928699095549 1.1552347026925396 -2.045181181431387
Ni 3.626630764135371 7.088397832507034 2.6422971403404856 0.8594876480283584 -0.19986239024971386 0.18462629002624978
Ni 7.047286123690978 8.504454422130438 2.323191354339994 -1.1417358968751563 -0.6509395570791886 -0.6685122758556293
Ni 6.520948793472269 7.17839338256291 4.816240393227547 0.25677530138667387 -0.054922105959176376 0.34220611745766877
Ni 4.149160768458768 0.7567592872017113 12.9967089824435 -0.14089465346625413 -0.23441364586202212 0.8563321331185122
Ni 2.791316431697033 1.5431434605669523 10.652583820175945 -0.05413971926719708 0.1058587449080435 -0.8623878523942891
Ni 8.508132058092578 1.0332767518612995 8.530635114211542 -1.4138213462563392 -0.5487703452075904 1.1537393490939356
Ni 9.49904651963936 7.275846103776272 11.320309115540597 0.16014244595227262 0.4577859463082181 0.6199554499928485
Ni 3.9052417948590485 4.5044648675213645 2.5832780308231427 1.9116609660523336 -0.6269650485414622 4.026018706479383
Ni 5.08446603937401 2.873752911362215 0.7209333695191487 0.17483990006344727 -0.8517766525373459 0.25728592247450527
Ni 7.403044137519683 2.0654789299905882 0.9285595416768802 1.0558636223913687 -1.9814556182479681 1.2492650875070872
Ni 7.512595076784818 6.9783929784757905 13.17049719832289 0.6479557918605163 0.35863238133449205 0.48963445827738256
Ni 7.504248603228426 0.42876510899549436 4.8307878983029715 -0.715099122476233 -0.5186012778233778 0.5323319971459091
Ni 7.978580270244492 -0.2448230977052728 11.215152812296719 -0.4544743654364818 2.1890470017108234 0.2301183609207779
P 6.458466036382522 1.615528970411174 10.267707637279754 1.624804529009563 0.9353375052791376 -1.1054283206933737
P 6.352129554746763 3.7555147670100397 2.311925004573863 0.18699221915526507 0.7425703313133082 0.4503487733038825
P 8.59340318915427 5.89572288920863 5.578412382425928 -1.3019619036801706 -0.13958570484684346 0.8135955134819343
P 0.3927455827698368 4.1428059617332575 9.636140821640588 -1.0191040462738319 2.839922795431612 0.03986315474352489
P 0.9082287919385752 2.7659435226282687 6.248158988034758 -0.068881653463062 -0.12665228461462705 -0.40924428995408874
P 5.689979073795249 7.4181252240344495 0.8470901783705077 -0.2583457311975873 -0.5359639374715415 0.9799854830058156
P 1.9961318700092927 -0.09288485649565242 0.4547994367234443 0.17609871217121287 0.4216192665796739 -0.6925178947416073
P 8.591578266523184 6.80782292565244 1.6446730774652958 0.5466615263947037 -0.058691086083305366 -0.16327713492651236
