# total energy = -381173.2168923378 ev
CRYSTAL
PRIMVEC
9.11180332650066 0.00000000000000 0.00000000000000

0.00000000000000 9.11180332650066 0.00000000000000

0.00000000000000 0.00000000000000 13.33604520353206

PRIMCOORD
 96 1
Ni 7.049893404359885 2.238997889113922 12.884620306782917 1.1650761142629935 0.9184700400998376 0.12115320917326877
Ni 6.424058300011932 5.092960501126156 5.3745197819179555 -1.2214370095512255 -1.0305225725234186 0.561500134069433
Ni 1.5683053766548378 4.494278570893819 11.579848330264534 0.9963173873966197 -0.7298767950060397 -0.6144028956057354
Ni 1.9006766290760753 0.29931727442734307 12.713398586836158 0.6380734997497979 -0.23747171596205555 -0.0011582819741592955
Ni 8.045986639643411 3.5208555024558112 5.1739325419913955 -0.06740018382152908 0.28526980928194096 0.5762114721376785
Ni 3.152847986958678 2.4237397029374437 3.947629593945783 0.36841954262824295 0.19644847947215843 -0.4543951754591142
Ni 4.146134786796699 3.9656299615516213 2.3051750948075087 1.5183099502897335 0.20114665627877615 1.2906696185958029
Ni 8.186445088969656 1.169518189291078 8.985147504957414 -1.1858925367877124 4.209175353938641 -1.461712513510663
Ni 1.768664821496535 8.322338524795253 1.5418064300229481 1.0008008770892698 -0.11248036398961919 0.0043297377236054466
Ni 1.0553199573477887 7.673113421133616 6.136674754490368 -0.06393150854663829 -1.2657826255461362 -0.2078801183478678
Ni 8.556238517932112 0.24140447441256935 12.302421628891231 0.8618201528162771 0.7657241437219522 1.0388673449436883
Ni 7.443951565761899 0.8276205464208891 3.0668371188162795 -0.30046322919292767 2.100169364741809 0.6426690895402802
Ni 7.274617811478479 3.3481139337028485 9.305839247787581 -0.6915928118241768 0.05351519830932074 -1.014147730709821
Ni 0.8648340626643735 3.2002111410032974 9.045933256582476 0.6001029340432955 -1.5744309616530174 0.18658829884862702
Ni 8.833036881450283 6.7587530622987675 8.229847342078687 -0.31249624909806184 -0.38439740611373796 -0.23545905640740095
Ni 8.686172834337706 8.279385483593574 2.117204057860976 -1.3456462319419986 -2.2890819408482384 -1.107420411422738
Ni 1.267378957748026 6.596553850073243 3.423176058886414 0.3673977862319479 0.36878566771841004 0.7023122551242098
Ni 6.286706975643214 2.0569258336849896 4.666201899701956 -0.7356286098881524 0.19466259121632928 0.3535112580578428
Ni 1.0377250649930059 6.823045947050371 10.950346636230634 -0.723824675274689 -0.9416408217893459 0.5353756690682392
Ni 4.26671128111614 5.7553703842996375 6.71271203092669 -2.225435310531871 -0.00800950056803782 0.3992336997956221
Ni 1.9163671545214072 4.159547361393406 2.7923540645406506 -0.7517617680045892 0.7846451489961712 0.5751925439548611
Ni 0.25783396711319534 5.783416515147914 1.5713733208577665 -0.49254237595279693 1.4127373691635412 -0.14624254804172876
Ni 4.010405363432202 4.693471704901019 11.962965949330771 0.33318411646471646 2.1554899916909847 -1.6119626400498883
Ni 5.749866855049359 2.9420373036234873 10.981699440530775 -1.2568279874560095 0.11902356442477567 -0.17861067995978916
P 3.60562260943486 3.3362959247001798 9.56543817121829 -0.38723641822442983 -1.2275035274602795 0.3622617505569632
Ni 0.37834394526785603 3.646889967008558 0.8229580366239226 -0.8660154218445473 -0.23287535484062474 -0.19390848665912414
P 6.929316910040444 5.288873385911336 10.390872796004837 -0.01778303501503389 0.368805722323068 -0.9927875198664903
Ni 5.328363941823106 6.516634222500069 11.225495763334402 -0.16793083164843983 1.1996034586159017 -0.06578218860213186
P 0.01689146113272719 7.407713923661966 13.221248593750065 0.6074645166146893 0.28536545431954075 0.5782429007454106
P 2.8821636435182167 0.5577890677781535 2.8898813409933597 0.15526146371088745 -1.1640846968840017 -0.544340848681327
P 6.923667591935853 2.493909700878501 1.7199230515983273 -0.2696004781758002 0.0678195307471348 0.20501385254366628
Ni 7.975269933498685 4.5969503715430635 7.549441647201062 -0.003749696850419349 0.35690048624504983 -1.2462193587022279
Ni 0.6250615122397593 3.178935080077136 6.734436392579861 0.36264767314147217 -0.23014767149681656 -0.48236723519200797
Ni 2.5458560920305544 4.385674986234753 0.4934588246326323 0.11197514221842651 -0.64555206751503 -1.2097382330570585
Ni 8.554571057910918 9.046945577939605 7.126408862184873 0.5023367363353993 -1.10115026214331 0.803313671939952
Ni 6.636645785009051 3.994332142244301 3.385048628762461 -2.1550467335059786 -0.08970167553220681 -1.4680587674436651
Ni 4.906004519077771 1.3505059401160646 12.775558398413109 0.11843349624926053 -1.4869841435932585 0.7469388926946491
Ni 4.046150968148832 0.609770994963446 10.753519837564987 0.3811552450273565 -0.7286439510402032 -0.10808969112109126
Ni 4.875498201312979 3.371604162853874 0.29878970101080143 1.0964939943182213 -0.14535243212729163 0.30513852318141
Ni 8.62509641618436 8.346876611336645 4.555939966825091 0.116808816161644 -1.136766725795339 -0.872773309393671
Ni 2.164727579645339 2.1708142643128663 1.4057662941626987 1.5537626346703886 -1.1811943599810948 0.1334759924046798
Ni 3.9961727265299904 7.588574109239429 9.327003233531988 0.6520896115232319 0.21942257176982857 -0.9593564939015542
Ni 6.037608494444328 6.279399309320824 7.919517542068748 1.79168223680314 0.6365794317027746 -0.1781512238248674
Ni 0.593936503024481 0.9605754256517602 3.225135568008618 2.7995883574786236 0.8251104561000693 1.0752664523980127
Ni 5.445186373144013 1.683515018774917 8.582971637911239 1.6125092565819774 -0.5324546387667023 1.2396869569003488
Ni 1.1915778653091664 1.3384692478319278 10.66018125713273 0.8252750067023916 0.6717325825651399 0.1720510244644005
Ni 2.156080478223957 5.2959076981318916 9.11153277394085 0.5156913032654344 -0.30164850775028046 2.9172150415558726
Ni 6.994657652182416 8.044783881595338 9.106492124303012 -1.1295259850725259 0.6988608062404996 -0.2883687599222388
Ni 3.2795567249626183 1.0831382931112021 8.586706566122645 -1.9071404524741606 0.6748983818876313 0.6548471196637109
Ni 7.301506743295654 2.1427407980544064 6.945039326797657 -0.8788593676867509 0.3666645076103492 1.2165231171893758
Ni 3.3844244702299378 2.6421314066968593 11.798958955311777 -2.5047805267992604 -0.9189922311518948 -0.9236621258237382
Ni 6.536971767676597 4.736324516265361 12.38449164206551 -1.516145595648563 -0.17602646417238074 -2.3593872141317043
Ni -0.0814121409691935 5.02111393136051 9.799792843344534 -1.4512095570968102 1.7680915939673936 0.5182318102991009
Ni 4.567564805595795 5.177581819250893 9.224048966977515 0.668983559065093 -0.6615551278115058 0.9032596509079864
Ni 6.7359917774193026 6.81794333714945 0.32328313971556133 0.7915490752048562 1.3975683747325867 -0.09095251722017239
Ni 2.871174808624448 3.5550065415784036 7.312646834125771 1.0562713993527486 0.04695014349729333 1.5283552503408775
P 1.9361215442806867 5.8831725387109195 7.2831473706360725 -0.4566070955087685 1.1865221999519113 -3.8147385613110307
Ni 8.736624889733061 1.3829621838072794 5.428356872274368 0.9300145504043272 -0.16395873437456923 -1.5828256134746157
P 1.2179474243328543 1.284582042556845 7.800519212097234 -0.5471513215469286 -0.4155897725561423 -0.36168582344883515
Ni 3.172802836392637 8.751859825008667 6.79078105123044 2.5235516367591764 -1.7707567995043825 0.6057876431328987
P 2.4143818808512902 8.268587996571089 10.623413308075236 0.407797273094917 1.7300050715083175 0.029548660191394273
P 5.656981131245809 8.516820856447497 12.237528276295933 0.7420854212570897 -0.8804138566580644 0.03512255473474596
P 1.1564063042063901 3.0001614974770137 4.508410066778351 -1.4259734082378408 -0.2598634533936944 1.0023288836980222
Ni 2.9293992323153133 7.439085862749234 4.814939333592442 0.08630833357994169 -0.2930602518606372 1.8120577151356987
Ni 5.588542375949708 3.739392995069539 7.296750381923724 -0.295669150238394 0.5831794188150794 0.08018010919501675
Ni -0.10210140175674899 8.748324445291601 9.924937995885978 2.10258337349994 -3.6216978219688394 1.6785339002122186
Ni 2.3556471961703327 4.744789381618853 5.312080237976793 0.8234814051370787 -0.47936778624405196 0.0031961383397944958
Ni 8.762520634980236 3.656329795325262 3.0115056927031683 0.8168369032373674 -0.5278683049476005 -0.4647654629498447
Ni 6.1870238465073655 8.160193983390096 3.419134974080952 1.5692144504490846 0.5046990659199888 -1.1959015842842824
Ni 8.825765662341471 5.285356229801059 12.670430055568707 -0.37399832226760105 1.504170682674874 -1.410693599260635
Ni 4.003289044981097 7.589585519416219 2.9530671416325314 -0.3380180475182501 -0.12856518536662376 -2.2973030432064503
Ni 4.355141333059778 5.398461045337008 4.442009621901599 -0.5513905564392569 -0.34826543627787115 -2.466661351330036
Ni 2.5134454073563126 6.609292151218757 12.971411145295885 -0.5857703194707072 0.54169544063868 0.032467890720718276
Ni 4.3223206172327835 1.793184684431139 6.505336497471227 0.35370640478778437 -1.036385716172415 -0.5775641295108311
Ni 7.738135250156779 7.429518469185008 11.378913930628645 -1.0994173386126032 -1.6309024143771849 -0.09965570142112515
Ni 5.421869268257483 7.244302841584973 5.2532280110320455 -1.0627312960454796 0.2791323289256354 1.5887849163818444
Ni 4.960155966651294 1.2405629203580073 2.1602527729982994 -0.5263984052702935 0.5928984458750564 -0.1538247312643609
Ni 9.047437615322908 1.3872356195993008 1.1048963684369326 -1.0988923193470688 -0.34294068163084807 -1.0842432019753263
Ni 6.684701436111653 0.30974299987133186 0.8908755967658591 -0.030312534940612316 -1.4997802669166624 -0.9145231396369476
Ni 2.0696094640101363 0.8332871769519298 5.390723301894398 -1.393654127279845 0.9820174258341797 -1.0596349165083427
Ni 6.807291638981278 0.7687482735086744 10.895322277891918 -0.9728869242878213 0.024555320741860936 -0.272419435681834
Ni 1.6125705175453269 8.034432872939185 8.348270717256005 0.8492443730337955 0.6402142002418846 1.8293355283795398
Ni 5.90363764913497 6.097454819139415 2.640790149237189 0.6645118964469846 -0.7210774515468549 -0.34112471146803186
Ni 4.705435502758 5.760573224037899 0.5799325723874714 -0.21613233105433102 0.5331226113680044 0.024574861125886707
Ni 7.619299110285688 6.686651362038075 6.0238387371545565 1.4314112914239605 2.2565073493463266 1.128100822590225
Ni 7.32078731927842 4.5445119430077066 0.9506490270337901 -0.20244352071332877 -0.9653656762101116 3.8243382891843236
Ni 0.27864350370555824 5.376437816532498 5.3203883803119 -1.367944895439199 0.9595341571299992 0.02018675936052007
Ni 8.53095326351237 3.2448316422261723 11.19946425221665 0.48594363968935667 -1.2740564355191542 1.353832881517849
P 5.499201143666618 8.59009797934608 7.5053131833614914 -0.6062715247478526 -0.04504109940003856 -0.12654275561995626
Ni 4.537432071770179 0.39657028559787766 4.378743637392556 -0.9052244879438409 -0.37569782145721103 0.8813880476458755
P 8.028637765980282 6.34857612069188 3.525316641397759 0.2743621612305017 -0.052851082362760586 -0.05106288011408626
Ni 4.086361356528768 8.431452370444411 0.47637692680896004 0.547767614974689 -0.2712202731674103 0.3115966201019279
P 1.1900926413558628 2.5030032806662135 12.655347287409786 0.5400589334765216 -1.506051958857987 -1.3671779353661875
P 3.023369260722809 5.855773345903652 1.9363538952672463 -0.2685836068755117 1.9776850954619425 0.853406217720969
P 4.619738991832712 3.387695607648564 5.176052858641296 0.795311884681398 1.3090031267976683 0.521374983913773
Ni 6.685485051203579 0.002710761509864246 5.6786079966026595 -0.5582980821923674 0.19052902866392993 0.6961038123206528
