# total energy = -381166.41014670796 ev
CRYSTAL
PRIMVEC
9.20725422085619 0.00000000000000 0.00000000000000

0.00000000000000 9.20725422085619 0.00000000000000

0.00000000000000 0.00000000000000 13.47574723573986

PRIMCOORD
 96 1
Ni 0.7211130745750499 2.923183534081403 7.339821459304783 -0.3416985816936309 -0.9709737664255084 -0.2512114341456512
Ni 3.2673414911644603 7.6103480833241175 10.78410151781059 0.9353372481688215 -0.3031361480394005 -2.331040287557895
Ni 3.377018303940976 4.969265612595608 5.737690163199212 -2.11690724632178 0.10223966009821747 1.16352496772579
Ni 6.376060405892234 4.515246697650782 7.998785567607042 0.9592657339599608 -0.28938383145031454 -0.387388627531578
Ni 5.2168118507008305 3.473887826038166 10.150701350968541 -0.8293304077186878 -0.5492688821105637 -0.16806221501998153
Ni 5.985543923596805 1.9147313892034459 6.045934304305433 -0.16528465227484437 -0.5117027509313317 0.3180737431858393
Ni 4.310689129697806 0.530022957432031 7.611560678710507 1.675106876808541 -0.7611879464144955 0.18000396076289
Ni 4.515845169177854 2.741386298665662 7.9194402125479275 -0.9010580152709772 1.2851764566917157 -0.5837944266912591
Ni 3.7967770257745355 0.17734092435262513 5.213267978535142 1.6086256052568553 0.14120370006624067 0.6043851063584172
Ni 0.1705266354728485 6.076530010220171 5.0309680270366615 1.4665991521790034 -0.05363218350315925 0.6513763875062911
Ni 6.665177396993256 7.447978154402538 13.34927754294708 -0.2565809259876807 -0.6347310656401263 2.392248483636099
Ni 2.383896237410308 2.511527195998963 2.5550554112509993 2.240899981826373 -0.11052761113862254 -0.5045977644554343
Ni 2.750022703164014 8.245215886495632 8.273354176247674 0.4289129720276097 -0.4538824974887538 -0.5132094173838452
Ni 7.492421570728281 3.601251774253204 0.22861888551752182 -0.2803608020160978 0.2539990241931174 0.3471655183454731
Ni 4.0767972496640725 7.095478424957532 6.400265356623277 -0.2856261641800952 1.4157573869367877 1.11049982167901
Ni 6.622750369351031 7.868583943628259 11.287811063285437 -0.380530466959164 0.9578359434919697 -3.1533402707923632
Ni 4.337095534923045 6.206739000002364 12.585296413250624 1.7679512117347873 0.2083071785829574 0.7341625668655873
Ni 7.90917872767222 3.8513484217891762 4.762639174609818 -1.0222996703929943 0.08679838584248277 1.1842909966285475
Ni 8.867156704682408 0.5441275502369625 11.071377058059086 1.2247660739244586 1.9245581337299758 1.1809575613799401
Ni 4.0084886302895795 5.603323177392013 8.257048128948547 0.7116456167099937 0.9286991740270134 -0.7910194279536312
Ni 3.422796772134801 6.930226625451748 2.313907294132883 1.857034794067021 0.5766932968701035 -0.1375082534925245
Ni 8.349322310443254 5.8799551317129 0.5321489124412735 -0.5102063688914632 1.0257698883297817 2.47365963702474
Ni 2.137381211782501 8.61274185489726 3.679080694535264 -1.8595714444459457 1.8556435701464493 -1.1182403848563773
Ni 6.51309197108304 1.7061134221206473 8.854886196926595 -1.3523169590939548 0.5604575517375316 -1.1095366864347924
P 3.5671112754473517 2.308765042627201 11.640768393267296 -0.7003998685928454 0.27829466351568843 -0.23160754387179466
Ni 7.9888675133153315 6.1547272206727355 3.392775598886051 -0.013823536146653612 1.7577143644981275 -0.13161682770875396
P 2.6215262626746707 2.9373166693745483 6.506831958909874 2.1385952728181747 -0.4561093299367435 0.8381127818970081
Ni 5.510339116593654 8.387974363837799 2.972979127310015 -2.344764064901891 -0.5486790710453647 1.6464573313926483
P 0.773667161180748 6.6609604745409685 2.8555111359764567 -0.0374853985399677 0.2362645830278318 1.6266577801682178
P 7.61625914056073 2.733946837221452 7.168397116541327 0.4620871447867333 0.5283598998720385 0.5653848138358198
P 6.390939328780653 8.281409603002054 5.366972039744729 -0.5899702164846679 -1.0153085837871416 -0.11078369301348662
Ni 4.118865194390056 2.7011690120464698 4.7349060040453335 -0.47874326528617545 -1.8252922115481018 0.668779413474087
Ni 7.7724602091263435 9.010872736467888 9.243311711778977 -1.5025408603809347 -2.327746447297972 -0.04370155465300861
Ni 1.3225392095392463 3.9987013190083975 5.17298900331239 0.04047507729591094 1.2237707998907246 0.6868424416233848
Ni 1.5764660748484751 5.7231924206372655 7.097123761294265 0.37310332125715745 0.5266763415220285 -0.21640743909258858
Ni 1.9062791297903463 5.608921187983694 1.4338466270456751 -0.8096007905002445 -2.29094470508859 -1.0715864324432642
Ni 5.792348107403922 5.800266346069789 9.753840149760729 -0.3294588450943294 1.8202937298922457 1.5045923435933248
Ni 4.899308894708103 6.49527593408484 4.410948762814498 0.46781710529197496 -0.6402126575799877 -1.4169735187320758
Ni 8.645556509089294 4.8005426782328104 6.63456880092255 -0.8263913796950219 -0.5593545484813399 2.7338354794525306
Ni 2.331479338893123 1.515339113798837 8.748481642315019 -0.34359605582665986 0.14918389005823984 -0.47475497006238887
Ni 8.666558256062366 2.988555039346116 11.94478088031441 -0.5682071137759633 -0.9168083361266985 -0.7429408272788495
Ni 4.151035340783705 4.810026150123325 1.3968960742388656 0.4718928180232453 -0.6541799183933572 -0.8917881599332771
Ni 6.663860759633699 1.2803147414907996 3.7932478852156666 0.7240663589718498 -0.021099500982776565 0.8551931344180627
Ni 0.4691289399152376 2.876143672053597 3.567555985828237 -2.6867876340351082 -0.7780127312813181 -2.6718369262625465
Ni 0.8541081794971167 7.702319346153585 1.0427666607893735 0.09323539971707814 0.5583813859347933 -0.47211084757132243
Ni 1.6148142888523525 2.3462477747303905 12.901734089925165 -0.3740613142950525 -0.7800768128991985 -0.1554355273949065
Ni 0.8186086899620988 8.596168797224516 9.386262620735232 -0.21328432008257459 1.7434858796035715 -0.2450027342317781
Ni 8.488977943098913 1.636405300098233 5.403437370251898 0.5148464387666359 0.08757717299003626 -0.6191782055071917
Ni 7.242776078651177 5.511536059647797 11.955360015462176 -0.23885316969061443 0.2540111083779754 -0.5791132191655058
Ni 6.875406633572015 5.981538767992559 5.650569281915301 0.27115213893363627 1.596483827687999 0.19445587452216187
Ni 6.170582112512994 6.218561114475589 2.1717647821008876 -1.3730462212215062 0.015385224206818664 -0.27673271834520724
Ni 7.574237232106061 1.8791361442240964 1.7213514279253095 1.1378342478279049 -0.1220978324747252 0.07423880400991731
Ni 2.0723687894340306 6.585037455891275 12.507366213171679 -1.6820416562551612 -0.6895611261061285 -0.1262146828565762
Ni 2.616222884219393 4.007752049948568 8.795727746838308 -0.667731946046179 -1.247443460917316 -0.3494815680731594
Ni 3.3697261585649687 4.390009625170412 3.568256657877624 -0.5069544376130689 2.217151987477156 -2.030501725042342
Ni 7.460573678233824 4.149230718948227 2.6713513191169236 -0.5825736669102806 -1.2147236020867918 -2.4587462102480173
P 4.855730960283048 8.39877447308787 9.498191527904389 0.6509071611793564 -0.011626271385018688 -0.4304792880734651
Ni 1.570426116052186 6.539691728647795 9.320527428927145 0.8613370425322714 -1.57267618374544 0.3797349676410621
P 0.4155362750287143 3.788545740463739 1.411328445295547 -0.08492867962359567 -0.8924826148971404 0.3477686991471108
Ni 1.7113431425418246 1.5530520272585924 5.0008225558553665 0.840823495959952 -0.2656558917057554 0.18238685917276978
P 0.4606720768750067 5.607438820047411 10.911703013185607 -0.05173522359076252 -1.6436394023278789 -0.3966278867416589
P 0.6424389283516808 9.120374611413414 12.964882043285451 1.1717967208162787 0.4639277975398978 -1.390663162972321
P 4.599023504186504 1.0495809496691502 3.4332967248959103 -1.8821501010774102 -0.33982347615810504 -1.0341383148991352
Ni 2.93355090238113 4.198903855695146 12.699908314311912 0.8272560416881622 0.423187125287426 0.08129056865037612
Ni 0.608728408319893 4.749304308261243 12.874041431279437 0.921963912185709 -0.8218603245938878 -0.5984461151661629
Ni 7.582984123655565 8.527961457646912 2.397955714669352 1.72868660980721 -2.3299773935110197 -1.2891207860514444
Ni 2.40357213976956 0.6027390894220485 10.964663139704287 -1.2453163872719843 1.327319665718669 -0.9853886562992579
Ni 1.28338996441452 3.054727575731678 10.685580214298685 1.426173440063789 0.2809182171814646 -1.3211523605656923
Ni 0.7877266384397925 0.40278422787496393 6.9090287639628825 0.7563265045571361 1.0015161579887397 0.9662329093064133
Ni 5.174937258314364 2.573261835829935 2.1208127577368883 0.4185879359525178 1.0164617235549782 -0.18977800943051834
Ni 1.097246904986815 1.1707207940026472 1.2752535138226286 -2.6438831213620984 -0.5753203277819768 0.801724215965645
Ni 9.048650100707482 7.649396048651956 7.308383289625014 -0.1584815133100819 -2.729693432259699 1.2803229852541562
Ni -0.16706839077180255 7.557516858365115 11.321217743926557 0.04921040028637977 -0.3893971733211745 1.8554579364982045
Ni 5.230871327959875 3.1426292321770606 12.601858422218253 1.1242313123324899 0.6403589533498649 0.8816664981182429
Ni 3.0652882963709214 8.659477877534398 12.734190604833412 -2.8474916089178053 0.6435975148918206 1.4219858843450026
Ni 2.397403279413594 6.61289860729001 4.399750900180281 -0.1918246075469019 -2.0250131911239446 1.3942660498322312
Ni 8.161834991893205 6.514555924510799 9.40898244135371 -0.7699818905570416 -0.01276527008546834 -0.41973284819023843
Ni 0.33863544597632883 4.54461783874859 8.886702784756558 -0.6995161804363114 0.1330479037283257 1.0693202621169067
Ni 8.7893646134174 1.7706931035187738 9.064461718452707 1.559095873957844 1.52721213787537 -0.1594796155572931
Ni 3.520909273557446 5.241708266226997 10.596990775959885 -0.4707887863257892 -0.27013938139840576 -0.005697307495093414
Ni 6.939415465205858 1.7912160732701887 11.125078368545909 -1.183894275410761 -0.05089267308480913 0.11355971309672701
Ni 6.0270226040499795 0.2693692721585209 1.015355744124081 -1.8381366716109373 1.5503836908958266 -0.2748632692366363
Ni 3.8233307470679763 1.4859035219211907 0.5219426710911419 0.5455346118791121 2.0163287759760693 -1.927263705586597
Ni 7.83634013920051 0.4897559516398202 13.230408207514749 0.2776323473413412 0.4326508418034871 -0.7452445357113617
Ni 7.48291968432924 4.232399846702616 10.07577547795549 0.8642063936602665 -1.724237830007237 0.08523592645136933
Ni 5.281078485454027 4.308405730640673 6.036541984232118 2.9909992745268745 -0.7416773871853937 0.04056969389224626
Ni 6.253916970844109 7.447941325385488 7.871588270694158 -0.5411102575591713 -0.03650503690456939 0.059824428356800186
Ni 4.901444977697034 0.4414841589916741 11.719332052439514 0.5977210640746803 0.33107349787961693 -0.42460560290150745
P 2.1012243242931308 8.287293038475879 5.875156310791215 -0.2892678746977405 -0.8685574715401105 1.0398428214830802
Ni 8.725493890597496 8.20639810252436 5.09713411834424 -0.7412163883885751 1.7287115495078746 -1.5933558235819787
P 4.623689738356106 8.112695875893518 0.32039035092949003 0.9928440841360386 -1.0642523606756962 1.5389587368883368
Ni 2.9252735807990207 9.151743726686213 1.6378149307258423 1.0543330446794552 -1.4536752450284836 1.2259541806952887
P 5.590469850441372 4.215384840825265 3.8420969727060803 0.26406283618702264 0.8385830366652075 -0.2626466725657864
P 6.013294587944389 5.17841760042564 0.30755175558567094 0.08101237528832499 -0.24809859954828242 -0.8569867359833756
P 8.831156340515504 0.715834555706281 3.082496654587787 2.1490421791831116 1.6224583973748896 1.7634312123772469
Ni 7.489723845229329 0.1292735327491095 6.8958633110927385 -0.9132249896508144 0.5001351006983903 0.4067022402585254
