# total energy = -340867.0247797598 ev
CRYSTAL
PRIMVEC
9.25760908725423 0.00000000000000 0.00000000000000
0.00000000000000 9.25760908725423 0.00000000000000
0.00000000000000 0.00000000000000 13.54944667266374
PRIMCOORD
 96 1
Ni 6.038868073501584 9.100637157024519 9.171674495292908 0.08719819238406273 0.4661250623015327 -0.2886734356468513
Ni 8.94083230738955 0.9144527482138607 3.311376445230607 0.7718533965481417 0.2506085104543297 0.3886235283799436
Ni 5.725868307184921 3.4635308066406685 7.300279350019769 -0.5137565481365668 -1.5846649806761999 -0.5320602315417611
Ni 1.7631672136529613 4.923353940349881 7.872079283958111 -3.071570705623039 -0.22445036400172313 -1.9221523525019606
Ni 2.1630496421075107 5.087695018482192 10.069989379187243 1.5544388348018068 0.6152860695416371 1.184297938607083
Ni 4.921261720675597 6.318133111972703 0.4692783926156363 -0.6655071704807183 1.054664974097577 -1.21403171822609
Ni 2.768515797583479 0.11567104939949203 1.5466419183437679 -0.7268071549417805 0.1321693577781143 -0.05423227898100338
Ni 3.2095390412261753 4.266572857198868 3.537367645924562 -1.7173943247228423 -2.3449610114040453 0.8058220401841024
Ni 7.783047930729953 7.426824387160035 13.057466149054713 -1.670905951353316 -0.29208940330693567 -0.25257668992429405
Ni 7.50180176389469 7.695822737052472 2.140039854494968 0.6160692275645648 -1.701959478225011 -0.9378782694231204
Ni 5.153673999095586 1.5017786185050461 5.1138866463692985 1.4169164402418952 1.739659563878946 0.2538596704017757
Ni 5.659991160272487 3.2421535983611536 3.2565010410656066 -0.7264729115308134 -0.8426435798878263 0.835333162269342
Ni 6.402608795724243 3.364354039514066 10.284775169731843 0.2901073398799004 1.5623673456202642 0.003790834500999923
Ni 7.069665825063114 0.5251897232476829 1.262147256447856 -0.9753374427108427 1.576950899861394 -1.0526780255745354
Ni 3.3747503346212415 1.2780777503217904 6.508910218874427 0.494088123173362 -0.3941758256567405 0.6994182214058665
Ni 0.021653547867928953 0.18110383107136968 0.9758473607621853 1.9920027976361954 -0.1921177133072885 -0.3717686616061339
Ni 0.6630938468496623 6.292156260618531 11.63031682117922 -2.1522429455085965 1.0706420662521239 -1.181008469222534
Ni 4.859411633755702 7.841630081609925 6.765997728798126 -0.3335016477051353 -0.05077928743539643 0.46802305065519395
Ni 0.49569127736210405 6.116669021035606 2.8556678561484508 0.4856155669259765 0.32432100964713173 -0.7742010708447118
Ni 1.1376768495244365 1.0496184710209135 11.483833671151755 0.18011220420598015 -0.8915644739582451 0.50366162579441
Ni 6.762081760115726 5.128780288015269 0.9323995493668179 -1.0988390975116302 -1.0164966905579722 -2.140112995014282
Ni 7.528908043568608 4.946673857869896 3.0249275020371664 -0.8937378274604801 -0.3309418573977591 -0.8177383320057142
Ni 1.517970176957807 6.951983097189188 0.45205831378317174 -1.3626911032394273 0.008584913455533602 1.9653530562591506
Ni 1.5686000415536614 1.2059609748232154 4.908977799056975 -0.2698653018014126 -0.6548365781407497 -0.8186235628241451
P 0.8275867497724964 8.297604364075497 2.884243318398958 -0.03607694822821529 1.3887813725685758 -0.8356800040857996
P 0.4001222005322661 2.4660049024657726 13.596870005434683 1.230189301822559 -0.6759250233799328 -1.0587270599820928
P 6.1629200364901475 7.311122787650255 3.9872226487233102 -0.9565002553996819 -0.05891965715434369 0.16578473183971448
P 5.31678381520719 1.005043082827635 7.336090559603998 0.9601365666006885 -0.2816365834047279 0.5708748904161136
P 3.740879520011888 3.366733245072876 12.518469627478588 0.6547059661001563 2.0216910687292473 1.9805850427175566
P 0.37114495804342285 8.324210732853789 12.473905348416324 1.088607649591609 0.917515132385736 -0.4174651352019843
P 6.583502479067266 5.370200220165697 12.057232394195179 -0.47733687185695217 -0.9891751199248835 2.261918235949253
P 8.802014457761679 5.245981620211927 4.53107015750884 1.0500475299302237 -0.5219665947511849 3.2488765507284763
Ni 0.6514922110274782 3.311289423704331 3.9746758110040266 -0.04015214673885343 0.5222190770816233 -0.12725083743057441
Ni 6.785049888486967 0.26235323802428906 3.5554292414313293 -2.053770465762295 -0.7650070630502696 -1.9602123925984756
Ni 1.5697479850917644 9.419339610594987 7.2218007454939 -1.1548639496166822 -2.0050339197885405 0.2790711366703968
Ni 8.342355646843162 7.434267504939349 4.325606779406739 1.3621056630496025 -0.2805166108676717 0.5402139709971471
Ni 2.248247419374954 3.068666002360731 5.954737698572393 1.2793181981387258 3.220694946087937 -1.5033962664026947
Ni 3.671558542485145 6.5067661565887445 4.788279867873692 1.380617605810861 -1.3549253432510795 0.6707987578969608
Ni 7.41991821071306 6.15210714896995 10.401233115911486 0.4712014483831756 1.4642717895974073 -0.9425787602225831
Ni 3.1726567262600236 2.452220322399357 10.838108024881409 -1.9822616590890314 -0.06431794535177955 0.5694831522749096
Ni 4.722084259205527 5.434401739816868 11.05096915847785 -0.2249674128474577 -0.7552846935561831 -0.21319998789888445
Ni 2.1519867991395008 2.5720415579934595 2.0010090798559954 -0.16925494977650204 -0.9894507421837733 1.30940678999399
Ni 4.102241036675736 8.792969773594526 4.754161875008167 0.3589828226953753 0.7109714734611046 -0.2850224691578252
Ni 3.238126538368614 7.941584487907501 13.000342071620315 1.6786812244233607 1.2638211309443912 -0.9667941811265219
Ni 3.8930838725115122 0.16395040702498853 10.611004985325145 -1.3086992224040042 -0.5759685028889371 1.87060096278723
Ni 8.012136727454951 0.6897613158485321 12.420479685848637 -0.413283750130785 1.176386139959174 2.2906536562107322
Ni 3.6444059747653355 4.310620561668986 1.0415375039692183 0.1043451364769945 -0.23313915002497268 -0.2564760249787002
Ni 1.5492053503252254 8.238763000138533 9.43052372824323 -0.4895005038026795 -1.3234362715038628 1.2769908355571298
Ni 2.732531470707617 1.6748125916557342 13.490547289783388 -0.7842908509805461 0.6591424046049551 -2.1512661834176243
Ni 9.085556511673149 4.516519047402465 9.848306669804845 0.4122380824750901 -0.7375566801488007 0.5230603420359959
Ni 7.672530592359993 1.6759883080213722 6.809192807462928 -0.7498216135590828 -0.17027233529742286 -0.9493477035153005
Ni 2.8877445461901727 3.2043732953047113 8.709394855216031 0.33911308035464177 -1.3067122738809622 -0.7896801403169175
Ni 4.97295621032695 5.641799958237224 2.9877609784692427 1.3755155086976052 1.2450171108640107 -0.8275167515487166
Ni 8.096232849230184 8.575915868801255 10.70284324565615 0.10743843069033754 -1.2182496129621794 -1.3386677437416363
Ni 4.773065912950155 1.3876878429922814 1.3538651678595415 0.17543768154844624 0.5691666494757552 -0.1369310408328158
Ni 3.0167308148707432 7.812959265984882 3.0338564660895893 -1.0104972784414272 -1.3131708850221124 -0.5552490109533985
P 0.643347366472453 6.2714284736684265 8.955575050005915 -1.1546947710286695 0.8603147719153441 2.0468757955249908
P 4.603818301953371 4.200482785275335 5.090391760035816 -0.6921882793163304 0.4912555388205733 1.5528784322932223
P 2.68429932688893 6.937124634458095 6.650163745477097 0.7410320402919109 0.9654826614039503 1.4575061887387994
P 7.187561477948139 2.0050592838714802 4.5417478839350345 1.7866243626642584 1.8445022088176495 0.425218553895158
P 5.643540388762735 8.61664009157638 0.07959044338817682 -0.3141430406728654 -0.25280063300964206 -1.1939866266497565
P 8.340263427168876 2.8922807746875154 8.422878331475589 0.21130842730312638 0.585003873618328 1.3004320972992054
P 2.61353416233038 5.849679572334849 2.4053786714792427 0.48564436328138294 -0.07118947566063223 -1.8467238990593164
P 4.751940048805387 4.328589581083971 9.021723444867272 0.24410207679437962 -0.39908868957732563 1.3263526738197093
Ni 3.7796689024687598 5.003719245626278 7.223060706103061 2.254084341727131 -0.006597707822175734 -2.9082969131306364
Ni 4.3923189626670505 6.620125580976427 8.875402303000428 0.022476069615329036 -0.1315332668560122 -0.053280713701011465
Ni 5.561295788823154 8.019894603946327 11.424365567073425 0.9285158543716139 -0.61566376459603 1.203970477335346
Ni 3.590647038267232 8.941896932445049 8.39500644752263 0.11890992166504682 0.301513524834313 -0.5246629106364255
Ni 1.7289048020842546 5.419858035797835 5.487810738688033 -1.8637818829828676 -1.1727130619829609 -1.330330941741167
Ni 8.10371299744621 8.633137151132024 7.714526810636211 -1.01271794024183 -0.954823124807575 -0.14351383625665606
Ni 1.0019880717988123 2.2972849751921496 7.490107551980723 -1.6498110783562296 0.854260081080832 1.4262953103536338
Ni 6.66223844512829 4.316767614163345 5.264366306279015 0.12223410094227337 -0.6161844129861904 -1.220522725267072
Ni 5.10665460207925 8.191391813973423 2.046128815468955 -0.5635305342359005 0.1713725103401371 1.125311689880862
Ni 1.2059332019956805 3.8236703188929866 11.927930441041632 2.8521517333976365 -1.860599371489828 -0.465469688105721
Ni 8.42409107827794 2.715664106784844 1.7164709071969457 -0.5007717058411247 0.0941273154037282 0.9260563370875278
Ni 7.3277124232976805 4.853005368204352 8.360360770933942 -0.7999231582011642 0.850289012248226 -0.8642249056030277
Ni 6.725912281056299 6.489713640482406 6.332022303022832 1.09104094162345 -0.9100144531333165 0.2471969136696194
Ni 8.571527762050763 4.184393060523534 6.382073567045046 2.087862522349998 -0.34289902975963527 1.125163851449088
Ni 8.556419343871859 2.43807469557499 10.974862353423449 -0.569606051006019 -0.0712342128556386 -1.0466228205193908
Ni 2.6048505249211806 5.6681563715677035 12.371837429943353 2.7972926194659116 -1.0246504300133579 0.8026768096869015
Ni 0.3355614856449797 6.967137803413984 7.023978598007528 0.517472049314941 -0.2840917298134398 -1.3058805220082865
Ni 8.512658625286267 4.3129257063543704 12.446426912853438 -3.3143622911361117 0.9634448050383149 1.6323234630944274
Ni 6.076074404788976 2.8477053864942374 12.724447728650999 -0.31474750702608373 0.2549315633097158 -0.5196939966669243
Ni 6.890475541808889 8.74420994605268 5.6085494033517 -0.573020990224839 0.9549331680228781 1.881657734822024
Ni 0.8782545705659817 4.416962718299555 1.1777724806363592 0.27956093182262176 0.6535919071003712 -0.6886815517146526
Ni 4.783721421114322 1.8441435211351223 9.472756941314412 1.6119574978435656 0.8137739480413276 -2.3473127994656737
Ni 9.096063898090463 0.7637546087275383 9.0685502836127 0.12011962570243183 1.7962873396753194 0.9338336670401014
Ni 1.6244141672893364 8.00790600006049 5.033836099804963 0.6650939942026998 -0.5912012606782914 -0.6525120437726311
P 3.505875111021988 7.295810702069428 10.681123968763053 -1.3045409772612566 -0.050823253299454405 1.523359596898499
P 6.4921391340871075 1.174105541640854 10.87566707107849 0.23126070205533722 0.16026277358022076 0.1201101126207351
P 6.270956335600336 3.025766241428716 1.2934731543852216 0.7122313140101346 -0.9097174907181881 -0.8695805134879863
P 6.482788948817074 7.19693017843653 8.43686102437842 1.2252805516670318 -1.5456029816777315 -0.44709941312864937
P 9.218199535979128 8.993406269912839 5.783513588016054 -2.110324708008256 1.1407753327341 0.5994254483602967
P 8.590311451073436 6.042228585633289 0.907803007541123 2.039564606575558 -0.43323756754489257 0.6975248610378955
P 3.8502952028896362 1.3890209387139496 3.3568211229257234 -1.0450174237054841 -0.2701841185934121 -0.6082859840747201
P 1.9845907099783675 1.114384704831957 9.379401358839095 0.750185938877037 0.9400171701429939 -0.31079237903307766
