# total energy = -340868.7530902615 ev
CRYSTAL
PRIMVEC
9.32737492298937 0.00000000000000 0.00000000000000

0.00000000000000 9.32737492298937 0.00000000000000

0.00000000000000 0.00000000000000 13.65155602530041

PRIMCOORD
 96 1
Ni 3.34784667028992 3.930443830361407 3.3199624831966346 -1.2111777937170625 -0.23348856294459144 -0.5419404667699506
Ni 3.0260242560803086 0.6679053303859847 11.654319816539752 -1.1608067974636782 1.4718339182153812 -0.013085629539364561
Ni 8.543259749490364 7.491859402432548 4.170140574552968 -0.05711731383828227 -0.7822571083799689 -0.03940344149828698
Ni 1.7995770653430523 0.12400185211338882 4.71467365062747 0.05118706439677636 0.08057631619217091 -0.1719425239109942
Ni 7.6086847723416975 7.097003643201887 6.464339000447898 0.9678753300058429 -1.0531619071894895 -0.4400692457547454
Ni 6.0687165310051405 1.6715215361228757 1.7721629779418562 0.5752395951427125 1.3716025467964443 -0.14487163583613116
Ni 0.2675986532970484 6.081000683673432 10.443658274986868 0.44090048340678906 1.1205116973890572 0.9766901000839953
Ni 8.467894560758554 5.043740636877674 5.057505976671042 0.3511147328012082 -0.04260780736819759 0.9956892668943175
Ni 2.6955740201408798 7.600420718230759 10.763651590989758 0.8912525991447812 -0.1794645433196522 -0.8432655297425412
Ni 7.348945365087399 2.76760000867888 13.236671649163108 1.6305720276209594 0.7452764173905616 0.9716299119522687
Ni 9.18783731539389 8.159690113819789 8.072205866954409 0.26013470477721007 0.13735064486873766 0.9389025969225766
Ni 3.9582487347685267 8.837864883907967 5.930085624187918 0.5431139182527615 0.3646654749024494 -0.895989085388502
Ni 5.487257310664505 7.262853695286086 7.0556432649353695 -2.379770662884063 0.7236565251279408 -2.0804916838072236
Ni 5.05263895247794 6.37620277008099 10.952588761285462 0.9206413367195434 2.7203153334789083 0.7382074263589222
Ni 7.103299621220944 3.1682107581877 8.490967687907794 -1.7076606423748462 -0.0628704142719756 -0.21859416233126222
Ni 1.8923004986577712 1.7861456455690663 2.6679509995432 -0.055107225386788965 0.7799778254274888 -0.5003629004384801
Ni 6.370942130669513 7.5433931484403765 12.927559648652117 -0.09292995266151738 -0.2942244473720675 -1.7844525518239205
Ni 5.559395227700621 5.366719645567824 2.978196276097622 1.1040988032486727 -0.7523865460727817 1.3483960267729937
Ni 5.042733280394625 9.3367022178889 10.325777046245484 -0.16088652320714872 -0.18874314040810075 -0.20555635531069757
Ni 1.4115116349981294 5.454928629458507 13.303823151608134 -1.1702951965700878 -1.5460621807023374 -0.11245208185484505
Ni 7.766727811682267 5.600267784262848 0.18233525438179762 -0.08132527854305349 -1.3805893236760869 -0.05661312050835412
Ni 0.7566860823545479 5.911914032518697 7.037131224084376 0.09317523590310405 -0.06018875367475441 -0.8069661810908748
Ni 4.586074335453943 3.0865962283110484 6.527381794274562 1.5759440558634343 -0.1355192480869537 0.05975552279207772
Ni 1.5954661216526798 0.5045083778855073 9.78404311536138 -0.10162439511172175 0.9306406140241004 -1.1119380967874335
P 9.306332285399945 2.141406698590997 3.3508155737024614 -1.691080626528978 0.362719149809356 -0.7818524167423825
P 1.8800350007391657 4.234068536252236 1.5835531985031417 0.3616125470087385 -0.1602226643709047 -1.3575517251303328
P 3.2912854692416897 1.6697213527781678 5.668058211884622 -0.6875070717905772 -1.662368860416582 -0.6779610799733551
P 5.222732960115724 2.221416919994644 9.725273191950317 0.3865465912462569 -0.00889524560710081 -0.21551269519246108
P 1.5755894858621489 6.682345867179442 8.943516058755147 1.3290605596691756 1.2712526475217718 -1.223083544015713
P 5.592330188271417 7.111573002706725 4.747273758441399 1.3968782906440975 0.7791730701380065 1.0305104883385607
P 7.925171928141086 7.063695587637371 1.8285852011049248 0.16672986936180317 1.808665401624698 -0.28137741620607026
P 2.345890737275091 8.295683239031398 2.687281051167928 -1.6049155033951201 0.645821776236649 -0.7782454161174146
Ni 8.822670590288645 7.728513556950308 13.27077346432677 1.0525026763389358 -0.10511672453569638 -0.04591578869550802
Ni 2.6675639134872133 4.645135272960109 8.853307285698113 -1.058883383054299 0.27668129628198157 0.4077779898212074
Ni 2.7198345221076425 0.46062960841136663 0.9998013094260852 0.3129737029551126 -1.8571204118022917 -0.5244955318206257
Ni 9.068362971029316 3.2911548859938873 1.4342191290535244 0.30938264316974456 0.4211508115836876 0.3963026421917562
Ni 3.408390660396131 2.581602826933703 0.8458091489798512 1.4168022832615343 1.5108815190361464 1.7473983272841005
Ni 6.607185880694178 3.2748879442676153 11.11001805936136 0.19817291836243286 -0.6192684512281529 -0.7959184079171454
Ni 5.469777810208637 7.114147358163406 1.4611668477125683 1.3328169413878144 1.7754675747164905 -0.30485004540671373
Ni 0.7592697651860717 6.535915409518465 2.2262820787127766 0.35493333521635 0.5310294762844016 -0.30064294930390156
Ni 2.3113701229809784 3.3097443440560776 6.837531931605586 -0.8567789908479438 1.227276756161454 0.8401562946895982
Ni 3.785748264421237 5.693914627687029 1.5864745323039835 -2.2892737451440706 -1.1600676053048087 -1.2686085250307053
Ni 9.104898298289527 3.4389191582574195 6.909420807733393 0.43823733475232907 -0.12368985955219343 0.5103552357645017
Ni 7.3530400826434965 -0.3160375763319541 0.8844757813916978 -2.4895871068882736 -0.6016080578339122 1.1922269636461726
Ni 3.2749159263921443 5.26203851770432 11.66937699774888 -1.5294343423376693 -1.6272825582364103 -0.22418451193484618
Ni 5.425388833330582 4.278065763386883 13.155813569386229 -0.028429458985286524 0.836802547726017 0.33277531106207203
Ni 2.9895448930691564 2.988798703081713 10.74457990764818 0.013889356387582529 -0.41319658973361745 -0.7624390452127773
Ni 4.050067412723471 1.1274371067783249 3.4049572537164052 -0.12771286466865747 0.5556146218229334 0.5319453032304516
Ni 1.7562793913216332 2.7531145955476304 12.96942836884758 -0.8829898449153567 0.6647348110910681 -0.3130076415168416
Ni 7.197879202129429 3.1725852969890886 3.652501118363421 0.48173500092464777 -0.5894315703723785 -0.17394232794984238
Ni 0.9092343651750787 1.264195076727063 7.028435312518205 -0.9214687177168452 -0.2985827243407632 0.7808627991356035
Ni 2.291306939693587 7.335495290563728 0.4761270417130874 0.5744253267715334 1.5817845738046112 -0.25885609517510255
Ni 8.269221476601675 1.5963149127633969 9.792930238111834 0.8638760069040412 -0.908883424852667 -0.11099143814891854
Ni 0.4840674359169723 0.966390652738295 11.94463342579207 0.7439008771992737 -0.3320590017213378 -0.16649049965748744
Ni 3.5224831094762674 1.736094952161282 8.349359483040674 -0.16117731497469015 -0.5205267769808648 0.45216165814290515
Ni 9.105747089400243 0.9981690188285522 0.7658847394247599 1.7790298381464522 2.5692499101272395 -1.7312834240001085
P 5.053030702221347 -0.10661469266846704 1.9095113707181592 -0.8783343484212164 -0.6905186049233915 -1.1697534651340047
P 4.333563643703006 6.318027933184913 13.115513713639364 0.3405572690003361 1.3466039678695776 1.0830419825783737
P 4.244515196076447 8.953916081705142 8.21117908842837 0.37127141025474125 -0.12675924250613654 -0.34507238326187023
P 7.972946742087168 0.9293367234368111 7.575876664068768 0.5784359905928231 1.1833119205447298 0.7332382552791049
P 1.2804620184533353 2.6596636269951537 8.984034175073338 0.3682606484528755 -0.45044210434863713 -0.2524314225956814
P 6.9866701261834985 7.590794867392735 10.454702819538516 -0.10635625336975231 0.05403507536853275 0.5804031416215231
P 9.077569089999402 4.510615872973703 11.812186568495788 0.07711612555771236 -0.9396944966962526 1.8562498362718804
P 4.18753426316028 2.6079433334904643 12.511746210886617 -2.780276287413573 1.0917189415270814 -0.7854715015522086
Ni 8.497732832881457 0.7035508260861686 4.683084630246526 -0.5695572000459544 0.23356595314974612 0.5703110474928437
Ni 6.445122742796256 4.530287306517686 6.398757295188959 -0.031036043370198163 3.0654563651951854 0.6370283463147353
Ni 4.270781083634464 5.220923449396174 5.273036425381755 1.0129614237112037 -0.29750954588124245 -0.4062651527211068
Ni 9.143522957514579 8.406259267795706 10.493705237444713 -1.49565750299754 0.30452351530523036 0.27974887946371174
Ni 6.6715727492357235 8.740841530790604 3.284782423501118 0.44853845956802113 -1.7645375580675482 -0.8943052699281759
Ni 0.9149604405912245 4.441546662260948 3.5089686760661785 -0.20383628729579734 -0.09310530189711708 0.2924683839129092
Ni 4.176350740723468 8.570421065033313 12.741789122115627 0.7329703463296989 -1.9276879376082092 1.5394917265736712
Ni 3.7117915092907263 7.089504433828078 3.793153267309131 1.472033435820697 -0.18060482757168253 -1.007699661091632
Ni 3.977957477811883 6.909681974228998 8.86788690531528 -0.7111198261135108 -0.028787870765969774 0.7549152260319064
Ni 5.850502596552083 0.9407590266696051 7.1480094597936 -2.0182056812838076 -0.9065858870677418 1.4081433220349555
Ni 2.0567141350161404 8.577313995042324 7.3429534594882275 0.5926961000562632 -0.447328755530636 0.6412830078260311
Ni 7.232315870049955 5.625554297462346 11.264403835025968 0.7633882964999241 -0.7047812854899926 0.486704172004465
Ni 8.113808756966845 5.244353815001905 2.8109918891862136 -0.8802305370026647 -0.3401474351564271 -0.7285681034969452
Ni 6.004273698214537 0.7100548045642245 4.829906837650911 -0.7062244456944224 1.119171381311079 0.5895146170044879
Ni 5.634014226444988 1.30237202195965 12.815097624694545 1.1937279736717312 -2.799905631608726 0.04609036660015933
Ni 8.940363406058198 4.0246782984006995 9.682911986363141 0.1759508737394389 -0.8329176108493139 -0.5234272384571115
Ni 6.3728449151374935 6.041965619955285 8.679795727917837 1.2477357953467545 -1.157491102826884 1.3461031169737592
Ni 1.2847526108811362 2.494093396156247 4.980196963021941 -0.057346656240268974 0.7254665817534861 -0.3539118359303711
Ni 4.866044818742808 4.4249812445396985 9.861379178397526 -0.07727990482908625 -0.8610619344940139 -0.7433000103904812
Ni 1.6880869538441252 7.076007722430192 4.634102853995755 -2.2984590111877643 -0.43441590412370984 0.6107848392371739
Ni 6.889227041198199 8.56752957883197 8.588439687755109 -0.3369055311803617 0.3606380989106112 0.07244983043029458
Ni 7.0121525142547 2.498859684701043 6.111515190472456 1.7394996412623138 -1.1125826723499679 -1.537387792856791
Ni 0.11738594513721641 9.144437040249198 2.5008147024681455 0.7132849520856296 -1.4306196487606007 1.684764968723595
Ni 3.020325230051208 6.477619316749428 6.776700658354208 -0.00900991680809416 0.057416847356572084 -0.3833669079666946
P 8.210235158094253 5.268810191840371 7.711450057412439 -1.4461390845524384 -0.6924988685782139 0.07698139975206096
P 4.514878483276974 5.039207532703954 7.672010185626104 0.7196607737049864 0.10733301546072482 -0.13551796253537307
P -0.0493651313568202 8.473500313039223 5.986575937187341 1.8887112992346955 -0.12626816180233094 -0.7313238118652114
P 6.657133972978689 3.9153334831156728 1.4763201008825806 0.542145383691905 0.16151644348166377 -0.049427401393192294
P 5.164735343341666 3.5125587826432665 4.1986179826862715 1.0222845008843424 -1.3100660208445436 1.0464024769784688
P 2.0878768943667563 5.0011891528437 5.268545294394828 -0.6251560203571814 -0.7415624588740841 0.22438351531952969
P 7.885913007426706 0.6370587690425477 12.638009951399443 -1.012897660352804 0.1530333457113171 -0.14284740631725076
P 1.2540655476475153 8.039572180591044 12.082036850079946 -0.1680179920456074 0.8692604111444062 1.6430367357468736
