# total energy = -381165.9762806483 ev
CRYSTAL
PRIMVEC
9.27959451666508 0.00000000000000 0.00000000000000
0.00000000000000 9.27959451666508 0.00000000000000
0.00000000000000 0.00000000000000 13.58162457093177
PRIMCOORD
 96 1
Ni 0.6160722705263213 5.62281245815372 4.187269415964771 -0.7018759389177396 0.813399081200412 0.06651469589278222
Ni 6.501088947327302 6.387794379608432 5.990868081872026 0.6644332206902492 -0.9681964607906874 0.5625509439314506
Ni 3.23713081999524 0.28683133415787826 7.700074713801368 0.09067149564464384 -0.13316514603248034 -0.1441841228508033
Ni 2.4904111402696407 3.499000973245019 10.84627200464209 2.6120626344173914 -1.0664341988183634 0.2791079034456032
Ni 6.552711330832921 2.2765907266912784 10.924569510136786 0.03857091829466261 0.8348739632447364 -0.03885296831145567
Ni 0.443455111889832 1.023121677765922 8.841352538778988 -0.015117572367728803 1.1737528161013848 -0.4854327614912092
Ni 7.398128776326225 4.672322165557394 4.313034830563598 -0.051212775428389215 1.1343565736919496 0.631351607644932
Ni 2.645222613220245 4.625339579239052 8.29975736474336 2.0919251224551454 -1.4504353979349471 0.6924248208071688
Ni 5.571904603414942 9.147564305788112 1.3569699327413285 -0.5766107644586264 1.1915967862613415 1.1764457895525158
Ni 3.6216586516878104 2.459129627633036 1.0040511833667858 -1.2961540387491417 3.1547512922072767 -3.6520268119696846
Ni 4.007940326717169 5.305849353102242 6.517916563766111 1.3942657927219149 -0.23977953815962572 -0.010852112223155505
Ni 6.26154549814269 0.34361224417630737 3.6583195451833417 0.30418515812920516 -0.9997356690495491 -0.9371203082111731
Ni 7.706526815769993 0.4586550874753436 2.017441350512118 1.7507813848237201 0.6826057778342179 -1.0854421073794338
Ni 6.116774546305347 4.952064817572554 2.1064966897652293 0.17494017308673743 -0.8608493042625754 2.1175659629517014
Ni 4.721114272778774 2.1912184584454257 2.7373764090350186 1.558064604479852 -0.4284000369469332 2.996970404508645
Ni 1.2929537229890635 2.0834452493794116 2.523697045291149 1.3882280711682673 -0.7483985079593111 -0.3254944611299426
Ni 6.2838072450472335 5.905376106858743 9.618003550159695 0.24982586665203424 1.1978800481668919 1.4321162879107852
Ni 1.5233196533372473 7.232989114836747 12.143384841829826 0.21092096205672062 1.2720597168040997 0.24301964236347826
Ni 3.9414520330235248 7.861607396957458 13.418250779464017 -3.955638871204239 -0.08798057907604202 0.11868057926306012
Ni 4.66097322163732 4.230502118196357 9.672112864957692 -0.6362906968177622 -0.6794016690746235 0.5208044561222838
Ni 7.789987487574688 6.723984804203974 3.464183007192273 0.3105249843043039 1.1392090166882445 -0.12086550272952087
Ni 4.541099421506894 3.0114418052118297 12.033142332700743 0.412086130278258 -0.31953130156797227 1.3687380807644556
Ni 0.14675121727687082 3.5346717340207863 7.978973850687882 0.8578058894505614 -1.115040132751525 0.4257448587122732
Ni 8.032259137505418 9.051659697927146 4.969108648560288 0.18967182286995724 -0.9172351392514719 1.234238532191268
P 1.5213245405467193 2.04847973777611 7.0803592745236 -0.23874698313005335 -1.027481985924882 -0.23797539507135143
Ni 4.982789554546687 1.1677812744707694 5.1531397082774735 -2.6332009590579037 1.737716581219962 1.544200187792934
P 8.902972757263745 2.951579141901613 10.000543692737237 -1.8258529691475782 -1.7025564883790616 0.8774614588979598
Ni 1.05918218150542 8.09812569837597 8.656900185477198 0.08407661603594552 0.8227234439251315 -1.0378954679487222
P 0.4321599896171307 6.863262236171583 10.208981013618923 -2.0328144323359183 -0.4001482411900915 0.6468332482202989
P 6.552516459351055 0.6194778816617807 6.429133116628173 0.7281626405284105 0.2855300049218631 0.8890993002472043
P 4.197708031676701 9.054118790436402 3.432158199046266 0.5636981701620162 0.28853433896582564 -0.5135323479409027
Ni 7.2179376127612285 1.3544588745035755 8.871883332230691 1.1194254063034141 -1.7906910765344644 -0.26577673355433584
Ni 4.539317739386981 0.8450109992596994 13.061936626507828 0.1512754824799459 0.7205429191996235 -0.868858290609981
Ni 2.2356491563107674 6.423743528215435 0.6669402230092876 -1.729880373004995 0.35525883687656884 0.28691017309884137
Ni 0.6972390266016282 7.99167019171114 3.9720412879197884 0.06276474193204674 0.6258733581391801 0.6266398039915595
Ni 7.159448329418445 1.006882387610461 12.836278234385851 -0.15269858807971767 0.10782461038516268 2.2436621179525424
Ni 7.478267353344831 8.085431213271585 7.421678530929955 -0.5482293851024559 1.2088771706083439 -1.3677363789728185
Ni 8.14463502538121 5.89782251703786 8.177550674587172 -0.21660310004316244 0.11204584755536187 0.6770856193469372
Ni 8.437044323717629 4.469516630501621 6.3076047648207645 0.039845671242028154 0.9392424967604986 -1.3232696640190114
Ni 3.131612552362242 0.5366844126926155 1.689255504024061 -0.6739984957811812 -2.5123395700934408 0.5305039427982348
Ni 4.142865628923115 1.268901014370232 10.597497214973675 -0.6713399751124116 1.6637042913985538 1.7866673000870523
Ni 5.110309740441742 4.116901323863127 4.678855927956514 -0.5243286672254583 -0.02623502243712901 -1.3196762902407984
Ni 2.5124037789373226 6.554010474045357 10.279265589371196 1.3582202119522675 -1.5443606246301984 -1.5989801117472913
Ni 3.4640540208304667 2.7705342556541575 6.610040664878884 0.34725550695611807 0.5472418243782059 -1.2423778734689506
Ni 4.156933493994932 4.998499907822798 0.17506047583530807 0.5476951098655406 -0.837508572654106 4.071800540700187
Ni 3.3091961499079896 5.87475344542273 4.3422358581414295 -0.9099000390426394 -2.448884229852273 -0.11936140738016862
Ni 2.1031458282365794 1.4068885827197783 12.391752257305198 0.7955759369760621 0.3058581749562539 -0.5154347071699382
Ni 4.874895710753803 8.160948552291666 6.388524683685709 0.7136261374751323 0.19746586499307928 0.003932502285186776
Ni 2.3133379204144933 9.297318399804588 10.168657464223756 -0.3868535809637144 -0.29798160042165456 0.371516950606644
Ni 0.565840898217449 3.443592515234586 12.08131641893678 -1.1832689831219363 -0.912510737192609 -0.7714286503058972
Ni 1.968795860881856 4.827458424311107 2.5497328032278217 -0.8390041833630261 -0.022803885268392984 -1.5261057921850683
Ni 8.949324331164618 8.33093216204466 12.896879553408283 -0.03545962635919054 1.2131477729592397 1.1127022286469677
Ni 1.6826595683426315 4.449871729210701 5.931435063781351 -0.1943867118471233 -0.2696238752145679 0.6984771976488358
Ni 0.3670738426334801 3.3370906105978846 4.129709947978316 -0.5180202085089273 -0.701968755741862 1.8458427820059435
Ni 5.345760888507178 2.2975904487608836 7.976583427176998 -2.9206788317347567 -2.322632265999858 0.07692792080630623
Ni 6.835544087774805 3.6452009826160414 8.723708625176766 2.728378570103017 1.2701846112685737 1.1982906533417492
P 1.8924804767455636 8.925577849160145 0.024987163772348626 0.13940212808112765 -0.5850226426714055 -1.1023267989499144
Ni 0.8316929254133464 9.174577205012424 6.434620140781844 -0.10532087012670248 -0.44591259190939975 0.423996765672915
P 8.57289758536103 3.1384701726050337 0.17275820847098244 -2.4460758138692005 1.661935115313273 0.30399489649527
Ni 0.7121030808707811 8.829543326977937 1.7797092781494168 -0.33388165675237336 -1.1645302690618526 0.4106550542586863
P 9.251338009678696 6.494732425180737 1.8194213022753 0.6448591552130636 -0.08944173700260082 -0.07111619922053558
P 5.026394368512693 0.15065328671136877 9.245147592271435 0.4025190554151132 -1.9614858599942606 -2.605996116508338
P 5.85674175274173 8.243880287217012 12.98378852248256 2.969013514284403 0.17104186647359576 -1.4439274216131004
Ni 2.9672430972058517 2.392836205421256 8.885981819963945 -0.6773103337632336 -0.5672982288084488 -0.012811549942371483
Ni 3.039364104684848 7.982418436119715 4.820892183331676 -0.5358528658149739 2.5349850754070986 1.1299329907029572
Ni 0.9141634644982775 4.5783291541375855 9.917275108536094 -1.3720239506045788 3.0166833095565395 -0.009198121559500288
Ni 2.6411395916954437 7.221120513631698 2.6011937217913217 0.701926589650017 1.9418691142045974 0.8535897944866847
Ni 8.661192925834866 1.9947787251305937 6.032658735137809 0.020957318977957454 -0.42796912005710164 0.029025440698072592
Ni 6.603071689503598 5.182412188731989 13.539874711093484 0.7922743834066548 0.33639979518853674 -1.6657508895149375
Ni 0.2553503102422201 1.3642210077856014 0.38269232792528385 -0.21175322815002884 -1.184669720124205 -0.8517190598265331
Ni 7.731359010316287 4.481116123469808 11.333566704235604 -0.21329511871585202 0.32335247508627535 -0.5997044130532962
Ni 7.329014357424582 7.408503362836971 1.0120195710562112 1.283735867590447 -0.02842046012422202 -0.6280479971929958
Ni 2.8313712763737025 3.3807047041582656 4.148317390618162 0.6345261487181717 -0.6464329274580867 0.11126500352527934
Ni 7.589139946931945 7.152395837693787 11.458109996255304 -0.15163595114315817 -1.1616822580900963 0.5729140323333295
Ni 5.421510217386623 6.678375597853065 3.956313303414365 0.05371291614242363 0.601235504985842 -0.7122500830632121
Ni 6.459293654264333 3.2010053590951206 6.240851074728008 0.3502804098253709 -0.32648305029545704 -0.26121662498747916
Ni 2.198827725832556 5.052200920468314 12.582668776048298 -0.2416687847625386 -0.887794979613484 -1.9409661427743536
Ni 8.865910057331796 1.0424789116312314 11.246127870322539 0.30436076447512095 0.25232934980017835 -0.5953013988895941
Ni 9.074719489947901 5.6571840757170495 13.174922183734026 -0.16482416769865804 0.025951429758439178 0.8673202566988999
Ni 5.169671305655733 6.857314016177498 1.2931012685396188 -0.32549780356405233 -1.0242256837711134 1.7459939907374058
Ni 8.061731129238986 8.369312564377795 9.54864229404769 0.9176452302056971 -0.15998432310785352 0.5908240798445309
Ni 1.1695907953738065 6.024182753636096 7.874979292451184 -1.5887910870294315 0.26028177187803564 -0.3152774113876248
Ni 6.327727565221974 9.176312489160466 10.969225702145428 0.07139464969290285 -0.37509746886905077 -0.21449119590648222
Ni 1.4533700709418955 3.4827802422783067 0.6465872886675889 0.838508217563214 0.5154095103589574 -0.08840326843575742
Ni 5.958009966151186 2.979974700687733 0.7009666396618845 0.7840962184712367 -0.8315873220736646 -0.5074771428857583
Ni 4.149890281864649 7.958922503163357 11.13537034370567 0.7082139653206255 0.2995178345605229 -0.9069155024930189
Ni 8.864286128316248 4.152293696807657 2.112146106820455 0.0902097255168769 1.9965487651356648 -1.4464615008888637
Ni 7.367144210709604 2.9122800597253966 3.112595879610478 -1.538773617460724 -3.262971595368961 -0.36558438717229297
P 4.038201083972575 4.663682863194689 2.5858192898315684 1.2727749977035694 -0.7529498747754193 0.4386823927095477
Ni 2.189297582409894 1.1605246316698719 4.996951143521686 0.023051996723457074 0.36339175039634836 -0.4356829437615916
P 4.301361100840415 5.044591653081184 11.82872586006155 0.11427088023113868 1.4379478069908977 -4.337071281152382
Ni 9.067898988082607 6.865628532737094 6.062660591710164 -0.10127343953020623 0.2606175579508996 -0.3106969911057939
P 2.3894491534745455 6.624544670886306 6.290234292111046 -1.1618802330335152 0.5641622542826285 0.22259454173990695
P 5.731337314364072 5.147752903743047 7.714444165690359 0.3656594633846025 0.49795326255572303 -0.17798564478128057
P 9.183995993302592 0.9374710216888328 3.6303814703998865 -0.1731514566174308 0.2496248063848217 0.11681215859575367
Ni 4.417894246996004 7.175344274582048 8.644730925414414 -0.21118038636569433 0.4087750636271541 -0.05737185305124959
