# total energy = -381172.2757549255 ev
CRYSTAL
PRIMVEC
9.18905878594307 0.00000000000000 0.00000000000000
0.00000000000000 9.18905878594307 0.00000000000000
0.00000000000000 0.00000000000000 13.44911637752370
PRIMCOORD
 96 1
Ni -0.2273906039363604 0.8172601608811838 12.640972438957442 0.5133078906349224 0.47139505245122043 1.080921336690945
Ni 4.16049326276985 7.994462520646966 13.487984014558085 1.0260429394855104 -0.021989102676581485 -0.6866424097974367
Ni 6.729680508111478 8.167630328160998 7.147451863952175 -0.3894843337183421 -0.7120341103976641 0.4182439223495377
Ni 7.058262862109183 3.9073071338001446 7.412157396662904 0.7853702000876539 0.07067859746248473 0.8474299455328761
Ni 3.3977187053842193 7.154922568516192 2.6044346359525243 0.21831854007237242 0.5330773599523658 0.22456220698923907
Ni 6.992836765558379 1.154743036946178 10.535997132231524 1.0162971729526562 -0.3389649848125517 -0.9822673370614566
Ni 5.781516695401063 5.012539523525012 12.009536175868298 0.6507978892950017 -0.22975403560282365 2.249027238919197
Ni 8.894595124555268 2.5400579298829142 6.4539214569258965 -1.3109216839766198 -0.4803268077232114 -0.07396549574387261
Ni 3.6728207388867435 6.52108888006327 5.008262935697098 1.1080899266859368 0.14366835955664936 -2.6626053803619496
Ni -0.09265879033422576 8.390382295364374 4.4130986432420825 1.049543593710612 1.4623905134142945 -0.7233783317658896
Ni 8.509463304521939 2.7291319976679342 11.391159402725505 0.8315289580319034 2.0221178718540207 0.4667045889540865
Ni 1.8109337047401268 4.672185985583266 13.325666647325962 0.09788266868110239 -0.9676117919318109 -1.1040610080322018
Ni 4.505560787724315 2.6856861290594787 9.900391793298969 1.5831320889714413 -0.11006301279737818 -0.17160416673496898
Ni 4.277552679056464 5.002082374947088 2.36461031695396 0.09170867865990658 -0.14126720631432443 -0.017102206897925385
Ni 6.975092693586524 6.669492174908141 0.12063579785649794 -0.2170586995233423 -1.5350236634999885 -1.9027929741387424
Ni 7.361924489443154 1.6840144286783705 4.4985274823451045 -1.3110073017118906 0.3630014569364652 1.3270414723566177
Ni 4.337024265696464 7.014486187394572 8.940662631555007 1.810458746079695 -0.06596062316152511 -1.0156340854473607
Ni 1.883885640205974 1.8829116000045156 5.771714726694499 0.9243864055842724 -1.4023791658576685 -0.45870768679153906
Ni 2.1183260898268537 2.9718058437086903 9.901037784111823 -0.5873106673746336 1.3395601736489187 -0.11273644586448327
Ni 8.925406037720274 2.011438961304529 9.137423346778895 -1.0859750970647684 0.9934768326240309 0.048757114799045057
Ni 0.5939053914399235 0.9915269797923323 2.0662278037307247 -1.370162729026124 0.2593160655306566 0.8163946734936263
Ni 2.303513185864544 9.092876628961623 3.910465413208082 -0.6151603425970503 -0.5748783551485519 -0.7179602460741119
Ni 1.0907871897560661 6.963624748573125 2.7416024689641554 0.9669003676870832 -0.9318102088521695 0.41208510183699354
Ni 8.405332893550913 0.23576183623380179 6.356172847086123 0.9484737855507794 0.263407719101527 0.43895878629938595
P 6.030292076288692 6.212318136200894 3.931997215095419 -1.1505182710534767 0.6551255701360782 -0.9794638061743905
Ni 4.436302853777208 1.9385697273652207 4.863294510921143 -1.0440056946115182 -1.3538195117814102 -1.614363021961265
P 3.876321628523556 0.8796538681255601 2.6366726099032527 -2.7095912621931855 -1.7297330487938531 -0.3166863759200095
Ni 5.922449285681917 6.098410566981264 6.0260108939315264 -0.9060199872619428 -0.026110066823490517 0.67388433880082
P 0.9405277050933207 4.914124706943676 10.959738619382481 0.749272168813516 0.18948207545665433 0.5648369117521499
P 0.2400641534255274 1.5063072262632018 4.259200291411624 1.1443828475797002 -0.47022648606441597 0.28995153102832644
P 5.819816691247095 0.19604672537810305 12.14974283052731 0.46617622725444235 -0.5991837646631358 -0.36731731070299967
Ni 4.517368727902375 4.565886956805219 7.86648190832796 0.004018634241089853 0.48743590796416697 0.9854763309170576
Ni 3.6766525762830478 2.3497709063753227 7.757423405281063 0.7104181720607958 -0.7874234830722567 -1.0768610505786422
Ni 2.2971176011455325 2.2008070789616876 3.317358550952184 -0.2111125092422364 0.45675879059528435 -0.504279461884067
Ni 1.5954319046966638 1.3211660755180334 8.106589250328458 0.11762334164313937 -2.7297952479448857 -1.069647049328706
Ni 7.706155810073725 4.08082412553734 4.986044711139487 0.5676342719916289 -1.0749697470932003 0.831526386928742
Ni 8.186807893259527 6.236016718083551 4.7400866955892855 -0.7544462568152878 1.6809342821235953 -0.27883150985576494
Ni 0.30379946321153534 3.0217667547967135 0.5666138876820741 0.12987619086856345 -1.3407935318353874 -0.83027066014477
Ni 9.063563532332822 5.161788211752282 1.2672308966268897 0.16133929447385115 1.5585402585646901 0.6305483950173463
Ni 7.422094444529483 0.28501151419358955 2.612679059242606 0.22037490838076884 2.339537783505945 1.27467967092545
Ni 0.36503259236681523 6.909565517392172 9.945406234194113 0.029721952544464938 0.07680553629582902 -0.11479898482046681
Ni 4.636164876246307 8.556180477957936 4.1876110933219675 -1.7006168481541872 0.8224298239441126 0.49594831631055225
Ni 2.2428194544434676 8.706118345573028 12.150267525767909 -2.0954372493734623 -1.5624575913412253 -1.1130781239291476
Ni 3.106269336802499 6.280409059717953 7.020451724175581 -1.0416392512618704 -0.6804262536843959 1.2174682547114646
Ni 0.4285106085147021 0.005901213371478419 10.404021117274837 0.5433347760143159 1.1037519614322153 0.24188424320745433
Ni 1.4211246539280964 3.416344926972489 7.6050449237272195 0.49963065025814607 2.884234472864794 0.1754363959968656
Ni 5.238581173672937 3.527973609683046 0.520662162819489 0.8818973831821263 0.6128239811543899 0.6480223834323937
Ni 3.0339514463734503 2.7430626103604934 0.8109132781722455 -0.31044528010630407 0.37978381860112653 0.200356556277313
Ni 1.9264585482565184 4.343153367718851 2.3649732847648806 -0.14531283713860782 0.6683829493666166 0.10815165470727825
Ni 0.6929910092920752 6.543877745154 7.4488327669653716 -1.1393951645571216 -0.29126176519931773 -0.16978022615235275
Ni 3.7950352169942847 1.0972470978846076 11.967225155985128 1.7404275523932222 0.36426489702992104 -0.3065498017066398
Ni 2.2549122554351615 7.925002427412762 8.432245808098383 -0.355339312405517 1.6891898372641683 1.144346852135442
Ni 5.6293091303354 1.7191258212234015 2.673254251808976 2.1900445897374023 1.743308987706075 0.15992415929387943
Ni 1.757765812234094 2.1226081910898698 12.045741066375346 -1.2986462090433764 -0.13932473787597296 0.7586009024136097
Ni 4.419661468825872 8.311393148461184 6.8565069746823415 -0.29428512540667384 0.6172323946347306 -0.4295686033337376
Ni 6.770939380795904 5.530122432839701 2.013817089645449 -0.47831209128602786 -0.9297163024376182 0.8958913834683733
P 0.4904972404673367 8.55255998890723 0.5782270198198418 -0.3723551302372232 -1.70382969866453 0.2130773462780911
Ni 4.4913177470426096 5.063557176341033 10.273201085877995 -0.3774549133576338 -0.8380639309369438 -1.0463014326242304
P 7.846730027072911 5.8873838384294075 6.877851319776191 0.8187989120597446 -0.12068912505265667 1.5415138992100224
Ni 5.649984511970135 7.066119507130382 10.864344246331518 0.3528044617988053 1.5767215574594071 0.8633216770624681
P 6.968099820064732 3.613551311533838 10.006383907522972 -0.1681465472036717 -0.42874970697686804 -0.5475012486871796
P 4.631671426637691 6.018438190818111 0.6267948696386085 0.5503538876446263 0.045011274603367644 -1.375688801050676
P 0.033298391302127604 4.875824711097644 3.4087317920016544 0.4721728111575093 0.44328955246425594 0.09890159686391999
Ni 8.029831206830119 3.1199426558569363 2.6347759882279593 0.9625076379360261 1.144694722393164 1.588486411304819
Ni 7.42028420000413 1.9137868365790522 0.9890670688307241 -1.1119650933706269 -0.30606206343694387 -2.724010522942309
Ni 5.376683533934459 3.626737610487546 5.961979696461679 -0.26693193020470163 -0.11463726243162192 -0.4646813878764706
Ni 7.987304244072095 5.724351562445649 11.24175266269196 -0.7862587733401942 -1.0212599162745704 -0.10188639052385678
Ni 6.5776567242159025 5.583373026872273 9.043252956320709 0.008354285501966258 0.6836218778035582 0.1683524925668907
Ni 6.029501817257319 2.550781561157463 11.93114156105034 -0.6865413654431982 0.9151741429573851 0.9761303709257835
Ni 7.797099922091044 8.347377501564125 11.689366404931306 -0.6760867457687776 -1.9309172431787844 0.008213646159043918
Ni 5.667618315239937 7.911816128459054 2.156189605393931 -0.12491241910538486 -1.257744585733008 0.15277237874044658
Ni 6.743574364570021 8.37971379844085 4.591622752958285 1.3373081443899486 -0.693960797835721 0.6374595203148828
Ni 4.866892946231438 0.9997787543292174 0.5447871170167475 0.7609637462188314 0.6835167196842615 1.065389559603933
Ni 2.1015744361734665 8.466789316827848 6.082080691113226 -0.12873513528558475 0.4170272763336173 0.9764540728137893
Ni 0.3195044831012796 6.579218864161638 12.790996683722478 -0.5449869669057582 0.994472877988713 -0.6450087934170504
Ni 1.1808950974494907 3.9388347935284886 5.015363321203392 -1.0283757013837451 0.7882338947886941 -0.6335087631972509
Ni 3.629540273331366 3.4319847045468523 11.954609497564539 0.32009977247693255 1.5582993461984775 0.5987590184208913
Ni 2.998279521259655 0.7622526188625851 9.807121930574205 -1.3098179093894795 0.17603957679850327 -0.137187379817996
Ni 3.5028231565567047 4.015912616262779 4.280234965233877 0.47326450155979133 0.25822746045216816 -0.7324702667648288
Ni 3.0130463382761072 6.119278918844589 11.945221955396518 0.6622004747049886 0.47239829690475416 -0.8411770226446288
Ni 8.267616473746573 7.6020713443952195 2.2860135428489046 -0.5792160632919573 -2.187922658298393 -1.3879732748449838
Ni 1.2862935984941148 6.562228294987139 5.077135848092875 0.4803162662002502 -0.9988527522239636 -0.15019587626252198
Ni 6.797504948931913 1.521790789842992 7.962522272191777 -0.04238926359948829 -0.2904086731704031 0.16812829237122656
Ni 2.4559229102173017 5.667361021601817 9.384308538332185 -1.3908112585144112 -0.9059911909065363 0.06561378134506765
Ni 8.997181773697568 4.623704512914441 9.042338644999528 -0.11640309608279308 -0.2520215887517724 0.15426027613988272
Ni 5.143694955557263 0.23963318658167448 9.528308436341785 0.348822851443238 -0.963825071195869 -0.5368944197056108
Ni 7.444892498678716 8.369054490575833 9.356617310529398 0.39640857164200116 -0.7154269381292968 -0.40037809781271044
Ni 7.050369460853966 8.775422224812658 0.4923396466974541 0.3907932823377528 2.169581179676728 -0.9454409122617267
P 0.18366171232597192 8.843549904563735 8.284076834245372 -0.5113775063814291 -0.4586773477742359 -0.6597386434280573
Ni 2.161404396095136 6.883633994292964 0.6302784417175987 0.1732789833342306 0.5022572892477156 0.8778674360871268
P 3.300296307121351 7.957467371108548 10.499873105439319 0.44504355904088516 -0.8608752724045046 -0.003912704790844874
Ni 2.362865314743988 0.5236623904211516 0.6698281495202196 0.976825340110279 0.0808326551773511 1.218604939419069
P 2.9620011182845745 4.23436410408613 6.2296174577411385 0.681472178450407 0.13920852401308284 1.9842506644946019
P 7.676612986982316 4.371951877071409 13.321510436164456 -0.9746486441739343 -0.808200310608292 -0.9546632021909429
P 5.478461545928378 1.060885993382988 6.377476760322554 0.36410985950929553 -1.0150676714209292 0.9139631533684194
Ni 5.946395972144193 3.8884879419832843 3.602735789674246 -1.0346949587335534 -0.20023391465651966 0.19099208434327752
