# total energy = -381173.08129093697 ev
CRYSTAL
PRIMVEC
9.17644077972802 0.00000000000000 0.00000000000000
0.00000000000000 9.17644077972802 0.00000000000000
0.00000000000000 0.00000000000000 13.43064864998881
PRIMCOORD
 96 1
Ni 1.266881064376491 3.6757977160050603 1.9511242081381415 0.2721065324271056 0.26242221525980614 0.42586312945769234
Ni 4.596075434812556 1.7166367810116774 10.900153537485274 -1.5601348567453195 0.9900863188852432 0.08031432078003588
Ni 7.618024214283564 8.627203291590236 5.068942017610023 0.27376180864234145 0.9085412110218999 -0.5507549797377869
Ni 8.50626697824789 0.8175208523399126 7.277759954021261 0.4494902819583291 -0.4684084590190707 -0.6631355849247482
Ni 2.843650534669293 3.815857731980798 4.867226413523207 1.50870096644506 -0.24635976248030472 -1.5612111205286339
Ni 7.040972910829572 3.1206505767477584 0.5929641694504233 0.7533831056580961 0.7139251567727898 -0.9050643082168929
Ni 5.0458953865333624 6.553979197415932 7.051856169621895 2.912928498365377 0.9413580004416047 0.7206514197530298
Ni 0.39670395942097353 3.4052578882518865 13.198674853321867 -0.8153922003710409 0.20785800686068073 -0.8467383187824901
Ni 4.318405512555473 5.908058705735646 4.6641288374514644 0.14403988396345518 -1.2341202614458489 0.6988505218278545
Ni 6.583417219511861 8.088160805942149 0.9170852350521417 -0.37964215081693975 0.36174727281438995 0.28239325906509427
Ni 1.6723237483741331 5.644749913335213 5.5245761622235925 0.08250592911471596 0.5281241297121486 -0.4565219919941299
Ni 6.944574400194368 0.1081654606768533 8.78513534367384 0.6334419145150575 0.5974277012039775 0.384077560880474
Ni 1.9342285453317123 8.807538706250211 2.256577640214377 0.4899658734748723 1.9497215203694809 0.49427169993907777
Ni 6.846267189872146 5.99370242774977 12.861887546479808 -0.46334595689449876 -0.6890199088906779 -0.39959519690009887
Ni 3.6068642926931465 8.672810202381 11.247631397862792 -0.5152413602122095 -0.5680680170949377 0.5825052755661905
Ni 6.843495904749648 0.3288946501074236 2.8525351646547294 0.34235215611722974 -1.0462934622044304 0.3028497271472333
Ni 8.029367349717518 7.469925636164424 10.176845367581299 -0.7161699869429086 -0.2816319554190375 -1.1359056633466242
Ni 2.298285481307958 6.733323556469186 1.321347828762522 -0.4416874980844587 -0.4116649835804394 1.648614486944967
Ni 8.247252760143247 0.8688529445476488 0.3950476118560374 -0.4025869325385712 0.004828788847211039 -0.18956692186097676
Ni 3.512438716830581 8.36221521052286 0.4626293454376737 1.1520349648083192 1.9205742093815632 -0.11808973975659662
Ni 2.9456742035167185 0.5539945782924487 4.822180183265506 1.0641572298587287 -0.006799796530652805 -0.6243823754159504
Ni 2.3400841691654883 6.530983036763688 11.864527724927363 0.791082934201715 -0.18373540278086423 1.1776840328349911
Ni 3.115612710746928 7.002853975734032 8.392127654608302 0.6866357249292174 0.9848327837957879 1.3509002812520863
Ni 8.203169138525777 7.851885808147266 12.431972212504725 -0.7501867102079856 -1.285340750183722 2.626195731384664
P 0.7136820835016598 6.8337046424128784 13.400765773837525 -0.105169946371135 -0.2293112916384502 -0.740150409017906
Ni 8.065632643770856 1.861092312132038 4.8797439964225395 0.3843282434386994 -0.28002758704639513 -1.6322255040639826
P 5.729485167709841 2.0041897300135587 8.857352097505055 -1.179826790209607 -0.3546479427654473 -0.3638810313279411
Ni 7.634092162129565 7.671440276197655 7.192045573412955 0.5614947347527943 -0.6080499568045141 0.8938841232303574
P 2.625774300684366 0.5705424539924453 9.620655784648777 -1.376344946577436 -0.2782532687547917 0.6503122079078348
P 1.0706612306865744 8.464615113443207 6.509848775950366 -1.5686750330058468 -1.1422709434430198 -0.32057748344429954
P 5.281004976346268 8.197553156754358 12.730777313219209 0.18831762283490794 -0.03028013904078011 -1.1214586346833588
Ni 8.609244996938823 5.447465612512152 1.1369298155893055 0.8173464958839343 -1.430856190251439 -0.909873299569762
Ni 2.5859669004810812 4.838214178280536 0.20704711619334143 -0.0983459814707661 -2.140950917534545 -1.0249998429329767
Ni 5.4167245358222 1.537430068570468 4.515720095633185 0.14308111959461164 0.7005397366048193 0.41741371313875847
Ni 5.440106106988169 1.2202830979790071 13.255190716939202 -0.2833707924870152 -0.5298524252571649 0.9616851420347309
Ni 2.604512487343884 7.147814211098557 3.8666970493174144 0.8682985614517691 0.8151620866381057 -0.6009699100292811
Ni 5.567520987537414 4.195340264946837 7.598040679146935 -0.43795682739743286 -0.10885279453936092 -0.476267035831541
Ni 4.180419372201207 6.117556849267461 10.33746244624385 0.3697675720157051 -0.0685191279173207 0.4650678246816119
Ni 6.130385513510014 9.185617243773395 10.938054990933782 0.3226374512971218 -2.57468573643083 0.7610557917120054
Ni 1.433185701048724 2.1959773427956404 3.840426734586671 1.1658942392889147 1.3897823030292646 -1.2535601153380154
Ni 8.644354059450988 6.315153149077823 5.58101219080594 1.2380427364287065 0.13338626090435093 -0.32919222169650403
Ni 0.9284355746813358 5.741304423464068 3.32256806253224 -0.7459222785046766 -0.5075820438947388 -1.0631421583306528
Ni 1.3021094206190944 6.652286407738154 9.69563923538209 0.03955102281974479 -2.0714694257039548 2.6304398513729987
Ni 3.1166771778800726 7.614463755252011 6.241491105820138 -0.21087648197203038 0.09351847817513573 -1.405140787763206
Ni 0.4136445867873373 8.569648654874007 8.872327131251424 0.8178488894416495 1.2972310738634047 -1.4618289844838694
Ni 0.5775661017830389 8.104127812939316 4.040892507436122 -0.7308682123850315 0.2770155396929487 1.90949481163895
Ni 7.750596254564078 5.3227486055589806 7.703498172142832 0.08468905280896383 0.753669012329631 1.0287582815341443
Ni 5.163023476942477 3.987971055681311 9.85849903617689 -0.7340589514081873 -0.38129716992185947 0.39878092852891966
Ni 3.121072693024695 4.864220211516154 2.651048971587988 1.0504789610406877 0.6709897908618444 0.22438042999573615
Ni 3.291763668400748 5.164601824760588 7.0521654156769555 0.08308159911252788 -1.6178998314699296 0.1544932180862952
Ni 0.2819654141969526 4.318350453910655 8.904882390288122 1.0651532752234107 0.6258602455130576 0.9408687195100119
Ni 4.430816912391862 6.292000988931928 -0.03499527464620802 0.9109598477657215 -0.7008598389483994 0.07194383732815351
Ni 0.08219980378076819 5.533146040289486 11.60765345281797 -0.8319087099688253 1.0406038680188208 0.5751316088099385
Ni 6.7392056550238895 2.0940087325930334 6.550288432924977 -1.5231965889580734 1.092362745758667 1.5915326543303105
Ni 4.898485041474446 3.8175094913253327 1.3019552564136048 -1.052409345294181 0.4631351264352733 -1.4317887293680374
Ni 0.9782269424782534 6.232335770831015 7.661876589592799 -1.1576908775425159 0.30701594270978094 -2.6167471843772545
P 5.013640197110921 3.738087396175624 5.401471455919504 -0.36793874633708246 -0.6697019252883563 -0.0007895857808308982
Ni 6.551574969925554 6.530331509466676 4.860820340198654 -1.1204474198100252 2.295216078770434 -1.9671044917326186
P 7.701942765426729 4.062639754495081 12.121804842788004 -0.3818093336715876 -0.31522161844902485 -0.4779179411714027
Ni 2.5931704065114127 0.4636727067569715 7.436214145586552 0.488007721307237 0.4596263419510665 0.7100900992974158
P 3.343335265713442 3.024848534764747 12.605738213193854 -0.3437832321368015 -0.09534653252280999 -0.7713090940088975
P 8.42585382749146 0.44219432941353887 11.536766365259107 -0.013649729572950686 3.0468161243861784 -1.483798546776425
P 0.9565063070976223 1.758068411237089 1.0705098194133253 -0.013184359900757937 -1.040312047810015 0.6860747102194249
Ni 6.942243584230413 4.655703947150257 5.758699284650178 0.4096500100329396 -2.5950342181801953 -0.6015432660342479
Ni 4.358855263614967 0.3595861740170385 2.687740970138665 -0.027392018859707667 0.5795107117142407 -0.5212795959864893
Ni 2.018101214270862 3.226665997344476 6.789810973120031 -0.2583878972894324 -0.4714750137595364 1.2273469472777572
Ni 3.2235276545898603 2.621002551466822 9.154759626285246 0.6415714856007273 0.5561686945541905 -0.6105197585012454
Ni 5.111093998438468 4.095271177990444 12.246441097062108 0.8756028084226661 0.27378829100490265 -0.013676469045828058
Ni 1.04194814741408 1.326206754167695 5.729783402035939 -0.970415065708561 -0.318375076476342 1.5785565537856168
Ni 6.771910490045676 2.042850075116473 11.52939217742984 2.2583642000494075 2.399271966141784 0.2824858187789006
Ni 6.00837555659372 4.093949770514817 3.3031066668772997 -0.06088552263146287 -0.06212685123773171 1.8642251411678732
Ni 1.0392135680547947 2.1603727524801153 8.633905763952725 -0.8882778327871733 -1.7151327823821754 -0.008607539163352919
Ni 1.6973846082070456 1.5596095259912477 11.98086388849518 1.2678310234347325 1.5537248394539178 -1.4543229059148117
Ni 4.40943580532094 2.045814065495833 6.9314502545579595 -0.5317843521725552 0.07619695617755264 -0.249269479927932
Ni 0.9787041174000077 8.261613889999895 11.190832899868727 0.345947586777972 1.7649088253640377 -0.7251045704283771
Ni 1.3862482063415305 9.05513743199596 13.304790297123338 -0.9366032593654385 -1.4756869734128844 1.999516332404421
Ni 3.6336503233970174 2.490339210873326 2.697263362759908 -0.21005064363662534 1.354277168144119 2.9490506980092306
Ni 9.121391334593406 2.4956982523022604 10.644675919666096 -0.8928873065347268 -0.12255291773427278 0.8150754404615705
Ni 7.1371970690895195 5.2899061239251495 10.325375238418177 -0.4342945480544972 0.26607549574167727 0.18281931872449805
Ni 4.609289509568833 7.3964498746550404 2.525874977882829 0.30998608108169834 -2.1187239878155446 -0.39158312522889976
Ni 4.611464326039137 8.906249679967765 8.93404053093956 -1.276533436304737 1.386558139665012 -0.9530079259757072
Ni 5.832481539282381 9.027140111106096 6.659587184040997 -1.5509557613492129 -0.1589545962917585 -1.1630554842885388
Ni 3.199705614265349 1.6449963076628875 0.7953157008848848 -1.1998543982844432 -1.0300854849860002 -1.3445784527991167
Ni 8.850034803608768 3.1360394679743404 6.773842130834701 -0.332621301982711 0.7151528585323038 1.174392249457597
Ni 8.813512569212946 7.738758645928246 1.8299529779112382 0.215632508599777 1.334868424600204 -0.6521286922912833
Ni 6.339388129238468 5.882346318605723 1.7906548701725173 -0.5849851045652507 -0.35929726861200056 0.11731635192568182
Ni 0.03595513035419872 4.0552802489710995 4.714587332494758 0.3169972222922089 -0.21257392427911134 -0.24174900318117074
Ni 1.7917734783063992 4.119212512045395 11.154247348031365 1.6176370647268463 -1.0076487532490388 -0.3662047943651113
P 2.5489399618410955 4.736731919440486 9.152006694044356 0.332621301982711 0.8526708822168412 -0.23532587326364635
Ni 9.1068558523615 0.9236454725821852 2.930957027756915 -0.5019968364974774 -1.3780238769417559 -1.234246759721384
P 4.558754850066874 8.25248333140094 4.598076816551683 0.9567902758362747 -0.04920628652132171 0.43734156241093713
Ni 8.259778601839301 3.0986638245838414 2.7385628522377563 -0.5253568513796566 0.44078298399231824 -0.2967256165273664
P 6.103232425174024 2.1502144325112273 2.2702899957062557 -1.0356578368674552 0.3487745147038058 0.09904712130284878
P 5.867966835867469 7.295949494980908 9.274655331240538 1.2462635816766021 -1.861677435045355 -0.02768383906851361
P 8.039011789001439 6.203751157729762 3.0800907083986293 -0.9797679676783707 -0.039265887479158185 1.902883734080336
Ni 7.367094440526338 3.3309837763926438 9.071718342882846 0.5700685924647343 -1.1625759735489591 -0.48233432507154356
