# total energy = -340864.6548653716 ev
CRYSTAL
PRIMVEC
9.28482215172681 0.00000000000000 0.00000000000000
0.00000000000000 9.28482215172681 0.00000000000000
0.00000000000000 0.00000000000000 13.58927574325541
PRIMCOORD
 96 1
Ni 3.593504703629218 1.221891875312789 12.492132071754488 0.8229301606192989 -1.7315773010914437 1.1035568147022736
Ni 3.5337197340230673 5.867914729211249 10.568529551706272 0.26744435106474584 -1.1566863475374014 -0.234791340916415
Ni 0.11950030304643011 2.8127718663451056 4.730155412539896 0.06351987493051642 0.4640254994600267 -0.378627079288864
Ni 5.888657021818818 0.15715489913864078 5.661863171362113 -0.9955031190254404 -0.5408426057200815 3.064300654324187
Ni 9.03066868040404 5.684938739767482 11.222363939681774 -0.41679073484277895 -1.2981885526806676 0.07399660609212418
Ni 2.9268823301530866 3.5368022949656424 9.004335996400311 0.016462773541713584 -1.0291696580399503 1.9921197828300337
Ni 6.197897307220659 1.9031564132661523 11.754845702598667 -0.5490171711110738 0.3564546569568829 -1.222416085635043
Ni 0.713581289810976 8.980363514178519 8.94425762641529 0.8733152979400701 0.5657704793100127 0.7544100042607137
Ni 5.322654265615843 0.04630712182228861 8.641149037538979 0.42021184470918593 0.32194376766420685 0.5294659884520235
Ni 0.8236992801089957 7.3189374447073865 7.0300857001904875 -0.09619011147002789 -0.21220985607147322 0.8462937750459039
Ni 5.546214212529479 7.363272470312197 9.95432092755825 -2.016380198039295 0.697765773404108 -0.6514290951210975
Ni 1.8003455779735746 3.2680624036346235 12.885051816478498 1.8067617568440817 -0.6315464972645574 1.2855382109065085
Ni 2.5425835427639614 3.6931958386907553 4.8670396880344695 -0.34858913816587705 0.46314798195107976 0.3879838379134157
Ni 6.638833509518547 6.810352028470934 13.049781273499525 0.4163706165862248 -0.9463184297706735 0.4109766992641632
Ni 7.486231369596907 7.343152260786412 10.829918649367904 0.7190046281782262 1.3040211002020445 0.7671210240694788
Ni 1.5958659405087108 2.877459222028605 7.0930312232449895 -0.7238966661632049 0.7146322101421435 -0.6538693291314739
Ni 3.7467692623011746 1.712455451821715 2.6391048395550314 -1.4553503187380614 -1.0624597875516477 -0.27274365179047216
Ni 0.6428597282341645 0.5818835159505065 6.654532286752602 -0.18400459728185084 0.6460704019123453 0.24883007839766821
Ni 3.699379530220138 4.186795552031676 7.109990879322424 1.0352570018846108 1.9548547278309882 -1.031202629309579
Ni 6.716807445650315 4.067866265545391 5.9884809298366175 -3.448591873877364 -2.582859016270242 -1.6326427941070594
Ni 1.8469925242853158 1.3048796153872997 0.7933360548246295 0.02720664232177895 0.664180738359811 -0.6785997419986184
Ni 3.192716072161738 8.925843038712248 1.1190949672533854 2.9450575176894374 -2.0671574285921626 -1.9898312439061732
Ni 3.329184387625506 7.703681903558089 8.866119348932065 -0.8254385288634494 1.3566011882916054 2.358372913934577
Ni 5.9557584312525265 7.671974236031299 1.8491475314984838 -0.5933226778966685 0.0782299274471814 -0.3438467383848852
P 9.05211661949244 1.4035122807275917 0.8942249319391558 -0.7280011752498817 -0.7120585358776963 0.10616110663981071
P 7.144828460384582 5.954644252598584 5.3935698799748835 1.5772956847953221 2.6915729712388936 0.8098753843178698
P 5.042271207351122 5.649247883552845 8.488174165317048 -0.5389914114439556 -0.7663520071139381 0.6801575734040415
P 1.8395182424817824 1.8750883960089082 3.8158817642052503 -0.06006174117858688 -0.9983033074783968 0.26930685819478134
P 4.482628554297738 2.951654235559083 5.601037373196737 0.760182902188749 -0.047554352740195524 -2.5649566820685243
P 8.827656044833533 7.8851537518190336 12.496358522781778 0.15233889074745377 -0.4508359973529461 0.10466652437215522
P 9.08358288164421 7.021386750349829 9.426581851778307 1.717995705752267 0.04678919243939684 -0.843896735568637
P 4.437337192014961 6.637190096003981 2.9027232230067592 -0.5870610132576728 -0.015380596221128348 1.2496409827892674
Ni 8.372003399481484 2.5632608416167173 6.843858166041631 -0.5409961005788101 -3.0258228099639632 1.0274390485020886
Ni 5.9607815200173855 3.6682382368424356 1.7934172437104732 1.4178273820919387 -0.3284427451249892 -0.3814259821902399
Ni 6.721737686194012 3.683651041555312 8.618767045345692 -0.47765877397274503 -0.3249506728113307 0.6036009198942249
Ni 1.7111184374369839 5.52922298805685 12.477469480668601 1.0384258865308955 -0.5357903880081547 0.3173780026703954
Ni 2.131544467680207 1.6400431241375453 10.880090114154951 -2.5175648230481222 1.7967588799950989 -1.8545595930536514
Ni 1.4791742961524283 5.744305892378404 8.73254975493297 1.5831002072922413 0.5764192172731105 -0.022710811333954434
Ni 4.235123051146448 8.594077774856528 4.066223780513037 -0.7492703690413032 -0.5168375010547357 -0.23949106038492946
Ni 6.260727698480921 5.4247594544275906 3.4782429218788287 1.6263068245867023 -0.4794516042071098 -2.376735475602165
Ni 7.471375654211003 0.7356373847479867 2.7038720447087297 -0.29457257474010556 0.20577978417541334 -1.390379313183315
Ni -0.033869174115439785 4.743894163825224 3.243324852070457 -0.7128329521498755 -0.6046884965314488 -1.2860483177737076
Ni 1.8772888988504455 4.945746196631205 1.1341456639037304 0.24063391574012105 1.0537676590942884 0.888249036431767
Ni 8.473969315961487 4.668714959150429 6.976652477394023 3.0465240470670563 3.7302058315742723 -0.5447781933290617
Ni 8.95405961312335 6.082533392426993 13.783873663847379 2.5803339358555433 1.1189721208160792 -0.6190807606973789
Ni 9.267403789900548 3.0312901548496494 11.75761815048256 -0.6625504018452396 0.4321548760036751 -1.048594599533781
Ni 7.862768045696898 8.145518733601248 8.003566802195659 -0.8902449838158732 0.7145296231260082 1.6116006287247793
Ni 7.92181951435587 0.9812757101717116 4.8672978060893 0.41301378429885 1.134441420096272 0.589016851432463
Ni 5.693387927893215 7.201827983355876 7.105451529789818 1.319425607682573 0.4615898934353405 0.31662081278939663
Ni 3.073378253502341 1.1220150438089274 8.408989488381328 -0.5341091436509898 -0.5924834698248247 0.09767903731072855
Ni 1.9593667263575696 8.91459911912954 2.838378477259347 -2.0428880145218367 0.22981497074774612 1.8179000328490884
Ni 6.608332868866861 7.86254520996611 4.119439738471983 -0.5418677045504862 0.2427928710646528 1.131691882375593
Ni 7.055443477872015 1.8728878931673711 0.2501442495967121 -0.45044210434863713 -0.49928278000042403 0.9810391210813103
Ni 1.4845316385134701 8.934840031342837 12.42512351054194 0.2704376293651149 0.9360568999436654 2.092612378330157
Ni 8.227345870911234 8.295570743821003 5.878517067585726 -0.21206638851507348 -1.149021631903292 -0.644359846979142
Ni 8.652572154188528 3.640244498162121 0.9001375066627457 -1.2390398102346531 0.9650869686274283 -0.7051445823666824
P 7.140111770749558 0.8948980815425794 7.8121072707843275 1.2142109241164314 0.6353995524620605 -0.3801810540395452
P 4.045916946062717 8.714641190035262 7.021524165717149 -0.9051681807846088 1.210765388769992 -1.6313094200076164
P 3.2016759255038614 3.175706278044877 1.1440915653545938 -0.8021595037308509 0.6336877119772765 -0.004028661543418868
P 7.372510868317806 5.509734146434966 1.2587015525924263 -2.4771810199144366 -0.7761882764780696 1.7907923779990191
P 1.5891158748302403 5.385809625650171 6.2721303885218145 -0.09601964733043462 -0.5138817608605214 -0.43620179237953904
P 5.15073649931246 5.168377661333222 12.692981343771923 -0.5048137371209822 -0.2705744120532953 -1.7457425368482322
P 6.132002924662055 9.112848640954441 11.434056955448707 0.11578834531692961 -1.322935163497728 -0.7779952477798214
P 8.991848839136246 8.533234335529132 3.848998867729279 1.9824989719108177 2.5985998240442667 0.8129653360971031
Ni 4.991993895591951 6.183951504402141 5.113658490673664 -1.8564418976780286 0.040081955622550326 0.7183605668363241
Ni 3.8274265120245214 3.3110418452104695 11.336812371014785 0.019105610481199353 0.8696224224695153 -1.6088744880428676
Ni 7.371851645947556 5.932128558966822 8.699432651408943 -0.8555314915940878 0.12675230052760106 0.4121084988757612
Ni 3.072134087338771 1.2550108358012406 5.769395338700774 0.22674455935253854 -0.7875332691772438 -0.12256474480881473
Ni 8.707399028784634 0.7531429883658523 12.173749022014835 -0.6869884802829459 0.11090427775175092 0.7270737783396058
Ni 1.683978902391359 8.35782547611006 5.151694692954851 0.3851738792684463 0.010613256739472044 -0.5186825246832745
Ni 2.714640581399088 6.034103760268943 4.020889708048526 -1.0580236061571648 0.3049384913554619 0.12870299649606867
Ni 9.164630093896436 4.233516776920347 9.080911638321382 -0.7993863118610878 -2.1399700416785143 1.5869602044682798
Ni 7.7699476790013415 8.758159151293848 0.7843854863046218 0.9749386646105274 -0.33752722392476064 -1.6888473663230847
Ni 5.841545834401267 5.0996421232070634 10.717481310505258 0.6576354810421254 -0.4448188446245887 -0.5841345836394972
Ni 5.554728394410025 1.4498528279094984 3.9376011397374504 0.6821751180547025 1.6921116388966535 -0.15806653725985037
Ni 7.889220503905924 1.690134739454393 10.036536170432692 1.02049552730472 -0.6957181468464599 -1.5491513611506222
Ni 1.6513613222971815 7.174827720641994 11.035551461739598 -0.8713239785416542 0.9140780816797289 -2.812906928964401
Ni 4.7862608071414 3.026294920551139 13.318998404687317 1.1691207166460125 0.8181805617494555 1.736972503965086
Ni 8.168331541540727 7.186183058090094 2.657586277977309 0.08467928261695094 -2.3957120167046675 -3.234822386628254
Ni 5.353563438440642 8.682357863537268 13.429180460257939 -0.20703756784191443 1.8285017196243347 -0.41327860792446247
Ni 0.912238415326777 3.074492432156284 2.02357869914872 3.809759362928884 -2.7031982141826476 3.488007913781141
Ni 0.11220521830973922 6.461595540142586 4.511816321102195 0.5564661711899513 0.5294047961967849 3.0063780709757904
Ni 7.289875951483711 4.110715719611611 12.965691425039823 -2.8583745743788964 1.2462841505018925 -2.743215892226166
Ni 5.41496396709501 2.191450139973868 7.3002535971629765 -0.4231166770608068 -0.8005584777923181 0.7029920548000538
Ni 3.5699676795646744 7.395713638786166 12.625388767248266 -0.36531519267130635 -0.3432756963727636 -0.31954364286314646
Ni 3.34555352901635 6.637988590705974 6.93785491969931 -0.7575596056332888 -0.9780059906819415 -1.7033309046512406
Ni 4.379780579716696 5.740805514440599 0.8885686183059724 -0.9761925916222863 0.17747039570775885 1.2776953178233221
Ni 4.055517452130858 4.048247436413881 3.0125385281037906 -0.5706992840701978 1.4061499457540105 0.3511864665794081
P 5.344733572608145 0.9767911410895915 1.3692420022967324 0.7353167350746884 -0.39419845136455983 0.38943831097175513
P 7.463270004503569 3.6451468842394696 10.779624624928923 -0.12968284391083473 0.4906562146736776 -0.725320543093925
P 1.651769854470294 4.269486177798469 10.529799773213009 0.20824907165151232 0.6134850117771564 1.8887776336962567
P 4.757663555023534 2.042382320898429 9.630366056066668 -0.21873325901228782 1.09611552793288 -0.30223703326389884
P 0.6686873179147717 2.0344530828112024 8.816110368532051 -0.00802209897352812 -1.0448947820846908 -0.018074855223839836
P 2.8067645864359303 9.018004183037554 10.734263626480274 0.9824678831080371 -1.8658773320593156 -0.809855843933844
P 7.376215512342166 3.5428652838075148 3.6236887318467415 0.5052994185081492 -1.5757463380303314 0.5091545305881812
P 1.6724192988567017 7.0994813891691075 1.336324522448202 0.37355583541354376 0.4186511850902854 -0.14464075077224767
