# total energy = -340868.6483711963 ev
CRYSTAL
PRIMVEC
9.22383704754480 0.00000000000000 0.00000000000000

0.00000000000000 9.22383704754480 0.00000000000000

0.00000000000000 0.00000000000000 13.50001787881663

PRIMCOORD
 96 1
Ni 6.299041362484757 4.830265215973311 9.117479790493835 -0.7310638733356054 0.17405519937862282 1.097838681271574
Ni 2.1618275938536504 5.506593846673495 9.380906121064394 0.9006083293280682 0.6185647402929089 -1.0604538128652123
Ni 7.422809106526211 2.3421905042883155 12.659952534626441 0.002448718650808686 0.1743285076446675 0.9644310802109842
Ni 0.11953354960135606 6.468916770149441 10.41109250353758 -0.16773851313197563 -0.03257999081855034 -0.719138068432297
Ni 8.855215663396464 7.796983281871032 7.962553924766367 0.730617015606174 -1.8872216020630468 0.8827353057023893
Ni 9.279180111346703 7.046162942841588 12.855175968994896 0.9222683308000051 0.25767621593438844 0.21706332750903265
Ni 3.71292648638276 7.193329263593612 4.441681562328345 -2.3616436142660486 -0.13423729605073653 -1.4759294284409936
Ni 8.503916604031902 8.962756380014945 3.700192979281652 0.4025136560984745 -0.1951133056005027 0.6871882549985778
Ni 5.649009891324781 3.705685774268041 6.218769997835645 -1.0579624139019264 -1.026000516283349 1.384300711089403
Ni 2.1176730857094985 1.7035504719330243 4.478995672887431 1.035115334100424 1.5889088435542185 0.6152431321188436
Ni 2.7091516390296846 5.4662211117357575 2.7980943329259893 -0.7432753278001328 -0.04959889397405007 0.3965826353260202
Ni 4.074214961314508 4.349002292027361 10.235159802056671 -0.08481426553291845 1.1418269139270656 1.3233956480739144
Ni 7.2487368529861165 6.645774622490357 11.58552678470789 -0.6900072125046117 1.6265845037281212 -0.5315020450454458
Ni 8.160310224799408 4.498419229029055 11.463472360430158 -0.9092768036363437 -0.8592729609143912 -0.5885661370482895
Ni 1.1134739418503379 2.7021230751680085 6.7342413663928795 -2.1577723599672582 -1.8407440273267976 -1.1823094474221445
Ni 2.181059294183827 3.2667325910484797 12.722079689338146 0.9745483711506441 0.4878475415802888 1.916376369250132
Ni 0.6983542312845631 1.7328177070158306 11.766534441355061 0.4427665900812504 0.5226551361777773 1.890036960024655
Ni 2.900112738279397 2.2592220896744353 10.746540398865015 1.2780282756827086 0.9262041755193016 -0.546066316012866
Ni 8.333838271951263 5.392421191188157 1.8415372300142612 -1.6066065179442977 -1.1571650869460328 0.7061329144218806
Ni 7.220281315567125 7.5056391635837585 0.45179553159831637 0.12267813045822744 -0.9509587567561621 0.07666232584974539
Ni 1.067797500586532 4.104432251617463 10.70011405964589 0.3370482274058131 -1.5619318007447425 0.4064667272089516
Ni 7.190451426421902 0.6465836008561777 5.437442740018658 -1.0178830293825374 -0.2983695798886926 1.3649809277148686
Ni 0.3201243347717902 2.174325893108993 0.567848927466063 0.3648408241380491 -0.217288041925329 0.6091169646164477
Ni 4.926488284483817 6.697409662513537 9.634922293036947 0.2239507986574853 -0.054523584969177065 -0.29258434066548317
P 6.696450383456301 1.5839357525652868 7.358589985562762 -0.2760999698572148 1.8343095845553636 0.4528710255051039
P 8.725676095321164 4.35009992864093 13.459976510222456 1.204132971055139 -0.3841271831714868 -0.03684750784565267
P 2.3925249832819726 2.219264427405694 1.4469857537728326 -1.2146778364505209 0.19369559931736965 -0.530808361412531
P 2.820169742230648 5.2819657420496124 12.654728153299338 0.5080286445138541 0.9941520043141846 0.1959003202781723
P 7.678383184583065 7.092116099218058 3.2888605762245446 -0.39551022819744786 -0.8643640022840533 -0.5507444382148257
P 0.3160012795930904 4.436425819955138 8.642562866464989 1.3773404777214862 -0.5183907044744684 0.20424329292622892
P 3.2327058560278457 7.861033606615756 2.379512916300783 -0.2359082281296776 0.5985631003600014 -1.0561050489782133
P 1.9484433466410314 7.6307051706709865 9.733040860069206 0.2722134903186151 -0.2835913931382535 -1.0235024324518438
Ni 1.8535392868342258 6.95088992955123 7.4570046377655705 0.04396612116830493 0.05803108390180328 -0.14121321314793747
Ni 7.906737719390828 5.274319181102986 7.571188361855414 0.6343862807061978 -0.06935447933442249 0.28232332505910734
Ni 4.94869928419368 0.5334606180315472 9.830240732927415 2.4072308159775444 0.48839184411953307 0.9020121516541304
Ni 2.454094095849805 2.9993335538437678 8.322922783140362 2.008012799911206 1.9854925073215033 1.8713936338918546
Ni 1.3471506306583472 5.255963745296246 0.8737491830631934 -0.21847254915173342 -1.304653848690037 -1.3583585373023446
Ni 7.882266879594205 0.21457781173191143 9.479861290120606 -0.4249653002337714 -0.005043475961178411 1.3240880461552487
Ni 4.83905553271895 6.216727840304182 2.413844037945348 0.557824999210691 0.0707575303295362 0.06722020660023907
Ni 5.022932725084454 2.8959804592636087 8.736293654194096 0.37939841023724985 -0.7915282492692497 -1.368963052291068
Ni 5.0750381807991625 0.5942364806097414 12.404396904243765 2.1560054978748227 -0.8198157833600332 -1.5743908524437014
Ni 5.842433755077207 2.819570192819875 10.992591787511378 0.24961040820711847 0.35524598136076235 -0.46223189789471364
Ni 6.2624965199388765 1.1969035483186587 3.3431041173764404 -0.7098461016074098 -0.061502587390171504 0.04435975706229779
Ni 9.083348826114097 1.7941931190047977 4.818102664388 1.4981231909292134 -0.7172344236516809 -1.217430973715626
Ni 3.258735524292479 7.112814389645356 11.465538499938052 0.537656494682616 -1.675511054225495 -1.043265988232016
Ni 3.558574796538549 0.28745258141950275 0.3917898594170381 -2.315360414928793 -0.9457250191610486 1.4936183610803244
Ni 8.673985712275451 9.068830506536305 1.4104279978550278 0.9886632132854717 0.7379618860070194 -0.7735392688909968
Ni 7.859078153152927 2.9802125395586567 8.810449614853324 -0.18070227238149522 -0.6715099250313726 -0.1266304302377561
Ni 6.817384111527739 3.5973149123115675 3.999029620436169 0.8383914894796914 -0.736901305952989 -1.5088799152250854
Ni 1.7202548409008662 9.222933152779115 7.930680033322262 0.2990470655716914 0.888097084234935 0.9656587819704983
Ni 3.081813105091941 9.073931288446417 5.905407658033665 -2.115756163436472 1.290293980423939 -1.2492154652160743
Ni 3.7498033870638374 1.2568123702105045 2.7080632262532047 0.15106722312388177 -1.3825258785771672 0.46137469210074095
Ni 7.751011677820384 0.05603665508196172 12.119654286160957 -0.19056785232166534 -1.3698459691166538 -0.3659237727895827
Ni 0.8993047461014609 1.6479307342874772 9.542204282620192 -0.7475094204861384 0.44488055110045954 -1.6026351920013755
Ni 5.361539784614808 5.657108420288759 4.865609114930227 0.6573495743705904 -0.25496678742302537 -0.37651748914502897
Ni 9.111961168763598 4.773981362057368 4.136715681428311 -0.6662419917642138 0.9818091664781154 0.7244849345665071
P 4.078762312999293 4.948985223143433 7.966238847683349 1.2774518343539483 -1.546663304621446 3.104549988762537
P 4.511443286998461 1.6310787839262142 4.800147543110915 -0.3538568143227196 -1.0452598787335934 0.3642224738277598
P 5.719655259588005 8.184808736107298 11.000598078104469 0.17923725780019456 -0.33705054139865825 1.2241081286254853
P 5.927283832457205 4.945507836560951 11.655942479427603 -1.0794552936683797 -0.333836919557367 -0.4021377608162945
P 0.8880802587480835 8.503243263924418 6.039003869660627 -1.1402135466933587 0.6960107383862142 -0.33235442147456956
P 2.079265028071678 4.599733855612587 4.6540364293218515 -0.27817150767426285 -1.0024515253188155 -0.9993890843434079
P 8.104321533670308 1.9126548587364336 10.764023259683153 -0.8517062043107266 0.3098382426499245 -1.4882534972239854
P 7.2619730592085645 6.8522225442121885 9.039382484246557 -0.45068944447275283 0.16434311429718146 0.5128085824010007
Ni 7.752256895827374 7.025686024504421 6.046928068103627 -0.12279485854174982 0.8680465933419632 -1.9922408817889303
Ni 0.9088468055698389 3.362669720609233 2.6851539820757178 0.4902201555775235 -0.6932416602815094 -0.049202944087212035
Ni 0.836279189657305 4.928397618761201 6.434526615947508 -0.5531959850791118 0.3333417250885033 0.8739040805640046
Ni 5.419760644319402 1.7222287420378724 1.09449866419123 -0.6382447352203394 1.7125094858267151 -0.1040278623468918
Ni 2.5543295334939446 7.2398450740325 0.19333623730008206 -0.7411230573438204 0.6478028112224198 1.4904289076087494
Ni 3.2893125442418962 5.559649357608352 6.243650375999013 0.21917343187349994 2.153929074961768 -1.3325415762392405
Ni 5.850513836367007 8.020052558026906 4.323083309807794 1.6753143648336568 0.39545803480327374 -0.18742827825141914
Ni 4.343071364779254 1.4722443092568402 6.991929547910489 1.7187652369284399 -0.3074152350307286 -0.5869432567328858
Ni 3.188062484517987 3.3068655062219094 6.014271072890681 0.7264844814950392 -0.5530972547177184 -0.5251606762084504
Ni 6.619523582135593 5.178160679452102 0.3034374910944171 -0.7403524977263829 0.11425185406774518 -1.6894999123054193
Ni 8.848150204186433 0.6992969074350398 7.389086758129507 -0.7770287701014941 2.0797740889149083 -1.9832895861329132
Ni 0.6724564638903006 8.911730113239626 10.846913271681778 -1.9918228204149049 -1.8561670467500873 -1.0009222331584826
Ni 3.99643956698163 8.316626591943537 8.095029440187037 -0.21550318211076436 -0.20038406708113876 0.6381514041755849
Ni 0.49983143038944094 6.868557959696478 2.2957586307669358 2.102583630610256 3.1022653064934187 1.5215711375395085
Ni 1.7051185242381228 8.98199730418221 3.522451483347628 -0.006981316413839591 -1.6214006455343368 -0.2547559569638
Ni 6.544598353463159 8.745415106691224 7.726316698782503 -1.4218102779990869 -1.7348058353310705 -0.7496966579454444
Ni 2.879921758891984 0.07431737780828182 11.241869674371406 1.0202800688598042 0.2691811312501945 0.3854024503394846
Ni 5.534422163170447 8.341899905566887 1.9304623986200975 -0.9439411877877485 1.090928841525618 0.03316260279489772
Ni 4.032089697329896 3.627366173546923 1.2182604207140986 -1.099247131583326 1.1609772616032716 -1.014459605523285
Ni 4.433354282204563 3.425668527925831 3.802374646551532 -0.7001959801121554 1.7938689600418136 -0.9181455668808832
Ni 1.2669124718227558 6.7658689813867126 4.920256660146614 0.06475708977172719 0.384651431106073 -0.9814790368322065
Ni 4.884169319920338 6.6738888779370615 13.393880338411432 -0.37509515487620565 0.15636883784245328 -0.7492053201313226
Ni 7.429302687836736 3.2127085772192974 1.2566103681782597 -0.11890452234840813 -1.0211778980837252 2.8031207961119144
Ni 8.024166389368517 3.0675622767897233 6.167038107523033 -0.7725146842812244 0.04531929276208969 1.9181247193998063
P 7.319077834625411 4.941061947084143 5.537342429992766 0.2502683535060916 1.7032172618915116 -0.37190364452210145
P 8.313582725704228 1.8623480512540431 2.8337887376922817 0.7000124033464397 0.016426006766507194 -0.649582528830662
P 6.720552269769371 0.3458403925754031 0.5569242148180719 1.6100286562519692 -0.7754634824969031 -0.9280705393040791
P 4.656146843247772 7.840289197003013 6.180443109964206 2.9930921525001613 -1.7003705364713362 0.5623755946958507
P 4.388157480469376 2.5667355943783994 12.584001615269731 -0.9533007746257774 0.6559737770689864 0.48780897503286963
P 1.37123406929724 9.012906382266825 12.846698340326567 -0.21573175318180263 -0.31579266046114646 1.671183630494735
P 5.825664819249743 4.40180875936082 2.1636345435393487 0.39206109330658284 -1.0561608419168134 0.6740596880364198
P 3.33042318614674 1.1111772064152232 8.829349257048303 -2.1640687344989313 0.9275192947862994 0.2613603496541951
