# total energy = -340871.2752719346 ev
CRYSTAL
PRIMVEC
9.25072878293095 0.00000000000000 0.00000000000000
0.00000000000000 9.25072878293095 0.00000000000000
0.00000000000000 0.00000000000000 13.53937665181421
PRIMCOORD
 96 1
Ni 3.6767391709091575 9.274503189245532 4.734422175180886 -0.10933204816862462 -0.37957041703873984 -0.7811057683843451
Ni 6.193464700454797 6.650432202516849 0.5922695868004977 -3.040186791995119 1.477349705827288 2.6434033535122023
Ni 2.6379100770377018 6.924374034950622 4.0060845432959615 -1.4353764467192958 1.2062955259240968 -0.13408328697137553
Ni 0.7488909011687306 4.408009283828814 9.633767268769653 -0.46469964270891584 -0.386237030425638 0.5363475460632053
Ni -0.07529445705359843 1.0632232657597436 9.144373186988219 0.5806844203073677 0.2992733226498846 0.8948266896492848
Ni -0.0032821585839834778 5.717755221811149 7.7794549772732555 0.9498279855858286 0.7865305389443422 -0.7413878809694329
Ni 1.319163179917215 8.55138296841294 10.85779502846831 0.6623547408946657 0.20147935702784656 0.04917594750401853
Ni 4.057249399305416 0.18414408274215532 11.030246189986803 -0.40814617179390356 -1.1675831969555635 -0.9746954382514698
Ni 4.054279915355419 4.163392261742356 4.223080739283046 -2.2617333736319565 0.3036539682160835 1.9410700153420701
Ni 1.0670715689472776 1.3088393665583493 12.540386966022691 1.9836855360197512 -0.8199844477274137 2.9768967736872214
Ni 8.894325987086658 6.85968368833902 10.385920901991854 -1.1167195773364766 -1.2865142016665327 0.05645036967824472
Ni 7.372090808196485 7.596263719599167 12.161894321581244 -2.3974020028125804 -0.3985114769176169 0.20475854199975058
Ni 6.848360796268006 3.2037401558086525 13.345019058746244 0.4216264656685254 -0.9728275318047955 -0.17869141259905352
Ni 5.225163163077958 5.875822425093353 8.167548028080143 0.16690161905297707 0.29759593494746167 0.9831461401219843
Ni 3.374286592263893 2.907938851182227 6.269151388410203 0.04257258325488797 0.8768811609144574 0.12811755630624386
Ni 8.878081707285432 4.3333836544686255 3.0228014506013063 0.21804446047537931 -0.14564528077736208 -0.775928852169096
Ni 4.14613040177135 7.593007463055869 6.857409859196001 1.3225538688989094 1.4174108633798104 0.09562395455391273
Ni 1.8779257018725983 1.3908100745985905 3.4552221437496033 0.6147582220626251 -0.5704570861524046 0.8801312924206389
Ni 8.377376759380445 7.458261347119276 5.639759551943224 0.9105003916307997 1.7207095051390042 -0.06881146234675892
Ni 9.126519280372975 3.6224003898428694 5.684886457254351 0.7833796520201862 0.6852637842823553 -1.1419678103803041
Ni 8.062435696833326 3.897026776209041 11.05974861432739 1.4666302625272547 -0.24387299150270902 0.6308199035111781
Ni 1.9143180690354817 2.2769003849859675 7.96800425707768 -1.2111852499162303 -0.7823537818588333 0.8838833032639036
Ni 1.825039285230452 4.868519815027465 2.192728928560355 2.137532378771299 1.4368162644896156 0.508064382847796
Ni 1.8866398884174473 1.6743264113571181 10.485434692159112 1.0879803004202553 0.43855615154432853 -1.6949172266662487
P 2.9959780373258877 0.7968355784772694 6.610072197764702 0.4331738041864927 0.5227834342255254 1.3973434032059742
P 7.226632348290746 1.2363506555547006 4.837199622474497 -0.37368978988824675 0.8231739011989888 0.81489880567439
P 3.6119840691958425 6.142354423745359 0.963463406205973 1.6726568726061517 -0.25439625963153606 0.9584908034671492
P 5.477106762386836 3.9463146593416902 5.908989988190912 -1.6222239127665803 1.268287908466493 1.554945085014264
P 0.017339566093062656 8.070409825072879 8.69280811055482 1.3761875950639653 0.8834323317694142 -0.11923002400862692
P 1.7098307085536475 3.636628010762167 3.9704220586366756 0.5633914375548749 -1.7285598544213585 -0.26916184797648485
P 2.760833761547207 2.6021652608919514 0.09543514383220278 0.362437356902879 0.13332095488405427 0.5680160808110798
P 6.395981655698783 7.911278787976816 6.812811170500277 -1.737374367389195 -0.5437512947264442 -2.3679320183779216
Ni 7.41289577300469 4.415446869797028 8.70989420667832 0.7282863105904683 0.05239188333815492 0.16725951661302807
Ni 0.2049406461938274 7.240267922565807 12.777719039166401 0.7907417488122125 -0.8726002741509165 -0.4597502691234404
Ni 3.967998367686835 7.961084711923171 13.15801280050836 -0.06892896176122967 -0.40384317354317545 0.22300771801792563
Ni 3.281899563576624 5.258946824714677 10.814008553762646 0.6087133014201259 0.792238645072713 -1.267010070195334
Ni 1.4855097854899064 5.3730268124759055 5.27272115992198 -1.4306895827665875 -0.28742567928267915 -0.9115195769239334
Ni 7.103449643374388 8.981551109094495 10.4258479726354 0.49817077788316777 0.29384932342083586 -1.1209683253105018
Ni 5.41888267521775 0.635390934104276 6.791920249614679 0.020853960630873764 -0.13540534821690875 -1.2036017811420174
Ni 2.0429217010381264 8.146469317399577 6.238335360577716 -2.468675296436271 1.571748529724848 -1.9624803626970457
Ni 7.4395193705376785 5.416967774352798 13.016418370029143 2.5250313066284966 -1.6431272385781508 -2.1530757258225366
Ni 1.9775930541382072 3.679856666520213 11.80431942513896 0.8601198822957187 -1.6934151881994255 -0.06541966305639055
Ni 8.04381397972634 0.4397352444232565 12.974839119219023 -1.1332710539372548 0.19315361077097057 0.7818745282295695
Ni 7.1840234913633845 5.6943786300926424 6.4022157218480125 -1.6076637555642181 -1.6710933847737734 0.7552373852580155
Ni 3.7690336923082643 5.467856033570648 6.2004656520228885 1.127922902251464 -1.1451058417886537 -0.6626786998929878
Ni 2.188259901469255 5.694313874990929 12.995648633691038 0.3225456629142639 0.7509151037335777 0.6007341398693913
Ni 6.8743553442414935 6.730414003861609 3.1650055041095104 -0.6538590447188287 -0.5959079221253415 -0.46556533314332077
Ni 4.50108086644848 2.3523770813972447 11.91145581585076 -0.6809967814758853 0.6782498148583673 0.6923322610933625
Ni 5.203229685054777 8.539172006375571 8.899581326127134 -0.43564951942049485 -0.3879807525896221 0.1402135682388295
Ni 2.996431323037881 0.4458398003690589 1.3052029050607057 -0.39705777519022584 1.0528402621840127 -1.043104265843171
Ni 8.831883567577389 2.025123298795781 3.5525971654145603 -0.8018054628255417 -0.28070507272939405 0.8545480446348961
Ni 7.1304525207888405 2.85056583106423 6.706554524098897 -0.4201462815785732 -1.7062876732867196 0.5447612240481973
Ni 7.787781558280707 0.23091114227239343 7.4485120040198955 0.05699904309286312 -0.37219700739280415 -0.3385240406203912
Ni 0.9086065843259785 2.760398977292846 1.6939518325406608 0.7475937526698285 -1.0324694118371445 -0.584949880451941
Ni 4.128859291071526 1.6452328692302072 8.442410308031127 -1.3781079520151298 -2.276230024586235 1.1166969516286576
Ni 0.02742193542982588 5.534757304369319 1.031563571459222 -0.8413207473113447 0.36999460042484666 -0.7050396813577019
P 8.07686683378658 1.3785528589171414 1.577310317970229 -0.23612368657459332 0.335136612205397 -0.6254758655904454
P 0.5039621295211677 5.268974614751424 11.738395956376161 -1.0760943476159468 -0.26916853284470416 -0.2710258977684171
P 6.381596772389611 1.367063453727436 8.729296685297392 -0.591893915869942 0.41121195520342085 0.6117826843740689
P 3.6787095761470057 3.1226297655483166 10.154573125319336 -1.0696994998331966 0.5474115171868509 -1.2636745780641978
P 8.739515040347753 1.64517736485731 11.336912475607841 -0.4719514391753227 1.184145986410251 -1.981667220038142
P 3.5202353407968903 7.301294980566199 9.908644349886742 0.41501101723453687 0.5203658259229683 0.5573956249827561
P 2.0346330480188217 6.305009988520391 7.04150491307543 0.02828547720825451 -1.3191386725697731 3.2144754475407864
P 9.13033983137406 2.873359626867317 7.668648822440074 -0.17304295606402456 0.8821784047576549 1.8603489460419187
Ni 5.040934898703576 2.0801558845232826 4.866837107455801 1.6871409251549394 -1.1327236660742168 -1.8035733318137714
Ni 0.4251255684038509 1.2637975679523301 6.210566522817284 0.40139599755426353 -0.7559575512534916 -0.8013164390042651
Ni 8.217820188758834 8.846120439225501 3.5201021303019373 -0.1566719709051689 0.9030861014445997 -0.9846384083967945
Ni 8.208042168400125 7.777763018972775 1.0862612808035779 -0.507196635530862 -0.12283393930980135 0.7542570236226172
Ni 7.0049108800243545 3.956990000395571 4.441132443428056 -1.3334833713272196 -1.123330654895091 -0.6031298937950774
Ni 5.109529052875609 4.668722574055438 2.498475691737064 1.6746602761894254 2.7702914082867194 -1.7408312155895438
Ni 5.0717860793055625 1.7591648453303776 0.5076300434967862 -0.8255742831103653 -0.6464043882129965 1.166326441730327
Ni 5.8623533639369825 4.2005709408546155 10.77420266766659 -1.3226829382776057 -0.15603819397591193 -0.12267761623759517
Ni 0.10319558023610283 3.3699942540931818 13.21026184193507 -1.0743637380780853 0.9118795313665135 -0.8599116229396545
Ni 6.068820380385481 8.715268880120524 4.284779400195492 -1.3156052054952183 -0.17932261842514924 1.1430044791749348
Ni 0.5761705434416858 0.15239928173652484 1.6417305433003984 0.10487015574252906 0.7425883290354373 -0.08056448911762899
Ni 5.300787871150295 6.062428126773495 11.967332993119179 -1.3639645706352121 0.945346038555075 1.1851379180098751
Ni 6.653845721450022 1.9549750221826276 10.977604917658285 -0.4771502097674427 -0.19049431877125259 -0.2528731381187903
Ni 5.153081484142223 3.5502354543477876 8.555856620868447 0.9050673935406864 1.0099758587203187 -0.7769976597532425
Ni 0.16214307439861558 6.940054020294061 3.163448606449746 0.5766243913053811 -0.9079382873305782 0.4909135821001222
Ni 4.659064813171337 4.13593609861591 0.2809113315238892 -1.1319387082790764 0.7769539509995007 -1.2433795752605876
Ni 4.483976268867349 7.917837554707492 2.360062586897734 -0.8369457581721005 -1.055324462058447 -0.6075370217238375
Ni 2.65230421107569 4.495706193006275 8.301831607575927 1.2562518032375656 0.630199753428676 -0.11421868683696458
Ni 1.9187954217825167 7.492424288637458 1.6925577477080616 0.9281263322426789 -1.3795014899285467 -0.7816354156355699
Ni 2.384865640999697 8.58569392159218 8.579740152526082 -0.4901440509239494 0.6148536099899088 0.4057344770286173
Ni 6.305518778605282 9.277648437043037 1.789323146344032 0.665830358148092 0.05936085845682035 -0.6520986103842962
Ni 3.4726958454105 2.976671766286503 2.301639609059099 -0.1254711198223323 -1.4733151307465981 -0.6670274637799868
Ni 6.450810725392329 2.7121656772452423 2.2746829852887274 0.45810656287243046 -0.4472439091263136 0.4770869606296751
Ni 7.2907491497157455 7.149684785997695 8.464357662147533 1.110559728382668 -0.6791905815050818 1.4119246434542585
P 7.144023339962188 4.748167833128861 1.5485664533925698 0.0005401887741861664 0.14707558546598543 -0.21975090164352476
P 4.459554344792613 0.8723539031682196 2.7786460398827764 0.7124231183059666 0.9445253424259927 1.0746046504442976
P 1.7210980962517644 8.549606828480231 13.2949911173083 0.9462232989537058 0.6678003373902692 -0.4372723997358985
P 4.593273629830609 6.5261116579561 3.9967699844509426 2.5297569942389395 -0.9622669826801298 0.5483191166027847
P 6.478137378315349 6.31617561820153 10.28082799727555 0.8313605507748392 -0.053453748943766005 -0.6115271167198372
P 0.8497941508041821 8.892142815086038 4.53548802720741 0.5606804663816151 0.023252799880353503 -0.5660784974687347
P 5.553693546256056 0.20714231965208013 12.645317057911829 0.8333613832549518 -0.16012084868571777 -0.6682888469909135
P 8.358125992713957 5.558725942732062 4.5788276917112505 0.4061060014354232 1.6359903704230534 1.4443858493067576
