# total energy = -340873.8866937493 ev
CRYSTAL
PRIMVEC
9.15679527767222 0.00000000000000 0.00000000000000

0.00000000000000 9.15679527767222 0.00000000000000

0.00000000000000 0.00000000000000 13.40189547192460

PRIMCOORD
 96 1
Ni 7.4144859116270885 5.754313176182896 2.2552444628705643 0.4018420839527467 0.16979873809511403 -0.16726671570187968
Ni 7.610065898148986 3.820828420620458 6.1987116716124255 -0.04188018517355368 0.7400236536320545 -0.04121504078572902
Ni 8.831902852198768 6.558911604746618 6.755975907754081 -1.5792288972622932 0.7028321321834218 0.2588987754875799
Ni 1.2601764551297578 2.4923697444366346 13.315225398239857 0.25367120854005343 -0.4098181601796878 -1.4917388846694244
Ni 4.47836871989247 6.189114434669048 6.082838839389756 -2.2375539481722755 0.574752885314281 0.8401673504331918
Ni 6.115264882194724 0.8082867856296446 3.162700255103083 0.3370371716622195 0.6459953257000358 0.10698360254110607
Ni 6.9010918808052715 8.954420770624864 10.445839266469514 0.3828534586653858 -0.9852297621238904 1.3794582953954373
Ni 6.135382361027469 2.100037701620155 10.752595565007748 -0.0764574089277909 -0.3966479413463169 -0.1383127516716908
Ni 3.5618467848323214 7.894155466098883 12.726573499857471 0.7681471513411481 0.6848809470216398 0.5675211434525322
Ni 3.1921228691155448 8.573314958599893 2.125125488832697 1.6980652853769271 0.01908632720748971 -0.5135966255199349
Ni 0.7101680634246381 4.609988492647081 2.8251459919285016 0.832247838475799 -0.6516998322839809 -0.6662630748101365
Ni 3.611714690942076 3.875695936854327 13.654654973050738 -0.08187780861241382 -0.9674930069657595 -2.016751979556417
Ni 7.582668767212448 4.613870973769104 11.242742324431946 -1.9285266314594205 -0.4514731167163128 1.029863084562549
Ni 2.063840890593372 6.321952061171842 8.34322942110602 0.3430034165479835 0.6876415404859125 -0.03962378503920918
Ni 0.10297731768459445 8.036873274513615 4.687674742267933 -0.0289688764285243 -1.373241367951448 1.7330842246542735
Ni 7.827136882768495 1.8846881944792786 12.470717993916171 2.1991547795687865 -0.9858709952523149 -0.5840273686376716
Ni 6.721939184691178 7.7061664627141475 3.9136883954000456 2.3061383821098933 -0.6046843827663909 -1.70174633377294
Ni 5.108484417842646 6.205019787756204 2.9403091725309918 -0.7410973463122075 0.33293163413427823 -0.4435248084035136
Ni 7.785272015575362 7.74072420741819 1.057987093905323 -0.06920201291695824 0.05858721351558942 0.2774765384897673
Ni 6.591354129782767 3.9899818964863227 9.193727200783542 -1.3877601303929132 -0.28450979118746483 0.3839778020778161
Ni 1.5914876154057667 5.509652767929768 6.136862099115485 0.340617175703994 -1.0118424796154122 -1.5245726433699938
Ni 6.059097101056782 3.9376691260851056 1.8368237951372093 -1.210598781285141 1.821366137020818 0.35837372835646664
Ni 1.7054714007994918 7.0585246589442745 1.2196732033678632 -2.194690830260162 0.3573923382798039 1.4267087437419688
Ni 3.858362123731711 1.4514069639795775 12.956764340494987 -0.3424855963713005 0.6304674052677658 -0.2177837506148249
P 8.275041515041474 8.605482779783067 12.488073783347025 -0.6927719197339424 1.8011282127073884 1.1577968069927609
P 2.4991640864001745 1.4873199143582878 7.004634172747481 -1.0684399163944827 1.1728459880163995 1.9866592739360944
P 6.866268589043355 5.170430136688127 13.575449611122941 0.5597253015571974 0.7670186941636596 -0.6811052820292914
P 4.641304731886039 3.4616348192676583 11.437204266272241 -1.3010558469261333 0.625567139752671 -1.1133779145577536
P 5.500862244634621 8.23660128921541 2.029368304083751 -0.2962934140859542 -1.25103812024711 -0.5776548894524245
P 8.864629237882989 8.980105580877868 6.8490519828980085 -0.7871586594466443 0.024955127283440893 -0.9136535925478007
P 5.019910738848951 0.05918952352064899 11.72838760338542 0.44098018760478896 -0.11780717551917132 -1.2312979615057051
P 3.2329255480771804 0.8580924255327255 3.746633656970897 0.7605222878060386 -0.11929378736702682 -0.38470516716214387
Ni 4.7045049316600975 2.1107328382959154 1.5116266269488763 -0.5072768539494942 -0.7316171747359141 1.474224787045061
Ni 6.1818439393603555 0.4631955644089847 0.1687322632913055 0.10606674715379152 -1.5574966477915242 0.09806058901986338
Ni 3.7261563160907567 6.257387498928015 0.8420973358535995 1.9045243550075523 -0.9746172767153667 0.6279017014231186
Ni 4.084022182154185 2.8357220902679736 9.221682896221127 1.0152342789057804 0.00036715353143162576 0.035523389717590434
Ni 2.5580697492727507 5.5431666379925115 12.100276185463626 -0.06746908938625155 0.1269109375926524 0.4037734966475046
Ni 5.654101210618233 4.845482949006 4.8161583127010985 1.539898989314419 0.3407462450826906 0.012684537446203962
Ni 2.5703123843202618 3.037638578998455 11.209921623758206 0.4895668382642408 0.05126034083687301 0.4439896638550741
Ni 6.286112365153925 7.196334425185884 12.770545345602908 -0.08710409000835967 1.4470646816905015 -0.4280719641835531
Ni 8.453818782556503 0.9897305118775351 4.600535933066269 -0.49370837123644 2.3739149754342344 -0.5331393235385528
Ni 9.143618470962682 5.697293813100735 13.488203667418619 -0.8192977060730342 1.1229431896486854 -0.910914853460399
Ni 6.553463311662648 5.672369016840957 7.72817573541437 0.5657985043344708 0.23472243535169254 -1.7310751646440445
Ni 2.5729037573333096 2.9232152674399727 4.048189811572347 -1.5105858421725986 -0.4850103292418099 0.41840050253206007
Ni 4.279647952651578 8.661009585264074 6.879715342646398 -0.41446568625402813 -0.4532659469506775 0.27768685472836047
Ni 8.682161781943018 3.6580206037582768 0.8684899663677652 -1.4403584733149195 -1.4846315842006819 0.912416634816906
Ni 2.336337955947795 1.834994267476407 1.8055029775007025 0.0305624461678893 -0.20165444915313013 0.2085676313331956
Ni 4.367424990471649 7.253692589686712 10.64432104135832 0.9619329963794787 1.8281836741632838 -0.489983356976369
Ni 4.0849287048689975 1.5539539122945136 5.799509285433084 0.9921259750230912 -0.5739517295692245 -2.229402008489102
Ni 8.388045523359596 6.839365925042169 11.384119578044167 0.40352255697896316 -0.1581570400911276 -1.0461101425490307
Ni 8.55194299883857 5.694418579439614 9.100047692842585 0.8748803284343447 -0.8797155450394591 0.5055058780920004
Ni 0.5336992239540944 9.149661955728094 10.917398647522027 -1.451250951857707 1.1385713831042454 0.09518686701649412
Ni 0.42173817459776275 3.3419371937320883 5.166149334979292 0.9352470024478603 0.7390774876687014 -1.5898694076952748
Ni 8.732551625373421 3.1966371690994064 9.076299544753043 -0.8055412757188902 -0.1798808049214644 0.6370496864709738
Ni 0.9459244041233915 0.10832671738149469 2.8118787115094004 1.1797254887450521 -0.2132406113288328 0.9307583705488874
Ni 6.038375273747495 3.2016734064039167 12.976050382332733 -0.13149984251491545 0.5172730459302576 -0.04998944454424939
P 0.5254086616713599 2.3548072116627004 3.0838565865817045 -0.5437924323770248 0.34624429208278434 0.10124849982954176
P 3.0706671389209457 8.42628429969348 8.780774055403867 0.15855144731606885 -1.6272948995315846 0.2254986027605794
P 1.7962427106169723 4.88139589938471 0.8498970939190217 0.26782924520799034 -0.8334462296592742 0.20985344002415474
P 6.420763037086341 2.2199825606234005 4.948462098049614 2.1341763178148727 -1.2526872258147588 1.8319146019606258
P 2.0607642074400707 0.2100669520481993 -0.008709943498273719 -0.3855227779674328 0.8841167594309484 0.8132440436797864
P 6.288538915855188 1.9483370772131943 8.53301315633018 0.9130568395040661 -0.7746623267518465 -0.22018053298177567
P 1.3282938538720392 6.432456264427905 10.336358792905532 -0.48983551854459517 -0.8360165614896119 1.1284173253893792
P 2.473799763975639 7.429713661876909 5.859389231304206 0.2956573231638521 1.3889047855203178 -0.3309058619535011
Ni 3.586213016591054 4.3237196074635955 2.42562220224118 -0.7331901756499889 0.868406290674227 0.41845809524287286
Ni 6.6185681248173225 0.0662063756050972 5.722836693029704 -0.4302928830942718 0.24249513731857594 1.072457779304624
Ni 3.5940146060154956 5.1869764654322195 10.034173566480773 0.09063627153133423 -1.3058003035896544 -1.0103813216888535
Ni 8.489328833950854 5.634029515760983 4.3434607420177676 0.126158375697344 1.4817192956498932 1.7991389501915014
Ni 6.598349921238487 8.346849102208697 8.135848157060389 0.6973423127134442 -0.4603074271784911 -0.9419015316499005
Ni 0.1038701052067577 7.919730394810697 8.870969402809612 0.877631923037553 -1.0642207361068123 -0.256745476590003
Ni 5.545565718308478 3.1022947091932727 6.7711203311684995 -0.45674927751358757 -0.0570257825657405 1.5483916001664624
Ni 8.689313238915423 0.710705567296956 1.2196191782767785 -0.699603340833479 1.9281419944264921 -1.2768843918862525
Ni 1.9269559606567717 6.659773702763318 3.7808754922440198 0.5746438705402426 -0.02125530983435049 -0.1884448924413916
Ni 4.784535320826321 0.46960348961934206 9.222272593825508 0.5441670421076241 -0.30297853941561365 0.8308872106828464
Ni 1.6439102673481731 0.8103891857844003 8.991733794974229 0.47038383757788665 1.3025159764114278 -1.3442231263422268
Ni 0.38340050487680777 2.1021071373125535 7.055963503355053 0.33501294214333915 -1.1719527867781687 0.012909766083132603
Ni 3.27656683351954 3.819665507642871 6.2715512295873195 -0.7065864570195315 -0.6820226516372383 0.1291881636626033
Ni 7.416656072065577 3.7304508529922393 3.6567871834584267 1.0861985259294842 -1.6740157006268912 0.08504129394205999
Ni 5.019874111668555 5.49614649515858 12.1101133304386 -0.2521545147852109 -1.5372882911644492 -0.07056186937896235
Ni 1.9602866948175333 3.6317131314385334 8.518767014514983 -0.1419385213497362 -0.014641146951942527 -0.25939499839770813
Ni 4.74945563880163 6.876057203004304 8.313008334560916 -1.5229111965071707 -0.0781561367864525 1.6051854692270549
Ni 8.363981465839133 0.7757865727843726 8.720921579918043 -1.5906690207784349 1.8992242829508774 0.450637765299211
Ni 0.6378248037441173 4.3397714692723355 11.40552175522932 -0.021548415594737084 -0.10145701629592205 -0.5060699781255865
Ni 2.891624324348042 0.5542580603106168 11.053199412918893 0.1005555875275752 -0.8246751683348635 -0.9657996784237367
Ni 1.6224467396358588 0.5966659254531262 5.245247562404428 0.7284279783746551 -0.1575913973956447 0.5930941068256301
Ni 1.2939192450699792 7.523689849979078 12.38438315132421 -0.5522644744037778 0.35268644816370226 -0.5606897223529956
Ni 4.535406396564827 8.210834067806513 4.513235964270861 -1.5210371194129093 0.42964470798731164 -0.3523385779059803
Ni 4.899334060983867 2.9679919954746214 3.877248929303136 -1.2044649004732613 -0.6940556715423725 -1.4487847497054016
P 0.1220078849390754 4.383486009075488 7.400808406787547 0.9446906643592633 0.9959152668621946 -0.8437393840551664
P 6.725391296443543 6.486041829347899 10.023666144104544 -1.6751518711138633 0.29586378274770336 -0.4255828792131122
P 4.304444553779969 4.665899883522249 7.90766723294713 0.19103964975176133 0.6630602516021226 1.2866263017643647
P 0.7480680383398557 2.193565206762467 10.487706880701177 -0.060090537533993287 -0.3363853970108336 1.104367226418711
P 3.314512592410253 5.004609734238338 4.476956742088187 0.304232980648005 0.33336872167169684 -0.6865565349518499
P 6.442895010840891 6.971104736133069 5.855529642169931 0.7505710901305978 0.018363847219168374 0.9425155110848155
P 6.821290411516525 2.0857164740851464 1.3638441951648252 2.3170884533634934 -0.653045804788914 0.3955518800686607
P 9.048818171301592 7.328640957572929 2.723627351703195 0.2512643988707737 -1.2041072600235263 -0.027369136041572217
