# total energy = -340870.6244331846 ev
CRYSTAL
PRIMVEC
9.30652981771657 0.00000000000000 0.00000000000000

0.00000000000000 9.30652981771657 0.00000000000000

0.00000000000000 0.00000000000000 13.62104710667479

PRIMCOORD
 96 1
Ni 4.640701196283898 7.983076308561023 0.7245673402138573 0.7079457992609034 1.4342441328870654 -0.6620539218247953
Ni 8.031870445474924 1.691703801575658 4.128430696357116 -0.4982342841312516 -0.8566236962170021 0.006305116282421399
Ni 2.3270047671088454 5.8241660867390115 9.866133535258575 0.528581014743909 -0.9929834379273802 -1.7221812045885243
Ni 1.0527546762732067 2.81586748272019 3.936605430163023 0.25418902871673643 -1.0615766136157458 0.08091904424357031
Ni 1.2351998908564807 8.836950438229222 12.318534487905833 -0.6953697623681057 0.2634653118123398 -0.5679677440716477
Ni 8.338250720382899 2.2179787678820015 8.738474321437167 0.29105659116704713 0.24629059980526616 1.0731229236924487
Ni 2.895810575623186 4.608398230571873 11.789288877215945 -0.42126471145373257 -0.2805333230382201 1.4430524752073148
Ni 6.013051420098638 8.109803327892815 7.050471726851907 -0.3882879994173958 0.9161167093763125 0.3582127772985702
Ni 0.404386411933838 4.337299010983484 9.039172029112713 0.0608739526672371 -0.036948037979258955 -1.3599580205789805
Ni 7.134627885896601 3.013231064931346 13.413830243570063 -0.08279749221320579 0.7962269402964998 -0.8639832219058668
Ni 9.545242518737751 3.3005980990010424 0.37646775251594555 -1.0725423685986302 -0.7864444069884392 -0.3488485624748508
Ni 6.967473300142154 6.9571337452858995 8.901136645149208 1.0569290875414055 -0.17434547692553198 0.5789957197510351
Ni 3.8454861253546486 8.973300409605448 3.4032323734076564 -1.2037940996584817 0.35234757676704476 -0.37927422595455973
Ni 2.811093232818067 0.3813443742483285 10.28052632827382 0.18337210590417452 -1.999344325602931 -1.3701215913755436
Ni 8.084591938058797 8.544148390625725 11.271348839198767 1.0444188708895368 1.2542378581313303 -0.33153166846295806
Ni 5.334102828754618 7.787238997273743 4.821986817226227 1.0922593874115833 -0.9174590823368198 -0.3348116247658105
Ni 7.666840418358021 2.861348494945678 1.9453439708397138 0.4175330123254422 0.37616113424687475 1.3337733917638128
Ni 1.0540203643564208 7.8084671922576465 9.938855691516235 -0.8471913471595086 1.3951386822451715 -1.1770250590947535
Ni 1.4080314599253434 0.21675839078040363 3.3262459650931686 0.18626896783599534 0.6268084683589399 -0.23924269181954924
Ni 2.134582952340239 5.0039350631062405 3.4339746340347186 -0.3363026074890402 1.0742989462784207 0.48721582153356086
Ni 1.2759345727699163 1.0281854370108194 8.143002512446115 -0.6525680938215471 -0.08170194515618187 0.8632113767368488
Ni 1.4048858527773558 5.488153820235792 0.6678477623318321 0.23255628093830916 -1.5810939754954898 -0.28776300801743987
Ni 1.216223876138296 2.4178830327896086 10.306569721891952 -0.05654807159837358 -0.6344994092452944 -0.9070188608401023
Ni 3.146174846318923 1.9055585549886886 2.508873907483657 -0.03399358333662533 0.05091632723389296 1.2268098438273645
P 3.5518557965790483 5.556826705280169 0.37847703234804764 1.35338653800905 -2.2176901193688128 0.7913762970724177
P 6.7741208323711835 7.817745802691207 12.78135101794004 -1.2550469842961869 2.0211832758548933 0.8451442348224928
P 2.839757345290853 1.4675467194264673 4.687165908732884 -0.13134377655302543 -0.3862226322479349 0.5746999205891586
P 2.646265279569528 7.058202661342538 3.9793754501926273 -0.6605433987175399 1.8193503921423702 -0.6178080646325425
P 3.4448307013072847 7.205897292817571 11.019113955968281 -0.20816036859244794 1.5502800754384267 0.5626787277585664
P 9.111130119255433 0.5589148284052242 9.937589072780018 0.6603220267353531 0.30951402654128635 0.05132744662938257
P 7.762362642520575 9.106979406864893 5.404449958550247 -0.11995250399694826 -1.2198521815626089 -0.2526764487269519
P 1.3796093172331725 2.913790791628842 12.320169645230985 1.18488389301754 0.38996127335476066 -0.09901883916807462
Ni 0.8998223297008734 3.165755785488644 6.435318468166879 -0.46872701870075406 0.22719913039145387 0.9538533046951377
Ni 2.7399727303774744 7.2590189661924605 13.19804531583013 -0.24273733523636903 0.9934318383187085 -1.17599456094771
Ni 4.387554273111095 -0.24214474337886593 12.199826905495405 -1.3385440736795786 0.1706348608431642 -0.7239509164399079
Ni 3.2550612475954126 1.615511240272186 7.0280243764349075 0.5769848599685934 0.8678892418284923 -0.7008498116460704
Ni 4.138660434159092 4.289575125022302 7.327387527705066 -0.6012961830204483 0.8559852913020548 0.5446768918645072
Ni 4.975820035904849 3.8396043983797137 12.963082421670501 -0.13452063161911026 0.35645979916320547 -0.10452999879429095
Ni 3.6522174163538916 5.996653314196998 5.454085405778284 1.2661536357323098 0.07153837435961873 0.38720042278017186
Ni 7.698110359237424 7.896460433631083 1.045482553712741 -0.6193856935323074 0.4141592107572029 -0.0030909802204979026
Ni 0.46333025049151116 7.975258823341172 4.8563939893765955 1.3119930626639276 -1.5824641163701392 1.2976787029237846
Ni -0.1768324463260217 6.2329181919069345 2.782847914196345 0.92024641527397 -1.4927971507306097 -1.0096117905126807
Ni 1.0038953936491408 6.335206263396669 11.752294489719008 -0.8449071791110223 0.053908834203313605 1.5055948167159101
Ni 5.606839997627166 2.7128907280087065 8.233501071701914 1.0346497073179148 -1.2280426877932011 0.058169152141564325
Ni 5.762538244922522 7.928577268742637 10.750792735591945 -0.370411119136975 0.6000666814887213 -0.647813095635065
Ni 8.220551035174031 2.2006779285680707 11.560523201399054 0.21810488139966952 -1.6450259982627606 -1.0014845334198559
Ni 1.6324584314452193 7.474958382330785 1.902533002078006 1.33750329111989 1.355574289688988 1.0390516930403524
Ni 6.634327444886212 6.206813375190649 2.770412528778769 -0.1610860408124645 0.15021310265370258 -1.7972563884568078
Ni 8.839128166254753 4.421383509746996 11.619965869965993 0.7956325012456104 -1.1208850215680761 0.5891554338928563
Ni 3.0457201612438434 8.569369086989767 5.652462469109013 -0.6129499652092928 0.23066780566634468 0.43671292768800274
Ni 8.40782633883957 8.432470030342145 3.117558197149258 -1.064619771317444 1.5020189264391937 0.8247697849311989
Ni 6.53535249808489 0.6811077063095025 2.17043263664427 0.8155143277712019 -0.26143568297682074 0.6995917708692533
Ni 6.472756777145944 5.62578809275528 6.6864905456686685 1.0694696432105775 -1.036809691083711 0.09276565916951121
Ni 8.880784194640528 0.7356355963709623 13.72756360784971 -1.0970195278043882 0.4414609838959494 -0.26329716166559175
Ni 1.8528184493447684 0.6513407700289167 0.7596771553810099 0.3361606825945372 -0.04628911287452673 0.8019458450581479
Ni 7.899801477909567 6.527460560624852 4.635801308226457 0.5805844043943936 0.5209093571312642 2.892067595755967
P 0.3090382198827252 7.2731183591782615 0.2212943935139217 0.7403059607591638 1.6057428843924217 -1.2206492235426074
P 9.017850768828573 1.0548021128784058 2.243713184703348 -0.1092698274721215 -0.11686049533518585 -0.39077477039499153
P 6.391268800259026 4.74403159913628 1.1832648000596044 -0.9173968616403169 -1.5356952356457163 -0.763176180489118
P 0.5999035785883049 4.148376451503763 2.279237140456552 -1.5210638588857868 -0.027617761717268565 0.05498278399378272
P 5.059020414316116 6.270860914813281 8.093721644011978 -1.588633992626277 0.375569780519779 0.7087731802582052
P 8.841036004909597 5.976802485656593 10.06925041433034 1.5773802740893286 1.5969630813172624 -1.262799374548096
P 5.577710558653199 8.15607539517031 2.597888075200686 2.171610294291615 -0.11125754732611161 0.816788309387619
P 3.960821951937515 0.8043680432074911 0.36871448235325804 0.23397732965555187 1.3625903159955048 0.7157107879183029
Ni 2.1187804643601122 6.313596500681797 7.3450680734439615 0.41503904225899485 -1.9597519080222894 -0.5031630888914367
Ni 0.7386993060547418 0.796341161062109 5.685997619396167 0.3073334739501997 0.7198749465983215 0.5168380152753679
Ni 5.210298059850246 2.4332667269186716 1.4502598399075717 -0.3755345564064694 0.9087893224769639 -0.6902368120169144
Ni 5.212317576865375 1.0001634751096646 5.48748375007409 -0.5536796095837496 -1.6477433971939235 -0.6918861746948795
Ni 7.552900571278699 1.5804907677932605 6.587642167675668 -0.2327635118531088 -0.009916487782763567 0.13502148251492876
Ni 4.211446805473914 6.462640579010257 2.377472218120995 -1.4564759477020723 -0.3387736947373521 0.5025856191214119
Ni 5.715772931553774 1.4272959770742606 10.570463825936045 -0.9689809043651958 0.9350135462808156 0.8666980497338687
Ni 3.21628093698694 8.186461215697467 8.20816590501858 1.1160675455747746 0.38553306238007795 0.5740543165853597
Ni 6.891113221298256 9.584329944837005 9.082132833007801 -1.1968976296489644 -0.6605503406960753 -0.23519063323736267
Ni 4.365302359824592 4.29815574570409 3.0746243821912387 1.6689992212489062 -1.1634190382755447 0.3408112939926711
Ni 8.277534918508726 4.0370982720112 4.117588588879585 0.1630652760260224 1.3653663360787454 0.3864920838592376
Ni 8.469900894097192 8.933617365584682 7.713217649424784 0.9532496096728679 0.1143924934106675 -0.8799682844802134
Ni 9.052964306607736 6.648408224811968 7.308550180284232 -0.844682464694726 -1.4659414639903463 -0.2475725518414833
Ni 2.7637881407079474 3.186341829900917 0.6313978068412767 0.20780041414986794 0.8101926584479725 -1.2518948118204505
Ni 3.2078399142555063 3.736404286947663 5.1229032283573295 -0.28829419793056155 -2.061487374790579 0.5071853226769524
Ni 8.215990835462451 5.610851112067351 0.40988470987179954 -0.24388944656294123 -0.8444070995461521 -0.680088410729003
Ni 4.016679745139352 3.5342664548343845 9.909856543962599 -0.013358166474460866 0.26954622789909705 -1.596332646822115
Ni 5.882238834086473 3.0846400698026706 5.687808670138765 0.5664736760246244 3.1153234252289574 0.46791146477799417
Ni 4.858241335586286 5.670729326239397 10.381049881671077 1.0480140444399628 -0.14503952887256313 -1.1009774840108715
Ni 7.230001205578777 4.495910202176238 9.56265596706497 0.997965978743636 0.46861363305134135 -2.545334536962223
Ni 3.464839740858093 2.0831922935497453 11.42436773650032 -0.3748514142965157 0.4482772354868344 3.118199204114856
Ni 5.323930791438789 6.2755234863551195 12.698398193227401 -1.3497805658253463 -0.4267974683465037 0.4623013176800683
Ni 6.30004619296739 0.737892429901693 13.399896506818681 -0.16614237228944936 -0.6248711421269109 -0.7879880973264751
Ni 7.4390072568494965 6.2922287077475385 11.543892432246825 -0.9170037399669562 -1.51187679306988 -0.17137970942898872
P 0.6913067325624003 5.175919737942952 5.554268340176673 -0.3667215861005297 0.2589985342902378 -0.3121308953388431
P 6.159778172451214 5.35891403779762 4.615219917079195 -1.7764103982457342 -1.3659427774075057 0.27244591804439533
P 7.728747456075219 3.6773729670077677 7.280504021405017 -0.48204301908336983 0.8900904605158799 -0.19381541272468555
P 2.2705048233353784 3.342589162467668 8.284552972799547 0.3782043899291487 -0.09998557395671812 0.3394920609606153
P 4.545346489661769 0.605544266435628 8.513045967286748 1.1934119850932092 0.2841799186518718 0.8030293079303138
P 5.580297773999768 2.401624524838324 3.683239803534665 0.47222063367630934 -0.6499219144479517 -1.033394494754575
P 6.134445797726889 3.708456777286697 10.99200775662145 -1.8934819811504615 -2.004760611522496 2.6458212189250756
P 1.2230827887657125 8.233189302946123 7.3771188321923455 0.12880815461536524 0.8099674298110437 -1.1273035234999103
