# total energy = -340876.9192449272 ev
CRYSTAL
PRIMVEC
9.19716527496374 0.00000000000000 0.00000000000000

0.00000000000000 9.19716527496374 0.00000000000000

0.00000000000000 0.00000000000000 13.46098104361885

PRIMCOORD
 96 1
Ni 4.756617370669773 1.1811643055997725 2.6787487945432744 0.6729618269865507 -0.6363531746245815 0.3441318737254718
Ni 3.4334856265933724 6.564384525674364 9.47067486044096 -0.18265039724680157 0.17100612813965388 -0.18662506562383344
Ni 5.328524679998114 1.0475294985859458 12.565798627221719 1.7086206922952702 -0.46473820925633513 1.1971467695452933
Ni 8.101423932622588 7.417421576640119 8.39704012880422 0.31223502501687517 -0.4133405715106494 -0.4165269396584311
Ni 1.2459767271432298 6.8883086759171 2.497886545408594 0.13851972547617433 -1.3148917243679612 1.178083068045623
Ni 8.347871165158203 8.33966729400498 2.5291302345281177 0.8998051167004826 0.4594563920321055 0.17990085952612242
Ni 5.082592488700817 8.111513222594658 7.630006687189257 -0.44642449854881183 -1.4107326800286866 -1.1389789029553095
Ni 7.852134776111248 4.35802143803576 5.078477677093247 -0.7204925255776624 -0.4575296073230378 -0.6282588276522212
Ni 3.1646524945208228 2.508701491696795 7.147121496754856 -0.5865172249390609 0.9192755667202684 1.121607501556397
Ni 1.0311125591145296 2.9450517865325825 2.6127894865280603 0.8427867903339098 0.15070444046782433 1.337353138695271
Ni 0.7238214817200035 4.028119130562535 7.02045354220579 1.0486725039595681 -1.0251350829592605 0.018690120210335552
Ni 1.0310849676196197 0.525741220045022 11.608736122146496 0.3950029495437262 -0.7946667948982314 -0.4925968833398162
Ni 7.1967723918452995 8.230966001224774 6.0409646700677655 -0.05004960835822348 0.36580241672037 -0.4281241575777272
Ni 8.706643373472199 7.055430360586629 12.364758717859397 0.5251424213760053 -0.7846150670891842 0.8861237625586481
Ni 7.6365808207098 0.7574628717472006 11.03653726268861 -0.006564797701711275 2.579406538945267 0.1660608683192366
Ni 7.591367557717372 1.4508527740145305 6.719318127325672 -0.30393807511540555 0.12249635346472451 -0.24119518756022978
Ni 8.312094193424977 -0.029838362312109925 13.33516079100708 1.0842097776342297 0.5411904759778035 0.23569842611171668
Ni 6.75230100034102 6.983324587221977 1.27273587862339 0.03177703530128076 -1.7454689714718712 -0.7796898618734248
Ni 5.764663440039591 4.665197550868161 1.5767380498246506 0.8617569036785094 -0.07515591650754799 -1.158705177739643
Ni 6.506469977858393 0.028508452257450648 1.451537962804794 -1.4826963148511818 2.4238959353380514 -1.61514103777787
Ni 4.174188504615776 6.206817145971436 0.3846741840189537 -0.23298102718055358 0.022271666914006803 -0.2980196527484416
Ni 2.7194637241488837 0.8442059331615781 5.497989802301992 0.01798769482667225 -2.138979395630471 0.1535488518951549
Ni 4.049263412828522 2.6540994727072276 4.722071899326028 1.9793809951071268 -0.7835434312915602 0.6675951633579986
Ni 8.114539089869782 4.762429978930802 2.584508204245368 0.6354108653159702 1.3100256545249116 0.42142489118068066
P 8.145947408242266 5.3685783334423824 0.45702736112129855 -0.4303322209726395 -0.34317722312168636 -0.37710550043801505
P 9.294654918662975 2.284612567203204 12.270868539546848 -1.1116681309554983 1.1839598385413739 0.0009993877987918272
P 8.121952004835586 8.054040138697244 10.53111717864476 0.11379599747724917 -1.6646563708991784 -1.2533202314130674
P 6.469147882410209 6.485905116985515 7.070285621446143 -0.010040414955137546 -1.5344019707555898 1.0836364216292627
P 1.5621568644812427 6.405990950561348 5.421100583436453 0.41166446935980716 0.3770360806526603 -0.08770598525841669
P 8.674517676232055 1.7352751007111984 8.741116187212683 -0.3432119330143638 -0.30505650499056497 0.609235235361867
P 5.0929025106321655 5.53547008898766 10.721549997647204 0.20300427831280524 0.07386676538247924 0.2947404677765375
P 2.056357326978211 2.9091736459846853 5.3276546281919535 -2.1480762157254163 1.0787019604421229 -0.04179739565176027
Ni 1.692351931796296 5.868867319149478 0.3259806363300248 -0.6347683466359648 0.5088043463376141 0.688320568830808
Ni 3.753804488167877 0.38237121391047035 8.899243044541569 -0.016478200160681297 1.0433611190489838 1.0345509769565215
Ni 4.548862611162869 4.008188874072586 12.840766268329247 -0.6316683675544025 -0.9006011302392167 -0.4169935948822044
Ni 8.894421890664304 3.2933208324508594 0.7830898522195562 -1.0992977823156036 -0.2574211625007889 -0.9619075424581822
Ni 1.35336282533273 8.946588210374038 3.5613712857844635 -0.6087989191553966 1.5610049180550987 0.46079182301407734
Ni 5.140819740125768 2.6419408206169126 8.410676765305212 0.08866809206136989 -0.28022530487949804 0.45904270153345456
Ni 7.596324829636192 5.337050451925285 10.546476444144629 0.6700863052109685 1.482624323962666 -0.8643375199214921
Ni 1.7649819435642373 1.887828476068276 9.358437257729795 -0.1380605264515687 0.5532407222741181 0.1941774240497946
Ni 5.312935485373996 5.033773937040157 8.611500541290738 0.5373371636699843 0.9087170744781319 0.4845459880108816
Ni 8.79444870744061 5.9107236169278625 6.3873970421415365 -1.9342650766050946 1.0433361793483193 1.034488499149702
Ni 6.7423496678434995 0.777355419860773 3.9751756504128384 0.2548572584283546 -0.4727549089132245 1.941621774080482
Ni 3.1066643693850913 7.551562227727294 4.152012300440157 0.4661497448918811 0.27876748938704893 1.5187287829947071
Ni 6.314773468389075 5.561185362243727 12.47758861799463 0.455858390268202 0.2603175102119775 1.2630485144444246
Ni 6.595360577293261 0.3725983064133684 8.676261458710364 0.636142344165356 0.5530499464195507 1.0626600764879117
Ni 2.081741502295359 3.3047988943333957 0.19029486152789252 -0.7496730037963605 2.984555832894376 -0.10503933433054166
Ni 0.23559825673702578 4.780254084642626 12.224832130289608 0.13752496566307282 -1.2156227168622935 -0.6683227855526425
Ni 8.960347169169129 3.42021411754169 10.17943598452262 -0.3349116406787845 -1.1650791995867869 -0.15325626035540058
Ni 5.088359111136995 4.424820447212733 6.362440534995494 -0.06665533523570456 -1.0675909381306259 0.5405806103079465
Ni 6.968066490536778 3.0093031810128705 12.601079871763064 0.4068765610528606 -0.06848981734128204 0.11347640935430134
Ni 0.7218762813288525 8.505740501867932 6.63204990779151 -0.5530468610957572 0.10039412224904647 -1.4498047063294839
Ni 5.191376555965754 1.0161211802134602 6.786568717302672 -0.17000236946548786 0.6937355691987923 -1.5230299814732222
Ni 0.6897993290630492 1.6502197190688124 7.030562146224297 1.6593982078240326 -0.11775652478689397 -0.37995531118198433
Ni 0.6464972369513837 6.547590502439179 10.19117340645731 0.26681648767275984 0.13151038403787674 0.25387946789611765
Ni 5.123841773591183 6.486824833482513 5.344507513282946 1.5306769564955187 1.8986105606262784 -1.831134015040859
P 2.746889670089368 3.40522273864062 11.656872244166383 -0.2809357006829613 0.7791231907366776 -0.6386319433564291
P 6.5922703298633465 6.151220283727899 3.4667002681659627 1.064751926019934 1.7749106737717564 -0.5803946569810906
P 0.9238736155645491 7.928416062372272 0.7292432104698073 -0.2545163301491681 1.022882796589974 -1.2176927120174448
P 2.14004233104007 4.862605499783838 2.1978952578507425 0.20659662364975387 -0.44690246662649485 0.47036172609069965
P 2.7895001353952904 8.409207058343007 7.463655724944214 -0.8599365626403189 0.15392757539081234 -0.17347284451259157
P 6.402965083286224 2.8454924757325357 5.471727297730212 -0.3331422074831875 -0.6587392556292655 0.07846724026896809
P 5.591609583964425 1.5030374880542037 10.400774956690187 0.08141963802907269 -0.3756525700415724 -0.8094364970082383
P 2.6361741981807345 1.3044247105274602 2.6012939500320806 -0.3362856382081757 0.4427161964592891 0.4799804801273863
Ni 3.4916760893584433 1.7083917875039434 0.5340830486727949 1.9170214590332986 -0.8656724366828317 0.25987579468886857
Ni 3.929553113579247 3.339499797765135 2.5481370956550804 -1.3298678860618194 1.2307611151656288 -1.3366262878315756
Ni 1.1717372115055416 1.336182521168805 0.9487648228393061 -0.4240440739710826 -2.8078002038654546 -1.1980032040083175
Ni 6.560411350407333 3.383756555600684 10.123128181426905 -0.5673162265305778 -0.09803950597394083 0.2950322879853435
Ni 1.3178801628785426 6.500813721401855 7.709291767529477 1.3506999923158223 0.04282763668848753 1.597457504455178
Ni 6.018302855581732 7.2484880504715035 9.579453409406915 0.9996024859057947 -0.5818712415266173 0.23348933427553983
Ni 6.50768400363443 7.984463585699338 12.212057268146303 1.449147532361459 -0.005726875181448202 -0.39298309090022
Ni 3.277005061794113 8.500498117835042 1.7862991325316597 0.03544368551959057 -0.6342302147443077 -0.009944769917537712
Ni 0.8182920011421592 4.697838289346625 4.262500602374033 1.0767327525308938 -0.43532350353964383 -0.08865446521461506
Ni 7.224851336498652 3.9493086239347663 7.590633623952768 0.9080179915285781 -0.02150393551004684 -0.007842893083186494
Ni 2.9716407904607975 8.862829628992419 12.85047111680557 -0.5383411794544665 -0.5865115685121061 0.1884441211104432
Ni 3.3280493273775082 4.935373469026328 4.803241478768596 -0.9563099937657465 0.15883452577412643 -0.36011436519665724
Ni 1.8791187608417037 4.360017222834246 9.901318314412874 0.07867395696313548 0.25983825658271376 -0.38910303911952343
Ni 8.619077165793009 6.810960518519559 4.3410857784600365 -0.1409887558419572 0.6546666282217886 -1.0848713224776285
Ni 3.6296519582381013 1.549713100276858 11.199401579693532 -2.009633366233765 -0.2356914841331812 -0.9348579945395576
Ni 7.071129921190387 2.6613192472086626 2.8070722387869367 0.2803746859731688 0.20137574157044674 -1.2561541013174369
Ni 5.555363556817729 8.039922490468324 3.125141473809783 -1.1278627384374897 -0.8905923398529629 1.3679294688202313
Ni 3.9996722993103835 5.980888788483848 2.688521702040376 0.16214122154985625 -0.3871250894575462 0.05358384676372707
Ni 4.5507664243116555 8.189937448293687 10.989275791057366 -1.7180496989186542 0.8829119404895697 0.6219151448223805
Ni 9.056374768620703 2.1851544252178274 4.774583112722136 0.48007792493719903 0.860054319165106 -0.1398163328004108
Ni 5.740502487663451 4.399583426535105 3.9293682505633503 -1.7446459613499437 -1.6525125364477928 0.8493328189825438
Ni 3.4606908405745767 6.367712349956286 6.869353318913969 0.040573293436672056 -0.3334296568166193 0.04259160941828148
Ni 0.8131967717487896 8.857026217896362 9.044001822586589 0.3907567726728625 0.39273909321021394 0.5900128967971451
Ni 2.6665156454167023 5.809968674681718 11.782006111598456 1.0545911834368484 -0.6010722399351003 -0.6873157817153775
P 3.226411457294246 4.611200995329402 8.233691121205378 -0.22055025761636857 -0.875992330551601 -0.9417302961793587
P 5.584601344257299 2.5160040406829602 1.0056869965550166 -0.14304229593687623 -0.07782369314769823 -0.5096175862675288
P 8.381238479669296 1.2147983378949936 1.6905649226426287 -0.620602339548228 0.7264747113030262 0.8104209724086945
P 2.3019768146665283 7.825941250276742 11.027598538054283 -0.035411803840390624 0.6707115974997934 -0.7590359330684991
P 8.946707773518648 5.227190316358861 8.570565799442345 -0.7844255767861975 -0.5943354354318989 1.1914044677448772
P 4.844661830927404 -0.10549148220568408 4.976860960489417 -0.4801653424446828 -0.7382004843803867 -0.8103878051779141
P 4.941452795071486 8.12968682057534 0.053802495357892874 -0.6332999896205544 0.7669356475315501 1.2062351049998064
P 8.710423408274862 9.299069557848567 4.717064042999873 -0.03710718926494254 -1.4600852623198852 0.5418350515403378
