# total energy = -381168.0989873694 ev
CRYSTAL
PRIMVEC
9.26909493050617 0.00000000000000 0.00000000000000
0.00000000000000 9.26909493050617 0.00000000000000
0.00000000000000 0.00000000000000 13.56625736526919
PRIMCOORD
 96 1
Ni 5.991960097596087 7.331900466395428 3.932695321322165 0.6023799030029303 -0.852970415735131 -0.3595086132918583
Ni 7.857893798632951 3.23935404086625 4.645656495100144 1.3624165094218021 -1.3612322593057138 0.06905314604391978
Ni 5.395836792818887 3.8183202508547978 0.5208017121450728 -0.18809316552892766 2.47049178081972 0.4622632653532813
Ni 5.800312290005501 4.1394480460751435 4.723296288384158 -0.7257931118549694 1.5539058451164725 -0.25610244368936536
Ni 9.284388976258027 8.413094049119552 6.387401007915872 -1.030916722638044 -0.25788036152539456 -1.067892528531445
Ni 4.362712736606894 2.42982836260491 5.720253262934432 -0.8722608885336267 -0.02486591000374427 -0.3525774333896638
Ni 4.885165274566044 5.886811484261418 13.036060726643713 -1.3589159524677112 0.7985535315471474 0.15390726367583815
Ni 6.630795391993011 9.072719923533196 5.523148739135267 0.6768310801339699 -0.5719308424844537 0.8059256556415024
Ni 0.7159560183626432 4.2592510985566845 5.046498507058691 -0.557109204090589 -0.8018502000205481 -0.24947028308482844
Ni 2.222849471934674 2.0296166491042933 4.328518118354696 0.2020159462576069 -0.38455090097246675 0.6837352634529709
Ni 8.57366258127721 7.376855576997786 8.658365424928027 -0.5196412890521179 -0.23022146215754546 -0.8388447749670264
Ni 1.776922582044196 7.172833527622839 9.98187539598433 0.6802421626980477 1.0681288129119668 -0.5048800715825434
Ni 4.221220001896587 5.87146186299183 6.241699177179889 0.6979714616570108 0.5385787493865692 -0.3373984116563802
Ni 8.41417853323099 4.937915694037801 11.61483224878034 0.834709412642414 0.0785500297907615 -0.17785503274068726
Ni 2.6217264357596743 7.146221955965238 12.633997974877676 0.09199047156638351 0.8135176090561472 -0.2419490350071188
Ni 4.075352254360648 6.710472532351335 10.825195267595182 1.1299473888806604 1.2493332217408615 -0.8915112521228066
Ni 3.82770984405896 7.871222757199176 4.944005489432801 0.8682661655519369 0.34484946861778676 0.792640508496822
Ni 8.097917012869662 9.318870009544785 3.6546956980856766 -1.60790672481296 0.5767508895809164 0.2818078188752695
Ni 9.13015123596458 2.437113871250983 12.018862829408416 -1.0404940819138337 0.5199649909401238 -0.7426212391559016
Ni 4.229719761983671 2.2058406826655346 10.479743513355722 1.2504657926834077 0.8388103221846651 1.0721729010743535
Ni 6.008023439178332 5.327838712122207 11.252098266970139 1.4604637287052267 -0.34085397430514847 -1.5783961169483527
Ni 7.177125118593745 7.3015627185600644 12.787961349960026 -0.6329847723729808 -1.0814651250095568 -0.10902325867895417
Ni 2.9426966563655377 8.222651223875008 2.9187397535072175 -1.022057215364885 0.7133628565114166 -0.7562437150353427
Ni 5.6042431241144355 1.9578553158499732 1.5988373142130672 -0.43373507600660144 -2.5502319742638404 0.767253435882285
P 1.2057146045451685 7.261408999151938 7.649198271574353 1.6144033882808968 -1.2201116058715824 0.558451062830464
Ni 3.0807598259371085 0.3537865244360873 12.06808172369677 0.11802726194977738 0.21786139793029577 -0.41634104889987006
P 5.869756349517431 4.522725123066377 2.5442970509314695 0.24628134383388556 0.6900591487884696 0.202747939327625
Ni 5.128302904712527 9.098673389447958 2.6433855299750415 1.333490313305755 0.14956929842211658 0.8221048365045261
P 4.0888480566363254 0.7879574211766749 4.32782571696047 -1.1693132922727925 -0.8206740175952705 -0.4057447614412625
P 7.892958784902791 3.3597873918057206 10.26721521552721 0.6464013028892028 1.2556403949058117 -1.4124882292672125
P 4.232185341245574 4.131291242501932 11.945211527689803 -0.21772744345559278 -0.9916166394868404 -0.4387744382027217
Ni 2.8946827444232266 5.872703921717751 8.187005992260074 -0.5227147857711192 -0.031321692931417025 -1.0316736554087262
Ni 8.84645204623131 5.859894032469821 6.423500425184313 1.0205518344639521 0.49770103733560095 0.03311735137925909
Ni 3.229037538165132 3.1381447928936437 13.691610053089745 0.06447221154145671 -1.1401852645585848 0.3612430794844617
Ni 6.526712724579842 3.199765736251267 6.763674356748108 -1.5262929684952102 -0.27168127196422887 -0.21096827035488827
Ni 8.50526592949684 1.0624051272208281 7.589832499022823 -0.5879398163182004 -0.5668032914499014 -0.443755693467397
Ni 0.9665626852355959 -0.33182618463421 4.267985366746499 2.2164881286409117 0.6991456844707701 1.523413075844254
Ni 2.0458375653010203 2.3817681051877506 11.305956343290758 0.5497298809073822 0.5659185748521028 0.029711668131819795
Ni 1.5467524157601253 4.412867809487174 13.352209164046412 -1.4161546223752062 0.49549914458827565 -1.9014724555551061
Ni 8.334584814727393 0.8190580155280336 1.4842295894619641 0.5845811842586126 -2.052297737871511 -1.2767000437895886
Ni 8.68314913105763 3.221557378524698 7.146744732921521 1.7072533796340983 0.07636664898619751 -0.4068246247690026
Ni 1.8479980022707687 6.432019650370835 5.561649778910321 0.36101065175868147 1.0207127855218485 1.3955729415691125
Ni 1.1356680538602169 -0.0006442021003842988 8.43305689895549 1.1008473861909105 0.5336352893383648 1.0037530177390586
Ni 5.182184153770569 0.7076611052743856 7.123058487636312 -1.402235441190953 2.6761383818513784 0.1988465473906898
Ni 2.937524501372524 4.909144423252292 10.249918157404517 -0.06870784688935908 -1.5754447476295126 1.9798512498753256
Ni 2.9863448245771878 1.5027056764647844 1.9845669937332464 -0.9559335842629344 -0.06773622700470915 0.26776085386390014
Ni 6.611033681517914 6.247824195135774 6.3010519729984615 -0.5637850734488677 0.1418269354725364 -0.15523266735548105
Ni 4.2483506428724835 3.1431130277973267 3.1557421696933496 -0.36729417077454807 0.3029605416934847 -0.007248454032297194
Ni 0.7246550639915736 3.1129792000512926 2.930922125025708 -0.9028639581314644 0.004951173357688248 -0.5272746372276597
Ni 5.573460459720533 3.861477157033061 9.230359421680472 -1.5069248483812434 1.8547339138479864 0.0416241032986896
Ni 0.3138070640133887 7.885923541820895 2.5075191359112567 -0.06204251905404153 -1.3415772040789475 -1.850398005476794
Ni 7.852100614276977 0.18933331457668784 12.657005722411114 -0.25196322471001126 1.1514361548820558 -0.9574423075979768
Ni 7.70978293011438 6.837700129903491 1.5602825136871896 -0.931811237293434 0.6123722383289518 0.3917731297525188
Ni 3.016395230468496 3.037621457948784 8.809045686572158 -0.8351544705996327 0.23024511630662928 -1.7983570777201545
Ni 2.9329084920776842 4.5487063962660494 4.738707085680545 0.9174153735830781 -1.4220987557737832 -0.21433410150332763
Ni 0.21453876452740758 7.906658507267798 -0.2545719857009297 0.7469244945169459 -0.9860190907944052 1.0481328294060142
P 1.252597686901194 4.306532751996401 7.093117457065645 1.1784697619610802 0.16394665018971122 1.4166032798768506
Ni 7.658923406016413 4.9265239763202135 8.229996981638383 -0.7590439034882992 0.30087254881620445 1.6590824763558265
P 9.002636296468365 3.2487807104502906 0.7287714690675544 2.7117787567628073 1.2529343088285583 -2.2439336264463745
Ni 7.212338410383096 2.4131996062295227 -0.20650153227930362 -0.01530063491281236 0.5333959196340491 0.6242509920444088
P 2.81634035374052 0.6216448308663819 9.755780850758372 -0.3162989106736036 0.5397095205569028 0.6446375261205608
P -0.1808233584851364 1.1924783369286391 5.347153652219774 -0.014683570154103742 1.3869929132095855 0.22681603602042225
P 4.484453029937072 3.9338780578402806 7.174569629110637 -0.0644290170083471 0.6636539193220635 1.4946581151987486
Ni 1.3137644446053092 5.875781261247644 3.391279141964795 0.3492064600349018 0.6542138569550863 0.31136419237614765
Ni 8.474585225147601 0.3269793748746279 9.9826762457897 -1.3129091467202938 -0.06787815189921215 0.08948595997697492
Ni 0.41435171787667796 2.316819556736056 9.531883081040203 0.23191144826545868 0.5609748576935822 -0.8926271108948046
Ni 9.699088285196064 5.516659445747079 1.3408061022694981 -1.976944874861808 0.10784595054140136 0.07626483330101058
Ni 8.847582875817595 7.266840688804099 10.880680996992455 -0.09783124661787668 0.20624026875159965 1.8915598244270844
Ni 6.08632875348116 1.6095041887040347 4.1036841700446 0.2829493886788804 0.8603872770244925 -0.38613032964444466
Ni 5.010159020230537 0.05804863415635554 10.44018486984464 -0.4663351214298097 1.7169238128443272 -2.624232694121022
Ni 5.129387388823966 7.033138997336628 1.3390208745783614 0.6502211908559253 0.4848357513371586 0.8119124693525566
Ni 7.211735919210075 5.1255221762216605 13.594203914783149 0.7054546574079334 -0.8210679105995794 0.6607945954963974
Ni 3.8450801280319125 8.302578629797509 8.537028337229025 -0.8839002725447681 -0.47153929133856853 0.2715267486642356
Ni 2.397442144781274 4.361702405255212 2.0497398542832044 1.3966880290101624 -0.5498990594953949 -0.12946070059769962
Ni 0.8349276330254144 9.39283738740186 11.59839072812334 0.29834772551182165 -0.21960794830775723 -0.8597247037398289
Ni 6.615862879997054 7.798293517978692 10.382202973172065 0.3823549217624125 -1.8104949986342689 1.2111186583443527
Ni 6.663042573392104 8.969981274890612 8.514155918482142 0.2883037110122583 -0.3502714109643065 -0.48770973045084387
Ni 2.426028033667391 9.189992513088047 6.3324983045921845 0.46521334912054074 -0.7961346376930095 -0.1032310774772093
Ni 5.596049244161346 6.298331493624897 8.625535217455349 -0.2550575473646188 0.6341651658343271 0.023484199164869234
Ni 4.947713127420624 1.956223955135331 12.896857458390889 -0.13434245417003313 -2.1846874391905473 -1.7767585256137723
Ni 5.059072034384896 8.361761801178138 12.251985202440292 0.7959819141652291 -1.5427930230327622 2.948467571812251
Ni 1.1404138304846305 1.3817439871120494 13.576025365728851 0.6237198021312871 1.600557226426424 0.23603421218458062
Ni 4.0498066286245455 6.018590207443627 3.300250140997254 0.06438350848239234 -0.6678283624147273 -0.31598240787444937
Ni 8.075810221367266 5.61526407803324 3.9137835868557755 -0.10781098353840789 -1.4058393564921272 -1.2357151167367944
Ni 2.63673310051539 6.631527650495607 1.273937924249608 -0.18440003294805662 -0.052456160917187085 0.1355750410255536
Ni 0.779894235462656 5.011521577191062 9.328823163723095 -1.2686692030653117 -0.5603019999962737 -0.5308530986075374
Ni 1.8723386456608289 2.053438223176058 6.835440324549913 -0.8631573835704618 1.342661695392378 0.10280761678654553
Ni 4.045005237430314 9.203497584458693 0.6378879928910357 -0.923119623056707 -0.35967779187987087 -0.525675668171656
P 1.4850109741678978 -0.19435716405018838 1.216489000537783 1.0325917963476217 -1.3856754799497428 1.0969002286177043
Ni 6.663700679134943 2.062568281721073 8.875656183751895 1.343113438217816 -1.8744699588243332 -0.8788997340063831
P 8.008182904469368 7.406692793704794 4.844930914031683 -0.0938735475217093 0.8787899479013962 0.6407016814012643
Ni 7.674949671218779 2.7883106105525752 2.099934784271853 -1.9809599095584725 2.0345159884080575 3.7128822526941603
P 1.193219864526204 5.892567592237514 11.653998809574208 -0.28711483291047973 -0.45761445372736026 -0.3601948407256055
P 6.254219870664769 9.007901142411075 0.5746440310042428 0.36116928882373284 -0.16960436269612078 0.27835482732966255
P 5.362940774771925 7.9631072956324065 7.015980048728981 -0.27611128271112445 -2.5873995844530726 -0.6451746295709533
Ni 6.628441041870744 2.030775285975488 11.186587084453791 -0.6863760435099275 -1.3843277076725966 0.40346239316498905
