# total energy = -340871.8429264365 ev
CRYSTAL
PRIMVEC
9.29003025967115 0.00000000000000 0.00000000000000

0.00000000000000 9.29003025967115 0.00000000000000

0.00000000000000 0.00000000000000 13.59689833567762

PRIMCOORD
 96 1
Ni 7.340563874530494 8.786882238403757 4.988375587225647 0.19299085994086118 0.7741429639132668 -0.1448883480066795
Ni 7.228990610888408 1.4106353575744104 8.070764899418059 1.2866039331668617 -0.4374379787794853 0.35984799890914804
Ni 3.9711442128423258 3.1096982851984287 10.85492101460214 0.07842455995649075 1.1330100869663844 0.9444561797509542
Ni 8.429754894446306 5.015603736968243 3.8146638718380874 -0.1876722759414252 0.25824468684334884 0.04494931101718065
Ni 3.4974827290741897 3.078214372585354 3.376340734245482 -0.661501648865751 0.2594636468521144 -1.0999590700486863
Ni 7.509038573627012 3.948086357691647 6.854305109705016 -1.7776224162759644 1.9346749104490035 0.7902874348836132
Ni 2.470534912022821 1.4244589226284836 12.137080827446173 0.18764399380665103 -0.25638063705141656 0.3007902735150432
Ni 5.706930630156367 8.560502780582748 1.5360284702584568 -1.1182221300239323 -0.3661613427216855 0.3095145407619186
Ni 0.48407096269494354 7.065792648989949 1.600681506977085 -0.7475554432327254 0.020440013021906733 -0.22156918579918614
Ni 7.864493712134376 3.774948063395433 1.5968744525690477 -0.434136168099762 0.9986293233592479 -0.8830312396762533
Ni 5.10077473455947 4.993168313846208 9.742123098746205 1.5299382785572813 -0.817007881597593 0.35087896264131824
Ni 4.160753730821922 6.864542723071675 0.4060309923453211 -0.32303674361806944 -0.694648567931365 0.8448647559088611
Ni 6.494520817087976 1.8025074147726123 5.6883710076664284 0.5152007367822611 -0.3674474085229607 -1.8520388835143264
Ni 3.081976834848056 5.873760993893631 9.86672562985357 -0.01828774256559431 0.8028591009010366 -1.8362433112429664
Ni 2.358069805474022 5.757533425082131 2.1113396073254243 1.2926066877175157 -0.15112378739343005 0.13091568787667132
Ni 5.217977756550189 4.301451239386399 1.1614033542718727 -1.0970907473619558 -0.3402775329763882 -0.04320121797782238
Ni 8.90789417280857 9.165144401244287 11.907605931536443 1.7562691474111687 0.8890869589520302 0.11047464641350006
Ni 8.318516071894239 5.769378213686932 8.020905306914555 0.3737085589413241 1.0689435955037783 0.7615754116609013
Ni 8.952040396690933 4.8674556241205895 12.247039483825894 0.35865963502800163 0.20666990008985053 -0.4782187602412732
Ni 5.632814768596287 5.419014011772063 7.537400107063559 0.11400271417141655 -0.9576554520500475 -1.0755523590695477
Ni 0.1133718135039585 7.316967197623674 4.112544976698868 0.8694295897324188 0.16181880521343098 0.8274763852290845
Ni 3.589045267496869 0.915516690872542 2.9920651348058254 -0.019865371465359338 -1.302012811522764 0.27080426867591423
Ni 5.613695886283597 2.0999184441013123 12.664219441508173 -1.2163444255196665 0.8033524955976874 -1.1593451253164873
Ni 2.049900921083079 5.52438153518826 11.816724352333162 -0.6664530793337554 -0.026182829042954905 0.08739565310684949
P 5.7291430925517215 1.022302801912231 3.466066633682147 0.6338304082027277 -0.36539489686930615 0.025502772256794787
P 7.635020674230701 2.803656817741211 12.824322894320938 -0.08517576263739524 1.0891241842167114 0.6246567121232597
P 6.26898675202229 4.730232586880187 5.189107129454393 1.1234478971992459 1.3572920437110432 -1.544083973930044
P 6.060908653849484 7.231916970426066 12.908990372271084 -1.3626975309973306 0.8550550661783015 -0.5717462372774734
P 4.3406458771304415 7.535078528497017 8.186747211430212 -0.0945579751832436 -1.2078070774726166 0.3861388142848769
P 8.131795753331186 5.198505853086925 10.098661454784015 -0.6769272393922019 -0.5011056921417756 0.2628824427256763
P 0.15831047696905884 0.10477389048141485 1.1623685884177855 -0.8117427765439117 -1.468572216744974 0.18986799804116333
P 3.072333783419206 2.1514316619943483 6.406845227333727 -0.6356646331979892 -0.44255473118076044 0.10910193443568952
Ni 7.814011687602229 8.343599153645581 2.571418137823694 0.7658370151507327 1.0397168374281769 -0.9334045499224829
Ni 8.948333674609902 3.0220375594926248 10.49695478091056 -0.16566723242524373 0.8396726701849603 0.7613941488880307
Ni 6.91535918869384 5.370083422296388 0.0028566843105696056 0.4954407805465145 0.7483715113761176 0.9048899874225578
Ni 8.754367132429795 2.73116671147983 4.254986223946577 -0.6074292925013797 0.21405822213412165 -0.8287897047238694
Ni 5.243571789966837 1.7667686682920876 1.2378807415286892 -1.378496188592484 -0.07051456108079468 1.8576762843057617
Ni 5.002402603942815 7.354350279463453 10.795583733208742 -0.5732282211396387 -0.9829882743878813 0.5698945287807153
Ni 6.308311450190229 2.226207115704185 10.329931184543506 0.6323455961270852 -0.4995005524381849 -0.2755309847276223
Ni 8.174149001369843 1.6645876252613396 2.291009721910293 -1.3005624522294827 -2.135992287977689 0.3599909522449155
Ni 6.129645587878441 3.1662466995022895 3.123847001312242 0.083895610373391 -0.18190914820540285 1.6276718232550291
Ni 0.056136865962533186 1.89731217376241 0.041362001807964406 1.5353116270540528 0.8610009993490915 -0.8789951219336668
Ni 4.477896784461678 4.980979794121112 3.7960094910393107 1.2470017453942073 2.447919037725526 -0.8503964843603676
Ni 6.609549971993578 4.255381979236432 11.586651178473511 0.5210057734998125 0.12031554376332183 -1.2590028836201415
Ni 1.9984155732808784 3.573289376144915 9.577927387595858 -1.2833579154257384 0.8148566395825451 -0.10958633027127578
Ni 2.1607309823029013 8.966198402835026 4.825212927442245 -0.3518174152951876 1.1649357320303872 -1.345195260447509
Ni 3.6722096185479884 3.9313643031907515 7.919037337904186 0.2280565932957427 -1.061924740983784 0.027850960773997194
Ni 7.117370897094933 0.879823465540381 0.2859452739592531 1.4590635059235904 -1.2588131362068387 -0.27635116663607245
Ni 6.567828446013846 9.116018721132768 11.55600429758851 -0.7190953881198197 0.854696140176986 0.19619959668614595
Ni 3.3173954921298265 9.109580730149924 6.95258341101586 -1.1126058122784195 0.13419950083426566 0.8059793916975732
Ni 4.984779416504926 6.593533959793833 5.602261717017096 -0.6790206315861209 -0.5380717278431636 0.7688380067605856
Ni 6.4825831281803925 6.8428969525232946 3.7843839471490774 -0.6816688678422453 -1.0021013410682484 -1.6798173949103328
Ni 3.024926758909168 5.947635314666475 6.9558330636072006 -0.48119506926077776 1.8440221838574369 1.0393034040398423
Ni 1.641306809383982 2.2077942756926436 4.628330244757787 1.039055035474462 -0.24251879146765978 1.7881032612026302
Ni 6.422643852824961 7.184500655885749 8.79571148318023 0.20808657793171903 -0.711126253871414 0.4390994256423083
Ni 1.293562396007587 3.2372689809797035 7.124951561802005 -0.3754193709848438 -0.45053826360686927 -0.011597217919296157
P 1.8623073396738694 9.026462829250196 9.200585866755906 -0.6822054570720057 0.6754149165127336 -2.1909244212391945
P 8.493670302760838 2.4048079478040245 6.256544614470597 3.0412633128887494 -3.517201504625962 1.0709639683679169
P 1.230622440872273 5.245002454629692 8.263202302614362 1.2691471711429947 -0.5803298651814263 -1.160692126262685
P 7.9846974139049784 8.170172868410742 7.063792505471036 -0.6622896919846852 0.5493344452411766 0.228211116595736
P 4.364484094824496 6.9730224066310935 2.7997104128789996 -0.0366850141258594 0.5607956518032406 -0.40568511184792067
P 4.510932132131225 1.0405019712273722 11.015514052010573 -0.582212684026436 -0.8036813396920158 0.4570395550604967
P 1.592552730483594 3.37931354393453 11.708030998077342 -0.48029698292654055 -0.39306099532600697 0.15748855326919328
P 6.094139092154874 3.248240506738346 8.460941526090474 -1.3851373480580855 1.473126925995192 -0.23548528165964605
Ni 5.733184255722772 8.825054972817192 6.983815563808394 1.0283235079895707 -0.672862582404525 -1.0796846360703662
Ni 5.304170657472026 9.218357694678247 9.345325467494462 -0.27088834374928833 1.1807701279594824 -0.2935690731762557
Ni 2.6272019826356527 4.436918460904207 5.281280022866356 -1.1565783612046276 0.3033858021563614 -0.9990165314953375
Ni 0.6956820593825782 6.63529264589468 9.797748084040405 0.18869428944803632 -0.0635180751583035 0.5622346982426124
Ni 4.523260002310495 8.54768253879873 4.689026657580897 0.5972834623166293 1.1273577737766132 -1.456217551834363
Ni 2.398500017245076 8.179704439476252 2.3108067764332976 1.0480155871018595 0.5583883279133287 0.346973456939325
Ni 4.966199355948376 1.7280013719408456 7.366405022752543 -0.8341298859898602 0.32837949598722155 0.8998094875758568
Ni 1.7457267497117945 8.423419093796522 13.506084772334551 0.1636707708205052 0.47322799189490117 -0.13497160311359982
Ni 4.469303506454274 5.115601622883597 12.110077496436311 0.2971480487767657 0.6208571358715114 0.7466784399444109
Ni 2.336331134622858 8.257731403783485 11.058180374069607 0.7276077964662049 -0.3902584928802053 0.4517045160008285
Ni 4.18036498473936 8.860347797844359 12.733536073426494 0.43738732804720803 1.1950425787180967 0.13333946682681552
Ni 0.7524014102435592 4.239133716279729 0.789383162775317 0.9028572732632449 0.25992027477355883 0.3793094500678693
Ni 8.426354743364456 8.21234960587411 9.213666229387718 0.023061509805153833 2.5638354239798877 0.07669806418368726
Ni 2.864785216972261 2.9868469247985185 0.5791692866415349 0.11499978797736324 -0.5237738231632528 0.3353327873766031
Ni 0.7914418334849826 7.765201868520172 7.373149584734571 1.2621182893206715 -0.6248328326898078 0.17975893463161946
Ni 3.298546020695206 1.7030483506133987 9.144050458494435 -0.8104248290634365 -2.2295624453263665 -0.5188465610649645
Ni 7.6491229401931236 7.0109257301664565 11.232112036951586 0.16297374475348061 -1.1258899309818353 -0.3406377445292843
Ni 4.706375789125577 3.4895954933679345 5.604111362045501 -0.32641003096567656 -1.137120509590332 0.5093303940444132
Ni 0.34422163389487304 5.166668919323275 6.036560413493152 0.6190128835739209 0.7731965408395974 -0.1787790872168534
Ni 0.5157657589953348 1.524716929391629 8.739501225978499 0.053218493004508344 -0.7662427352295836 0.322863965485631
Ni 1.2044710056389283 1.9936497877481232 2.3888801908919217 0.7213242774503384 -0.4499782773383411 -1.3955616287152028
Ni 7.529225809421705 6.452752840956851 5.825346001098401 0.04677453715137751 -0.21787193945325703 0.30154797761667423
Ni 8.115584650495597 7.728051037437349 13.462071395885165 -0.021953621452955742 -0.5603781046498478 1.8444831826542556
Ni 0.6516761149574166 0.6414217795362566 6.360071782888667 -0.9684625699678805 0.9133759134063818 -0.019227737881360434
P 0.15742699508959487 0.3894352822562103 3.8589085700414008 0.05886026467131799 -0.03817034042213426 0.542819269830478
P 8.186151720489374 1.0292610345906592 10.313383782611844 -0.34502198963990904 -0.496075585917036 -1.6609087309312878
P 7.889966975157407 6.089438336834067 1.9794091003345553 -0.3676579818718701 -0.11869240633760203 -0.33580047104164107
P 2.869188691324164 5.05133319341849 0.08591977403165545 1.0246321751809129 0.44733415484727473 0.9073186514687084
P 3.055974040099164 0.872617189053523 0.8972078992001172 0.6785673460987862 -1.210962592382463 -0.7782796117894597
P 0.6588600953716068 7.221196275484936 11.918987147630359 -1.2383690094198738 -0.4067932573104349 1.2001256496679589
P 2.110462628467155 6.977072859832422 5.166114304515662 -0.47928525383257464 -2.0634974632420717 0.9383572659420678
P 1.4087216113370855 4.077905240800264 3.0272269704060695 -0.702672466677106 -0.4717915165586907 1.0711693995105036
