# total energy = -381167.0317324039 ev
CRYSTAL
PRIMVEC
9.28932033031901 0.00000000000000 0.00000000000000
0.00000000000000 9.28932033031901 0.00000000000000
0.00000000000000 0.00000000000000 13.59585928230560
PRIMCOORD
 96 1
Ni 4.898815859781313 8.218688821067348 5.784440132684537 0.5032286520220495 -0.8511714148531792 0.3836157907527071
Ni 5.402129802656522 4.1490469647370745 1.7013724219812698 2.093865019790336 -0.33023840357283124 -0.03982124576199593
Ni 3.4903970107740623 4.70831048270987 5.334566719541836 -1.12561533716421 1.7435020775534877 -1.605225835546687
Ni 1.109878678911581 0.23546847326019157 1.384289839989156 -0.054147432576680934 -0.5421862642321694 -0.8433087242756508
Ni 1.6476745780813689 5.599583591179564 3.18618942647168 0.5404086035064564 0.4633030194717053 -0.9844900557443884
Ni 0.07327229926195206 2.257258343157539 11.57563638789414 -0.3170676705188281 0.25396225741791106 -0.3974364986858833
Ni 4.63305770039781 3.1451222711422897 6.101807896804411 1.6972967826420189 -3.029462977819712 1.8560981411853645
Ni 7.376556216045475 3.980390068593663 7.189042000053467 1.3037387930749353 -1.239249098031982 -0.19651969902972607
Ni 0.8216004207551957 6.545682267012026 7.944508964060822 1.0740222955782666 0.757404053892031 0.048306143304555516
Ni 5.67968539859555 9.249478228456292 3.3308900949512754 0.865799192068683 -0.20659713787038614 0.40309755362640254
Ni 3.5106384393209056 5.418720528395238 1.127917609657389 -0.9415372063319462 -2.017106277572042 1.6616831472034674
Ni 6.109836656186253 5.020143669900782 8.63078721393206 -0.46785335784654913 -0.4504372192526307 1.9117229296385208
Ni 5.182102966235899 0.2218289645243813 7.716981930573323 -1.4572200249569485 1.229836289358514 -0.6996473066975369
Ni 3.158573206679614 6.385199972576381 6.843339951696062 1.6945179343453007 1.1005470813416722 0.7279361263399012
Ni 2.657302914231345 8.124086384940199 8.414313542458277 0.6814230703800265 -0.40272988587433867 0.17490572030437618
Ni 5.175210290705032 5.300068042471038 3.77108310759436 -0.49290644416043494 -0.30355575207532237 -0.15737131096503867
Ni 2.0934504721180525 1.3632170172913518 12.463323818796564 0.6990770360163637 -0.20214681540851637 0.23503636704768555
Ni 2.5684877245404905 2.142228692081098 6.099455840949403 -1.1935647086209897 -0.485514522571738 0.370091273903711
Ni 8.612221578735308 7.229236888223358 9.720984610300182 1.9510947465679238 0.2547515860884258 -1.9176809469941685
Ni 1.9160430364192824 8.729053357915507 3.53455658077222 0.1581614109665018 -0.11599249090793572 -0.13182817238861166
Ni 6.321029349170417 7.357494531154185 9.846882765919903 -0.1513166201305265 1.1904688433044852 -0.1968806819135706
Ni 7.066813125882119 8.450345886281294 7.4872533282168 0.9378116778512429 -0.278101830778592 0.09341794804152942
Ni 0.31276676386321844 3.028736379327969 7.779305837138942 0.45552440396755095 -0.6235246554013455 0.895755115000825
Ni 2.4816232920753527 5.435478461896159 9.249004473130046 0.24957569831444115 1.131853861874754 0.7957929380828747
P 2.585710124047534 2.0609285623693148 8.272658842046837 -0.6663582056271039 -0.8725087428783747 -0.6333431841536641
Ni 5.233305698750907 6.986962130109439 8.026124930656769 -2.009792517519448 0.6378156181027209 -2.271378610031204
P 3.8229453818380628 2.820980734789117 11.983675347865336 -0.23644584580070246 -0.47414253328937056 -1.2914869722907758
Ni 2.2832034142595745 0.5310518527608806 10.063478127487288 -0.16331955812867358 0.41270859435360535 -0.27829723461884975
P 9.217169973070371 4.092391401310182 10.246505601860148 0.23734856012063 0.42433717973146917 0.7189920297727359
P 3.6741211841561063 3.6945483991053996 2.8808541187064307 -1.757413031207625 -0.002948026884730407 0.20055196011757073
P 0.40713789591931737 9.007463571305802 11.360210551730171 0.13625252670855245 -0.06789357851817984 -0.02068478204286115
Ni 5.303551537516961 2.36451283329148 3.540089299837158 -2.727717796590567 0.794574235184425 -0.35011457367146803
Ni 1.8606508205290444 7.373806577289227 10.756894290940627 0.4512252623715648 0.556551531814906 -0.7210437700954421
Ni 0.17475719266783202 3.503532109427223 2.522752685849563 -0.8555654301558168 0.7299544423215106 0.06022937710470272
Ni 5.457698515629088 2.4068907116901497 10.21973563913124 0.43009593659211737 3.5318110270090206 0.4809024777210234
Ni 9.039697512130743 8.210950817405337 6.152628838262385 0.5103457226828049 -1.092784406677118 0.6499188291241581
Ni 0.3244295052769689 6.0661861409308075 11.754979717906432 -0.25796186549560735 -1.516583711627246 -0.2379370856342483
Ni 0.6141940546529482 0.770681941435935 5.027857521330475 0.041754715339282926 1.0388344348232237 -0.22369703077546635
Ni 8.409677242785158 0.9477707534545048 2.9437483895275687 0.24173203390030626 0.4919199118774496 -0.054245134496809795
Ni 6.628208586979975 3.890571632329583 5.164522927904141 -0.6104863341601486 0.294263528140119 -1.8643814642400796
Ni 8.226324642208011 1.3232822300848897 6.937857855010096 -2.092909597855602 0.03407560152747035 -0.3296192819315936
Ni 1.334271495789762 5.671027752241415 0.5488074592429536 -1.105203092056445 0.3171995681110021 0.3411537649337544
Ni 8.605746922609953 0.22979176973335533 13.265479834671424 -0.6629615212407292 0.13471372146652283 -0.31567490393635955
Ni 1.522343070989118 8.010440842562005 13.272345571173934 -1.2890004584234962 0.7186562436998719 -0.6287064567126011
Ni 7.726076174973213 2.9066282663182124 9.167755434678936 -0.35341561302024294 -0.7502234769831918 1.4932483793354152
Ni 1.3767608460299008 6.490104264719339 5.448853225008479 -1.159754187829448 -0.6910680496689582 -0.9916276952304343
Ni 5.441191393771473 1.2466081817940924 12.120721616564023 -0.26420347552994494 -0.69569423558706 1.6730312252264348
Ni 4.886331013536724 4.49599378199089 13.027022058195822 1.2293845465330764 0.6547702436791885 0.153359104481852
Ni 3.660205782612659 1.110463906079296 2.3045799977253827 -0.0865621014619606 -0.4582873114246688 -0.3342159001633406
Ni 8.473309085624019 5.052619133048907 4.129905391692731 0.9781743979390055 0.6001407292597665 0.26608449460274175
Ni 5.038796624706685 0.3711510697649014 9.936642679467212 -0.19471889837556142 -2.494704116399865 -0.03903988751128115
Ni 7.614344232540246 7.729225254494727 11.586445440788637 0.43134137896344427 1.6714353414942247 2.8162092538647565
Ni 3.254058128218396 6.729722277278235 12.883667412201971 0.5563108765590097 -1.3170401381695318 -0.4708031845034924
Ni 5.4839408449750415 6.629536959757487 12.07113801254636 0.7473422987806548 0.7277489500297596 -0.877619838852695
Ni 6.50388032646095 1.165911857890269 1.4650214633094445 -0.3640404397239408 0.33965584023198925 -1.3616845163517837
Ni 6.108276050405681 1.2961481260071794 5.313765144991607 -0.21319330303066508 1.0022067562978612 2.03104114248558
P 7.616880216933678 9.318674374048507 5.10493193931855 1.297600027167049 -0.8843905819176253 -0.6601045114079084
Ni 3.7254632564729513 8.635008280995706 11.632820513636 0.11015557251118449 -0.19413577217858177 -1.3966006115026786
P 0.46276420267664153 6.928197891014748 2.062913690079485 -0.7319334204247523 1.0413811125044776 -0.9008700676298873
Ni 6.616476175665306 6.473829375864786 5.156161610861912 0.2630876167579469 0.4263004741054271 0.48382710756698605
P 5.3145686711822 5.159241949414521 6.591340204345936 0.06302725156481404 1.3897555635563872 -0.2805459214437104
P 5.479779229560179 7.254959015642454 2.8733353429993103 -0.6027475707549942 -0.761102842899857 0.027646815182991096
P 6.264810383789279 8.775490669207691 -0.2719420597890245 0.40784740960656213 -0.47110323224241446 0.19379510100971142
Ni 7.18478749143738 5.848695288903616 2.367202091466933 0.1822423631751055 -1.133915115279157 -0.29634072238412196
Ni 4.100287323414274 9.353695110910188 0.10149604059002691 -0.15729957718683876 -0.4730521284386692 1.6795713403377979
Ni 4.31183301056309 4.805560375071921 10.876415328296277 -0.21287474334898177 -0.0013536858144170235 -0.9925982866738194
Ni 9.107045083018589 0.6881732711762195 9.477441859989547 0.5938415265146161 -0.016090734914275512 -0.39106659060379745
Ni 2.264151018688406 8.565078279113816 5.9917768288858655 0.6346277072930425 0.34210044511773985 0.31338970744660866
Ni 1.6315483183487753 3.753916444008051 4.46314024351378 0.12596837117372497 -1.2636568374523849 -0.1964767616069326
Ni 3.254726959267213 7.652337551841113 1.7690386165493164 0.046027888793340084 0.6844495159111761 0.2792403152584094
Ni 1.8265218583991205 4.520322511391617 7.152074221694119 1.65126349453204 -0.5944639905899634 -0.7016558524871335
Ni 1.5167973468760083 1.7255748166283311 2.918582692383808 0.5806774783288322 1.2147590833104176 1.891308627648227
Ni 7.306830579206279 5.436370236627916 10.728315697583872 0.8711763972201965 -1.511366429092365 0.6108709711930769
Ni 3.3590553135625787 7.045187588637028 4.309275660733377 1.2851903406487866 0.14043596866228072 -0.38640543768270225
Ni 3.9993774389239745 3.701180973672837 8.76372760313662 0.1985999785975225 -0.7321496502006165 -1.4128119311552185
Ni 0.8943330105180327 0.5250918249703094 7.557462009702364 2.8392951891499423 -0.2223662277791848 -0.269350052727891
Ni 7.272692327756233 2.7519703755993503 12.61294596907704 -2.349373024428812 -1.34207445543034 -0.917117382726685
Ni 8.743098809940669 3.9834462549139524 13.533739607963904 3.6323334473058155 3.2271345310656936 0.20177400545012994
Ni 4.112772169658863 2.6084410903871973 0.46879297143611903 -0.5070583101807848 -1.3585212881324538 0.8227689524510863
Ni 7.445798808238304 8.042191738740579 1.7018889081800785 -0.7492094338963807 2.062250221098532 -0.0521208890649554
Ni 8.855536740702943 8.079163232827975 3.652228114491489 0.005509616964319544 -1.2025316880062902 0.6547802709815175
Ni 1.681673489729578 3.118192532107274 0.7862201872047765 0.870198092467327 -0.3468171338671188 0.0857123518671556
Ni 7.3945217611623155 0.8503118513896998 10.762645309028443 -1.5260433143782492 0.009054396892784406 1.2769137024622912
Ni 8.00751470672343 6.2860829268697165 7.235349260863939 -2.194405694919576 0.7723264795298184 0.9670227521975604
Ni 1.8990900271957902 3.0232835484160847 10.017021308622846 -0.17750819092422976 0.8225509229030092 0.8827931555235183
Ni 3.9599349856840025 0.6517814306644641 4.6990685381200334 -2.104422483591208 0.7302228654915488 0.0842427093001646
Ni 5.421823161316141 6.699113967474724 0.7739852236714824 0.4967800681832283 0.6368409128942774 -0.1678873800050141
Ni 8.876642076021175 3.0203388339372643 5.298088488352941 -0.11417086431816466 -0.5205015801698842 0.10252248144595891
P 9.037245131618413 2.127393647845527 0.7058090454287127 -0.22686771519396412 -2.111514871661615 1.2148261891029273
Ni 7.250277198300733 2.981555922425987 3.044724228190738 1.7775632809032549 1.352625234362993 -0.5424408034451367
P 9.28192582364405 5.0362885082736195 6.243626089250006 -0.3336340595179415 -1.3902101345953026 -0.5683706359370212
Ni 2.2243184140032906 4.3281729246585 12.433140959854663 0.1817361129626483 -0.08935509082606545 -1.0892535107057242
P 4.278493640643576 6.881481900118888 10.162632330474445 -1.9291110432079808 0.27461541489188834 -0.30239618454958245
P 5.850553152928108 2.285321379247496 8.128705963837099 -0.16558058624870836 -0.08268590633600598 -1.11476682448548
P 6.987445174755807 5.020663871827639 -0.01807144336623666 -2.1772029578880443 0.4067878579937962 0.13106095520528396
Ni 8.33576212257073 6.7375345955012245 13.602657073952447 0.5200909749950269 -0.5573416318163692 0.7587443699700094
