# total energy = -340876.3174624519 ev
CRYSTAL
PRIMVEC
9.20923216484405 0.00000000000000 0.00000000000000

0.00000000000000 9.20923216484405 0.00000000000000

0.00000000000000 0.00000000000000 13.47864215670200

PRIMCOORD
 96 1
Ni 7.219982889005766 0.03134362222508224 3.1410490461008878 0.10724868327703466 0.9788685957925527 -0.06323551092087819
Ni 8.645185265473895 1.9596693838002497 10.481800886920231 0.854933967219405 -0.02414137313289391 -1.7256650493720664
Ni 1.4011570708622263 4.788321929980038 0.7801638002781641 -0.9499246590646929 -0.818027838221675 0.17980804270200001
Ni 0.006451067245091848 6.716670714636023 5.289828173890448 -0.5165747343116524 -0.07928510818457314 0.31141895687348303
Ni 2.2646515307748487 9.17407147801583 1.0356850022706945 0.24644100934020136 -0.49235802785613264 0.02900898563784036
Ni 4.4705481593031795 0.8063392013213113 1.7790459474003069 1.1037203368633315 -0.2928203679356893 1.0396821275354997
Ni 5.448844909404689 2.7191639830436043 11.058215026578788 -0.06944703904822878 -0.9569496842322746 -0.5658717807745673
Ni 3.348559757202858 7.0474018751970275 10.449816302125186 -0.570815755043404 0.5790258016580221 0.4221471140586858
Ni 1.5384483063937457 6.346763479755788 12.353162021013256 0.9663738057596518 0.8159046212310852 0.004284486307966814
Ni 5.211495364639875 1.385372446653679 8.260035830169175 -0.0228661059648961 1.8005330023255508 1.5654557547376007
Ni 1.3304762127521905 2.1645103384506106 1.501669395249244 -0.5895575544272815 0.8123624124057816 -0.3182434359944842
Ni 6.032157684999432 8.271815359238694 4.861274705705155 -0.28040991008647836 0.1066709563966937 1.2388238375691052
Ni 8.492542239653199 9.210705804212795 5.505297503569446 -0.9660228501781362 -0.48504581046543566 0.36907800214784825
Ni 2.32650994431558 3.6976357085593268 9.732455782624506 -0.9178756010489482 -1.5494097570183316 0.2788741901682423
Ni 7.7197218812326165 4.671723839487379 3.952922075127518 -0.710432570238499 -0.13794611236089147 0.1612012262340901
Ni 7.606917994458699 4.10535605137439 11.067097331158216 -1.322647199943664 0.17953550576690372 1.719645325540548
Ni 2.863822604436756 9.17677899231998 12.080987764203737 -0.38267708098852155 -1.4621724838662173 0.6347302943091778
Ni 2.936151915133332 2.2952630190299317 11.822696425127234 1.3040308703940573 0.8806223731244446 -0.18127434283488134
Ni 7.706727654419163 1.711204295616698 12.501117547579488 -2.0578870590338303 0.8538427910377553 1.9046310557887456
Ni 8.985917652342065 0.1705301177695065 0.9299114434552385 -1.3047466655141593 0.3922187019303697 0.08608490471522594
Ni 3.6551719382993433 3.0121372910637425 2.674350937616993 0.7992006782128429 -1.6156210627380823 -0.5125082775517625
Ni 0.7786599326391586 7.20366412932225 1.374686974384614 -0.8980477676897437 -0.5566844578483444 -0.417684450301642
Ni 1.4753742741858453 4.270542051624515 7.460294122886957 0.40804667010156176 -0.4210011733797008 0.5493776397742861
Ni 5.528292956690067 5.3090855996095225 2.0936646350819212 0.06496663467937198 -1.068800899278327 -0.47577081292141293
P 9.06512625958694 7.7068197467424335 3.421701322190679 0.8803364664529097 1.2086059192248282 -0.5445521933611848
P 4.055303873676925 6.737299395048594 12.598756591480468 -0.5220905219235589 -0.6119873441857073 -0.7554042498531829
P 3.1789072792741186 1.9480381233711974 0.4680104240904986 0.9325877104481423 0.390805623632927 -0.7475847538087641
P 4.36823358814976 8.691912910301298 3.5623106441296306 -0.8294800459226747 0.5825099035518807 -0.5854764423793724
P 1.48485057425037 5.809275844220398 10.051616463689818 0.7099836556265385 -0.056981045370734125 -0.053933002573029694
P 3.4244254131130174 8.17984275598854 8.471380344688892 0.07007233133705351 -0.29682563244034044 -0.4602495773573622
P 3.6469941399929318 5.071957076420557 6.564610633221629 -0.7648162871957023 -1.0389892152335332 -0.6647618076742616
P 6.8459867549723254 6.388702323773131 9.482642462828275 0.05878904511375037 -0.5177985794164244 0.23706805276573364
Ni 5.108536147223562 7.990160197748487 0.5199606245705666 0.43006919711923997 -0.36667479202299436 0.39098740062642984
Ni 7.465233955107181 1.055893741689152 8.390940463081892 0.1494165748943362 -0.18478055621592693 -0.7172477933881196
Ni 8.369645034248844 5.571180351637095 13.144829994314359 1.2707170867332762 0.7776018689961447 -2.297631373080146
Ni 0.8542032654178714 1.437478283160074 12.434896720685439 -0.058121072512448295 -0.0018848757275386895 0.062181872845383235
Ni 5.843147400719253 5.3607770206612 7.760691914009154 0.10808377758382029 0.5297637221981005 -0.4274602987414832
Ni 5.203759609485161 5.4237957974751385 10.681217603729964 1.5609249567467827 0.012053331620108274 -0.2912285979685371
Ni 1.343755925767783 8.44971930933246 9.46884058633974 0.756314163261962 -0.2697534588138967 0.17379191841490715
Ni 4.454100470367085 6.548528550808919 3.7151185152089807 -0.4708900877903439 1.398412725010753 -0.3737579241220208
Ni 0.794359831910297 1.8904620028625405 5.819228261596232 -0.136525577864281 1.3127229988514166 -1.2518127936296053
Ni 0.5774354435236261 0.7582366181074809 7.732064094397316 -0.4802319340165601 -1.4154156873266528 1.3121506712877145
Ni 4.456881658529851 9.332083486283189 6.6373690941446455 0.1180848546605902 -0.5687976961721107 -0.6257489167461739
Ni 5.56319594720955 8.327761445625464 8.796040779299911 0.31067822205271656 -0.893659408814061 0.6151803972017084
Ni 3.4611242039362735 5.382916015175406 8.744848498640359 0.8621608239851475 0.312742560780913 -0.4273649108141995
Ni 3.2885339808952083 4.649796657316695 11.684042223211314 0.4250830567585582 1.0092333241273392 0.6734930168996723
Ni 2.497939804083438 6.4306595862551275 5.002989135523351 0.19254451643206194 -1.5780721579500308 -0.021559985558962866
Ni -0.17371006569203357 4.390593604239815 9.459661744479378 1.148029443193352 -0.26456188731062824 -2.201766249049705
Ni 7.117051299286434 6.951929763662599 3.0771738106805353 -0.28263905652731325 -1.4210618298688364 -0.29117306214025335
Ni 7.170722705288426 7.535224120792688 6.995820044010041 -0.5585559638394445 0.1437658043664621 -0.09377327449841914
Ni 4.889282743981383 2.879966388706058 6.419324863107006 -0.3582659991340088 0.05931303593802044 0.24729590114132893
Ni 8.626803637749122 5.566566526241247 7.348070417749641 -0.4289903622327644 0.12604061917255713 0.30742706210527054
Ni 0.5370105973008493 4.313678095844372 5.420476790144473 -1.3293580363049364 0.15740550663708375 -1.6354311554854737
Ni 6.016474362346482 2.903882765059382 0.8835374331491934 -0.4730693548298498 0.24154742869332593 -0.5490094578015899
Ni 0.978066519293333 5.694427507869877 3.284637554697637 -0.04714040513122849 -1.371888196357663 -0.5384548222141952
Ni 4.837066396687063 4.521189727869575 4.679407102017828 0.9862160372965597 -0.32380113258791976 -0.16213865044669495
P 8.87434780269997 2.7358511120202014 7.861000714361745 -0.127142079766852 1.6223617238960253 -0.3655980140190478
P 0.1654116264421374 7.766873150747064 7.242276598623065 -0.23078530508081546 1.0253636540302986 0.7683924345827348
P 1.593114309487058 1.5263750028129957 10.126140334449927 -0.29582238798680666 -0.44228810778293504 -0.009210205744358333
P 3.0476296724521568 4.88459524472692 2.550751988709317 -0.7935259964255688 2.382818448571451 1.0704949991512982
P 6.050981355875902 4.1958275497552355 12.53087810276755 -0.8603811063769053 0.365558419030364 0.38310336989266275
P 6.755487628894499 0.6713852689543949 1.1833753029459078 -0.4054624543141533 0.36420473321594693 -1.7905509514121745
P 6.80642389289536 5.836102337989068 5.623639822664847 -0.35518453199520766 0.10675040348437745 0.1323699038246946
P 6.115584120650091 3.2447809181094387 3.0144580176101567 0.6935373371450573 1.560873791793873 0.3262272255309091
Ni 0.992165853986032 4.173983250675495 11.61950668583311 -1.5145368564005464 -1.07930385569218 0.9829296532358038
Ni 2.5014485216000404 2.065115093944863 7.933798774983767 1.2964291467873996 0.3397856809416342 0.7330191972897634
Ni 7.38775668353979 3.708917018159952 6.272339989628044 -0.2708698318065271 -0.019194313540263717 0.8979315538268535
Ni 6.767045215464934 3.476614132710356 8.731221597566037 0.11360727850521078 -0.801098152345872 0.4480926302798541
Ni 0.29410788544282984 0.6811341622957999 3.3340229839746245 -0.02589975058489733 -0.8366981609376688 0.01637072804853955
Ni 4.502089780023293 7.069006734236264 6.4344206367374905 0.5427308238817298 -0.7963999755392542 0.09706248677265218
Ni 3.1094972952252147 6.5019942998603835 1.2126367177418462 0.5346914985170211 1.5364688805869475 -0.5356782879103227
Ni 2.140244011268859 6.781374780965809 7.1926480456126445 -0.5667289865685401 0.2978399326374677 1.7503283564467018
Ni 8.741200721715618 6.427767887304436 10.850253063092792 -0.14067919502133838 -0.1349474347438837 -0.00944211924950632
Ni 6.709220445683447 6.944764980912161 12.145537115430429 -0.407903202545162 -0.8389239649443938 0.382903852287347
Ni 7.783910230552089 2.2244440224349904 4.527475949856013 -0.19157315365772815 -0.40399615418127194 -0.1432425848731404
Ni 8.263573096305992 8.756064422691463 11.70157752248523 0.6155010137659206 -0.2478628293883925 0.09051157302801185
Ni 8.016738042244327 2.308340128934329 2.1878400867047025 -0.08373723041865579 0.21177791074037722 -1.2704039263682314
Ni 1.7786342947152882 8.7523991482253 5.749598176894711 -0.3919320239278863 -0.7025032880890933 -0.6346079097987006
Ni 3.6143750390905542 0.684603280113396 9.971014499593862 -0.004273430564373285 -0.21709495207791646 -0.6924654442371171
Ni 2.1708831272209226 7.81325084474604 3.222069109344492 0.1960065068387334 0.41789296676802223 -0.2857724599499723
Ni 2.629429223248922 3.41094309698623 5.137101344055576 1.397628795656877 -0.3926858713747753 0.024314408375648446
Ni 5.188592003842525 8.500563481010051 11.438838124194767 -0.13442601502277493 0.35255017969615415 -1.0140556852166471
Ni 5.181519313415358 1.726952082895937 4.072086778669724 -0.3867520223888436 -1.3363216121069632 1.0373863895227877
Ni 2.5407811528688304 0.9073902657994609 3.448254301759235 1.5442714073505017 0.7379834832735742 1.1747270070891962
Ni 7.937262367261967 4.674532655347126 1.543924115935404 -0.20473925872604098 -0.9286366962201942 1.89767339352399
Ni 5.253443417889544 0.9868429177010026 13.003762973528753 -0.33005148437300574 0.7953131702329787 -0.6183379689940834
Ni 8.15177301585572 8.080051514492729 9.263722433796334 0.026131406979729193 0.7410983747534721 -0.6815829929966585
Ni 3.783751240049482 4.290526085774192 0.49875820898402123 0.759231336908757 -1.0797941650650373 -0.46267901273446127
P 6.390277102501055 1.2515346732447998 5.91507518888637 0.562461726651754 -0.8043356854465632 0.845918393984356
P 0.8767106292251583 8.277543501746113 12.913294237917604 -0.04942174496623746 0.7796888334321604 -0.2111698448427331
P 2.9061206085148528 1.314848145493203 5.999046811090791 -0.611496777702534 1.5950378392700917 -1.76015022763313
P 8.979471189713136 3.333106665358084 13.309175191653026 0.42026403810336005 0.25580548127423686 0.8357201132951155
P 6.854486876410184 6.65737246768221 0.9198347014429908 0.2609068070565442 -0.5044329567427958 -0.24544547819615148
P 0.5485912069521027 2.8906030520437898 3.3787724856981796 0.4846110369208621 1.227086237417203 2.5710249997497914
P 4.338773253935558 3.205660099184171 9.172014135513969 0.9683571547382677 0.34406785325675576 -0.4281989766797206
P 6.77004742520355 0.5946917030580345 10.424395137209624 -0.557989292702697 -0.012721818442042605 0.15603587998306676
