# total energy = -340894.012072437 ev
CRYSTAL
PRIMVEC
9.03883436197774 0.00000000000000 0.00000000000000
0.00000000000000 9.03883436197774 0.00000000000000
0.00000000000000 0.00000000000000 13.22924774813843
PRIMCOORD
 96 1
Ni 6.262592355207683 2.1009956349199532 11.502989290260778 0.1760262070620646 -0.08634407191388356 0.06864973995791403
Ni 4.613791512186645 0.32121214320445574 6.186207879955822 -0.2649143855540405 0.7474875661092675 -0.3566035238299214
Ni 2.3425765536671004 1.643070222207417 4.851601429351073 1.4794027317015748 -1.4723203709334967 0.10090448622656169
Ni 3.473397970275747 4.44639230482341 4.927497807562028 0.5611111261611303 0.053558135732114216 -0.8899058553088998
Ni 4.7857914861021404 4.730256889447728 2.469384164894977 0.6971643923746832 -0.12337592785620041 0.19969706831644318
Ni 7.292974247398392 5.943187074937997 2.488633265974931 -0.09116694722382364 -0.00031521724757365067 0.04940657545758588
Ni 5.08067440948325 4.5413181404459095 11.309353059181925 0.5034343402749524 0.5535248291734403 0.11419837512199042
Ni 5.767788499404327 7.614160177983983 12.31756721076473 -1.416875816811947 0.2201501939644725 0.2926640448634831
Ni 1.9160430117522158 6.680864402763498 0.2750535291525211 -0.9296638519331281 -1.0448523588825296 -0.6442305204901292
Ni 2.8397576228363604 1.6015910125643347 0.4141177994076416 -1.9188780526260631 0.2554079887255021 0.7727332280499337
Ni 0.8591158716033909 -0.3042299817144965 4.580242975574907 -0.25901087558541197 -0.03984130036665397 0.3510972492997114
Ni 8.51059558778183 2.340190301467106 1.2132356980825403 -0.09779293718077352 0.43342114431060846 1.8196738369200598
Ni 6.703018585120263 0.7565477017570463 4.72737892467319 0.05592175086828433 -0.5229045331844221 0.4647464367864512
Ni 0.6050315336583193 7.359617571150504 2.2795713606365697 0.22092306757475497 0.379572731031585 0.6710556111027733
Ni 7.781902861042671 3.5635964956687127 3.909136660828792 -0.23831143825453152 0.01794295763166587 -0.9938439861554627
Ni 7.581764996602242 3.8575122638020978 12.799257526069027 0.004180356629934736 0.24206344909779604 -1.0289950801352987
Ni 7.86073957198339 9.029912761639673 6.834573392012674 1.4597852145809633 -0.23185976909191683 0.33101821916164925
Ni 6.738351387581541 0.6196364817823752 0.33760678047850723 -0.3848519771526533 0.5836077646017498 -0.21925262185086755
Ni 1.8213793023183522 6.504390205973013 9.457032923887056 0.06338077824949084 0.03784766697539288 -1.6939602620696184
Ni 0.12366661638129385 5.0165619592765855 1.1367418529381788 -0.25170380040103746 -0.8151777703673896 1.178571320535951
Ni 6.385845896871024 2.1422307960425813 7.021237970357225 0.46779370825320726 -0.38718139661677836 0.37093690973345794
Ni 3.262341194253527 4.104670143183322 0.47165449781318525 0.5333390982541847 0.64555206751503 -0.9901125441374884
Ni 6.018833077444633 5.6358757546819165 4.607336880762341 -0.5177502426769922 0.322452074759193 0.34574729784170777
Ni 5.4332250943642215 3.080353308667601 9.231037666762827 -0.3417464042124308 -0.7537636289259664 -0.22631492801428765
P 9.323195811386697 5.619614892152411 12.384056874337299 0.4267187925897683 -0.48364584479411543 -1.079360162851412
P 3.8829927371043094 5.958679636569778 12.618968941292188 0.6994066514416406 0.7286323810759774 -0.2547958090627999
P 2.196671693771996 8.575982513595308 1.3376353639086052 1.416352083097993 0.23629286516260598 0.2015480054822529
P 6.4336794068800005 7.858976999335668 5.813064019365583 -1.561221404941279 -0.2604707479603901 -1.0780219036559628
P 4.62453868592071 1.0034732831021351 12.75005734434551 1.9376951853325661 -0.17256858753076731 -1.6087716439164166
P 4.136974936224154 6.126105960435284 8.137891918411816 -0.1947350963254775 0.24019862797491534 1.228739970970542
P 4.434903946693892 1.1912460225062294 3.962675482915936 0.08717890911035309 -0.8601437935551187 -1.0742683501508015
P 0.3033125400542714 5.576535808875241 3.4311378053672126 -0.7428284700707013 -0.4667033034025059 0.6295438650122319
Ni 1.3273347085786298 1.1461060850563378 2.563748688920432 0.2194228288801447 0.8009096904841496 0.267212694669914
Ni 1.9404117084612482 6.4796057228957995 4.605855415854846 0.22802548294749117 0.1755721502437815 0.6861261322826506
Ni 6.200450370832834 5.560555150202552 8.937930874280577 -1.4400028897477135 1.039954921580912 0.9022402085045365
Ni 8.463006126293307 2.3604644063329667 10.187869662072574 0.9462999178279122 -0.07841916063985203 0.683471725378939
Ni 2.3624710275011434 5.3088778537758845 6.893708156285486 -0.33400661236601187 0.11584670935869082 1.0525628401529097
Ni 0.21901637332265575 -0.09036032052319204 9.296417361509032 0.3638882304167927 -0.028776043691427864 0.14870849308371809
Ni 1.4608202104328547 1.160306093413122 11.523521001898228 -0.12565752480152553 0.13398532794093054 -0.9932806574528249
Ni 3.9284851890837453 7.024710690414945 1.353180350778113 1.4833614592390068 0.10077541684786516 0.7315842646154497
Ni 5.849707452770039 8.022200265348912 7.990849069304669 -0.7043529397033225 -0.4355351053298176 0.6576673627213254
Ni 5.288739331421387 2.80216511185236 5.029852660923827 -0.47471460374275665 0.7955893067125008 -0.4221368296460407
Ni 0.9004694414526097 7.413696915516282 7.013287411890881 -0.7315667811139529 -0.047087440406106004 -0.03341611356660052
Ni 4.952368159563104 4.5340599566709265 6.989448390859574 1.41255482083909 0.23611108816910303 -0.826821525253905
Ni 8.320192547657287 6.627598553465898 9.318337438062844 -1.433143186513403 4.007509591931602 -0.1900402619529695
Ni 4.721679035895476 0.04349848517898642 10.575605816419142 -0.7618893433568944 1.3716830223253924 -0.3380085344365534
Ni 8.151473670516783 7.06979639486029 4.7135540279311785 0.04871649136909675 0.5837039238599818 -0.8322254698782958
Ni 7.422383235077625 6.290404847705344 6.901168809944104 -0.05399522326953281 -1.1945512409039751 0.4019688393385981
Ni 2.278283326778618 5.30385226202135 2.3182539550119317 0.10736129759549896 0.4565435892606847 1.3547592499868604
Ni 2.41652325536465 5.126953240028594 11.281055181293583 -0.9627212966087292 -0.6434674170718596 0.8466822687335741
Ni 1.2653011902128697 3.5562931177232757 3.9566827359136774 -0.3514798294501108 0.156204287240131 -0.8454016022489377
Ni 3.504229433359764 2.8015866264705434 2.638771915758207 0.15086436308445633 -0.8686515739158137 0.8493752421847048
Ni 1.043443007452039 3.1765265033946424 8.2918802076344 0.4271332544193676 0.8724436939683943 -0.9000087480708564
Ni 3.7479887111228156 2.583660336539248 7.138819643628533 -0.11135396369465983 -0.5554554705372498 -0.538898080399201
Ni 4.324105918407795 6.941544377944689 6.100931903608754 -0.12530528366842933 -0.3193076155929404 -0.8993022089221351
Ni 0.8927403344214919 7.529303603538732 11.454715589031576 -1.2876909955834535 -0.2938264406027004 0.6416064526037208
P 0.28718816391953744 5.501233282064058 7.943964636875236 1.430840506522155 -1.0040854613778125 -1.1625165810659333
P 8.455711787181961 1.635911465607434 8.086139169941031 -0.35143586358605283 -0.1123356108816388 0.05142694832172434
P 1.9466575428180513 3.1258096053106734 10.373184742487357 -1.3923518635286536 1.0105399587539048 0.9799764841447509
P 3.959750516204125 6.3011881767757725 3.693804516281582 0.4189838858393558 -0.5061936481876442 0.14008347041886843
P 7.005711061155899 4.015230879853991 10.338114066214713 0.04841232986511662 0.6978043399515274 1.4493401079882393
P 6.463272549693566 7.613554576099893 10.18166540635259 -0.2721109033024797 0.26185040191673614 -0.3997852014237179
P 2.5460045537166116 8.396091637518468 5.996433942684006 -0.22042478778209781 0.37190133052925634 -0.45399665446911486
P 6.837109688858576 3.8423631778657703 1.730782164341979 0.36176501342620276 0.5372590021338812 0.29890694044940136
Ni 5.31086639727588 2.9412818073452076 0.4409586172405317 -0.06461130822248227 -0.36736127656705764 0.26357844035143635
Ni 1.4331613781147392 0.8523792285554525 7.306553287853131 0.058774389825731035 0.22888166030019935 -1.035783563812042
Ni 6.71440751607478 0.7628531924188493 9.509064068447842 0.7526020045176974 -0.005479792167648627 -1.1702460884997072
Ni 2.7747232115524256 1.6860408394754955 9.123008233358767 0.9180910594938639 -2.121303832727579 0.9025060605714135
Ni 6.190100905798768 1.9333252625339923 2.7111359176064425 0.07562257173132138 0.3708584910870388 -0.6108200633504834
Ni 4.098098910799247 6.81198173008591 10.47000963715235 0.3092180925674223 -0.7828158090969163 -0.4788363392206141
Ni 8.21153672305073 7.34755976647326 0.2586896239143786 -0.39896373396368706 -0.8687161086051619 0.4858248547233052
Ni 7.685340996449721 3.808024647154489 8.275793794602848 0.6719120455657976 0.24893909317170676 -1.52987194409572
Ni 3.1446465355560824 8.433467216484289 12.37092073675301 0.3296573342583807 -0.25641560405441 0.3084295352278559
Ni 0.14896450523486943 4.861527876949686 10.112000400363891 1.0337565060796843 -2.9815769527717104 1.9305174366372042
Ni 8.797894929360686 2.306484489142187 5.85564867841798 0.2256605822597404 0.37107060709784484 0.5678268476184091
Ni 3.732459994154671 2.636410972293667 11.543787875696816 -0.3266905383205728 -0.11355148556661089 -0.29027060493064205
Ni 1.0811891786155847 3.275980794896676 12.69317144199451 -0.054876597433221624 0.7600288931093878 -0.7007965898106318
Ni 3.2144082570695516 8.109135771635067 8.23892348646271 0.20456493793170574 1.0187577186780068 -0.16119968357219333
Ni 5.6502746173887 7.902833422344653 3.3019538846568413 -0.030815185608643703 -0.3525491512548896 0.9054931682241953
Ni 3.227451294662702 8.340674545707238 3.5144550663667853 -0.8293949424080361 0.8803583208297805 0.3884281245396859
Ni 3.429134799732672 4.258954002280679 9.097277384352239 -0.4382255076777872 0.5229981213394929 0.08809602160798377
Ni 7.390828665266338 6.097272079685355 11.540256403217507 -0.20331281069215956 -1.3918039614449838 -0.6645265517350039
Ni 0.39206937140974 0.2880531803420353 0.4209656201148979 0.1742032949207129 -0.4092478894985146 -0.539328225958084
Ni 4.497877503805105 0.4078909466024293 1.6433639843153707 0.2858580776852432 -0.16485219272311608 0.521652663055192
Ni 5.82770693059282 5.42546977471424 0.41904938728762975 0.002548734563782707 0.937767711987185 -0.3903510525940116
Ni 7.884638249319697 8.776870601265282 11.500012802194648 -0.03488755590580443 0.691957394252447 -0.3354613425346675
Ni 0.17198822343117778 5.002289640247075 5.680824068849081 -0.29052334437139643 -0.7113692231201555 0.5300784252250419
Ni 7.760697756265449 8.845502468517388 2.3623996207118254 0.4460681436506576 0.6016378826305832 0.9500586135393962
P 8.626030537956552 1.3585548415285547 3.8865811542383915 -0.3698465048827566 0.4733568041632816 -0.7313634068538952
P 1.6442904648096865 3.3180836840920294 1.6568571558462475 -0.7886699538848483 -1.2638838658615266 -0.23602007111719353
P 4.820780812867965 1.112147185376874 8.431356648724066 0.08296178570521195 -0.8256293047180169 -0.3367078133472588
P 8.441602167166087 1.7728226855821052 12.328798866006066 -0.6326104197526976 -0.5959117787800834 0.06402869624613489
P 6.2081785739805415 7.672099104506572 1.2128940301539046 0.43926294780336606 -0.6900810031653406 0.7682883049047027
P 1.9971123147133847 3.2576410005262657 6.1413336842282025 -1.2953549398866142 0.6420165435579459 0.20394993005552614
P 6.936699562871974 4.099852444612879 5.851348905040944 0.35143303537257536 -0.05157221565033699 1.2323418293891875
P 2.28023571494225 8.541607827547665 10.289616201900056 1.3047996302392821 0.5907526031766471 -1.2598724307092883
