# total energy = -340888.06726494245 ev
CRYSTAL
PRIMVEC
9.05916140663134 0.00000000000000 0.00000000000000

0.00000000000000 9.05916140663134 0.00000000000000

0.00000000000000 0.00000000000000 13.25899843267806

PRIMCOORD
 96 1
Ni 6.622518739960301 2.2183440233783824 11.326167589612153 -0.9007173441021068 -1.497372685916434 -0.5277454062164911
Ni 4.839521775618529 0.5508540843161677 6.121003566240752 -0.13813945931862015 0.8466357317663549 -1.1264977397691631
Ni 2.616675349036775 1.9875256507049648 4.871581241808486 1.1791817004264402 -1.2959226394646262 0.6688802007180094
Ni 3.637180818768233 4.73713513375837 4.865641149694905 -0.5974675533029775 1.8692971563741418 -0.5687218486288528
Ni 3.8023927447639596 2.911505755985885 2.9668074065995227 0.8032403954998554 0.3936032409827221 -0.5923641706381411
Ni 5.043823982947345 5.098169892035921 2.5455554967462635 1.5146132181644367 -1.4856769947460606 -1.3530682354376826
Ni 5.630132907136818 2.97231084713483 0.4573119017064142 -0.05750863573942999 0.862311747740715 -0.1431284278927793
Ni 5.76693530306057 8.297530500712172 12.236702993496447 -0.2385387237739892 -0.3655296226749576 -0.0673886138573033
Ni 2.0874572598325 6.465324171781443 0.16707811323897492 -0.19762115962402096 -0.013095142621061318 0.9496076420449066
Ni 1.0406621037908153 -0.18457588343477171 0.21960222497504026 -0.43738938492973706 1.3457205368233598 -1.0366315136346342
Ni 7.890574853424788 -0.0848281752831488 6.833435946925137 1.4295498127351896 -0.21564073612989312 -1.0231615041726572
Ni 9.022816019555396 2.244343816524609 1.217597490521919 0.5150130462514872 0.5412308422974357 0.597206586332107
Ni 7.2910576719505755 0.8867541993588034 4.359744059618272 -0.699897217924814 -0.4984553990031222 1.7621433468037588
Ni 0.8253403325654586 7.415720791631839 2.083571785518766 0.9542569678914596 -0.9743246851756122 1.0488352547896775
Ni 8.197526418293638 4.166788451911632 3.7219066255278443 -1.1933122262905513 -0.8485817997491321 -0.24052284408355348
Ni 7.71543408656207 3.7817740934744783 12.66035467519794 0.06504711020832024 0.42139532349432585 0.6471906315597176
Ni 8.235719842650603 7.554787977899339 8.861426153743778 0.21377874322048987 -0.35100726068906646 0.22299306272990627
Ni 7.139090239885087 0.989822090154361 0.20500429233537837 -1.4634289819811377 -0.3441552707642395 0.3978820708637341
Ni 1.9335239897486385 6.589153848616206 9.198390720247975 0.8139924918100369 0.9709369996503022 0.8433452339405413
Ni 0.4777982892398208 4.741556004509365 1.3851013843455184 -0.00487763980727547 -0.03379586550352244 0.3025306532449177
Ni 6.721471959659337 2.0757981191428856 6.590093283650793 0.24859970755441704 0.8547228796498634 0.8915223078664002
Ni 3.950165785112827 4.621368110547349 0.48989861108839744 -0.4839307230243859 -1.654420809214099 -0.05759579613659758
Ni 6.001322985315735 5.982135681523501 4.350356956601505 0.989527875278612 0.6077841047376371 1.8698496864435021
Ni 5.690412566926014 3.244275930773461 8.843115776772644 -0.5868152157954538 1.0500213046779787 -0.6951777009619575
P 0.13898474789898765 5.338980519705955 12.51499590135551 0.8431146059869737 1.9581789071082145 -1.3158533169502822
P 3.996675519612035 6.203052390814053 12.499536442469086 1.9693732331621374 1.7931125414917635 -1.0514989176647698
P 2.798882261771986 8.329744878561643 1.4202772020484742 -0.8874242265376264 0.4301720412456914 -1.1081076672977497
P 6.444497159780337 7.985768521153202 5.4131052958245505 0.09360358168977427 -0.42276803547213637 0.5157411826667634
P 4.890153428543358 1.4399808780390817 12.397057397162902 0.1387218141846514 -0.8289912792117142 0.3207613173203315
P 4.398032605169675 6.57943336846084 8.170460361853573 -0.9619959884069305 0.4702239149612547 -0.12129693383998465
P 5.112673609397283 1.460762594233313 3.8141497243964237 0.6758386343137135 -1.3469958039913577 -0.05717644921099185
P 0.5280231858189133 5.725996952806982 3.465955421451787 0.9319760450060723 1.5155609267896866 0.19673258637148056
Ni 0.9220595630694217 0.11162879829492474 4.379036449682454 -0.29792477904179016 -0.059942699102219346 0.23673792311982456
Ni 1.9474841574275008 6.930747646583025 4.837108415028231 0.6489245835316888 -0.4891706312670866 -0.9828718034146751
Ni 6.312478001062581 5.76693530306057 8.9914441437138 0.14467211823081536 0.5082109357279893 -0.05348357374043693
Ni 8.772746928960121 2.608984121029407 10.281451511106027 0.2294493598782113 -0.28338801887819587 -0.6653472478640864
Ni 2.6501217728332445 5.570650453548621 7.130066409239459 -0.41379257144640347 0.31697331103280896 -0.38168926315395557
Ni 0.6311907273895955 0.49024104738837215 9.149133342103733 0.26223323917745156 -1.6366755694155364 0.20493363412503413
Ni 1.7463979523868063 1.3665926117402727 11.11139842723067 -1.282421776764714 -0.7569949913790706 1.0723631627082888
Ni 4.655312788219443 7.326587702863295 1.5845958947326266 -0.5301907824331901 -1.0925478651862797 -1.5598407225436683
Ni 5.950084368578781 8.095511202049853 7.691545078016216 -0.8001951809156284 -0.652843973190753 0.7440322605708153
Ni 5.131761262414391 3.154581173999666 5.050179890568039 1.425215961246526 -0.40462221780104507 0.4769051836361723
Ni 1.1439999575953474 7.762822559714652 7.066065245957416 -0.9435087282360202 0.874482578775294 -1.2399561514013355
Ni 5.301647715679613 5.157434925751117 6.789614971522027 -0.17140799156376285 -1.3886677298088472 -0.28787536522558804
Ni 0.9942248425826069 7.34775896299665 11.459792031725556 -0.2937030276509587 -0.2585776447027353 -0.9910929057728867
Ni 4.435764012296516 0.5023223449980613 10.428241632445708 0.9657109753646722 -0.09836346497226285 -1.1374640089726797
Ni 8.420309314827437 7.242935406726619 4.739840199344943 0.017019417376131978 0.4268987698110583 -0.7186061071882269
Ni 7.461922514644297 6.142736494379358 6.816517057141202 -0.536602856607121 1.8021921351955283 -0.4314097703075344
Ni 2.7279580873671745 5.245082312054164 2.4001568625937817 -1.3970724089327746 1.23680192204307 0.434334143043181
Ni 2.5587420120437017 5.080957485423436 11.386775191043123 -0.7845456473038295 0.1674739466166793 -0.4579546106755984
Ni 1.6229849969752923 3.6969350471976794 3.7763349729849334 -1.948026906275877 0.26354553023097194 -0.37995531118198433
Ni 1.9402277691661323 1.0304705472439495 2.2336902427476186 -0.9495521062166226 1.752678344736117 -0.11780383308506163
Ni 1.2328340940385178 3.2128587591249893 7.927807100759867 -0.9476823999977356 1.531069049727615 -0.30397381344934743
Ni 3.814151536228699 3.307554172977779 7.232386013305441 -0.17475505365912483 -0.9491816102510813 -0.11195148806934267
Ni 4.221424254164209 7.134651250811341 5.938321047533354 0.5034464244598104 0.6265595855729273 -0.7805036160239719
Ni 8.345833949163628 7.254513014963859 13.222138637713035 0.3441398441452718 0.30722934427216764 -0.4944727602062904
P 0.3699906452128677 6.027965978919585 7.812718608735833 -0.683221814151662 -2.089491059092356 1.318784374554148
P 8.646715875911234 1.6880116573249837 7.825129659819572 -1.6343489781648883 1.5476333818441992 -0.551842813485327
P 1.9506729822314979 3.5498052073064366 9.884199131567396 0.21833525224292077 0.475900910741374 1.7623474923947648
P 3.9471219068908296 6.699005239449359 3.577026175406012 0.3856952989895551 -0.6433355194796856 1.3019860720498866
P 6.953603910732129 4.034914239775876 10.231332606715023 2.4045702384262464 1.3488755375125738 0.40957210560715274
P 6.485988118877799 8.127363213444324 10.068698012130481 -2.265619853170556 -1.8821935527208358 -0.21384276368920593
P 2.7539759988361516 8.847629956885804 5.630526074740493 -0.8014791898343745 0.5213024788046248 0.09724863464152929
P 7.32438632664917 4.2868857542599 1.647191982085408 -1.3858096915347617 -0.036064606933041116 -0.9490854509928495
Ni 2.9161802832553807 1.8852024229744317 -0.21004118605987385 0.11842295472629928 0.15264099536890488 1.9986781527738418
Ni 1.534286747952747 1.1886978598195572 6.889388951241637 0.09606567007702166 -0.9354907430275502 -0.3637717594435864
Ni 6.677707151056753 0.9843775341679908 9.090169978462322 1.4870057408598132 0.10326630159051893 -0.052516838951793425
Ni 2.7017136968638233 1.7687921993057862 9.017564423706313 1.701000199635535 -1.221102251919626 -1.0509736412889192
Ni 6.62992007480367 2.3422189960200215 2.4845112437370185 0.7809584441732034 0.14746613603618475 0.3964556228298527
Ni 4.281504612403154 7.041314711164801 10.453818362755722 0.452227221273518 0.24227839332207954 -0.18124271826599755
Ni 7.369138583841631 6.127634872367246 11.090834130909439 0.4127810994627536 0.28013917292359497 0.7154035410905292
Ni 8.008416424590683 4.0549168680918575 7.850732661697574 -0.3398957241569372 -0.7172493360500163 0.18871023028763628
Ni 3.1902380331716347 8.522886199076469 12.310330421655555 0.5031175803654819 -0.36810818203541124 0.7847132832299453
Ni 0.2547200640451962 4.941727234251186 9.938401905906247 -0.3804800733372028 0.6044061894043397 0.08133967672075668
Ni 9.073112483509352 2.5170064555891143 5.594886427975138 -0.2264352556422358 0.9085620369575061 0.13213824742986274
Ni 3.753074670238504 2.780618992440002 10.911518902485124 0.6444259243303868 0.7671745030152337 0.30773045227830226
Ni 1.1161520955286224 3.396977154910324 12.441594046314638 0.10457756420277474 -0.0664236788408727 0.06346768153634232
Ni 3.1199298817403225 8.67211776440671 7.771602698919295 1.9608991342528552 -0.4651459862177151 1.8534097957199243
Ni 6.024922100697588 8.357638036435244 3.183247078338553 0.08479472514889268 -0.0452573291759027 0.6666718802127809
Ni 3.54039273863782 8.981279764651058 3.4716835291891943 0.4990624364595019 -0.8954054449708901 1.2914684603480144
Ni 3.9380265088703377 4.877035762872369 9.369511031292472 -0.5776011533963537 -0.9546917414360333 -0.06431331736608924
Ni 5.3467985759725725 4.400487637902297 11.646942528823102 -0.49928869353769495 0.5903193722939705 -0.31425899742543945
Ni 8.382994629123845 9.104547773480572 2.105475931807359 -0.6782739832280835 0.4347110667666255 0.749897975322973
Ni 4.773426134226587 0.8982955709505431 1.489303482145225 -0.3236118993952491 -0.6943318080218945 -0.3204648691258352
Ni 6.306290593843461 5.860443966773237 0.04181618299082494 -0.8895929520541711 0.2180974252005018 1.1610775346265616
Ni 8.12623081827245 8.919659348978362 10.924857611693662 1.7938882433155234 1.129164487968049 1.7673914825765757
Ni 0.3242291974432338 5.229228779647928 5.784702130349204 0.5076134113533064 -1.118679529276325 -0.5339733894040739
Ni 7.59763781120305 6.459444776049073 2.1120392942235404 -0.3140286265821882 -0.8711571139464869 1.6696183428901437
P 8.946818714780589 1.8296335271002317 3.5406427714917696 0.7754385427962387 0.701184826387986 -1.7492122405643873
P 2.307558644599302 3.2116720089848654 1.5292000288406888 -1.2409403696914758 -0.009473486708074007 -1.6046576217480428
P 4.817245297797423 1.470528370195554 8.247852777480128 -1.5147525719557784 -1.3669172255056332 -1.3862655481252577
P 8.749627949131142 1.56975336473584 12.33906245787248 1.6959662367560533 0.543401110475877 -1.3270527852105274
P 6.609582257516813 8.095556497856728 1.014703076870776 0.30874809490953925 0.06892099134142969 0.3357493060887315
P 2.033654900426423 3.817811437424196 6.009733510736277 0.09406663736912187 -1.0423727869937853 -0.6296667637433414
P 7.078674692675267 4.2509118244398065 5.675156033254391 -0.003502099615987517 -0.39079302522743664 0.44963349240441275
P 2.498589180513756 8.581526150656792 10.176970391135972 -0.8705714166463459 -0.4690746318481599 -0.43269146523343543
