# total energy = -340865.1401881581 ev
CRYSTAL
PRIMVEC
9.31607180092159 0.00000000000000 0.00000000000000
0.00000000000000 9.31607180092159 0.00000000000000
0.00000000000000 0.00000000000000 13.63501276361625
PRIMCOORD
 96 1
Ni 2.701735297756816 0.8925430102794673 3.4022358760982376 0.9982706544682485 0.3103280378021494 2.133690893538022
Ni 0.5288100364597863 6.913857338704921 5.7088299961828675 0.6193651247070172 -0.3272135007035784 1.8077012379392159
Ni 0.12403790394904056 3.4262182392641343 4.410545050337234 1.0899338246022003 0.7343484576241481 0.018182841556613847
Ni 3.255035423285673 5.521458642554025 6.648023235088846 -0.7848408099467451 0.10482104767214849 -1.3575743508381521
Ni 6.941404962478979 3.2249724601747896 4.25756024865713 -0.7556436195574986 3.7072386812551383 -2.2925930393252902
Ni 5.216198923851101 1.6725702339868822 12.52236814927786 0.1573941937831741 -0.3326138457835433 0.3423711822806233
Ni 3.8456370995725035 1.8948237545745361 8.574541196914556 -0.38802111890925434 -0.7052029464084435 0.6371887831519994
Ni 8.912564607890387 2.760985513246504 6.746195066190856 -0.11110842334275704 -1.827091983761002 1.5511383096736642
Ni 8.357578273398694 4.813725997815646 6.18688700607563 -2.417866698424836 2.2973740056537015 0.269787911596258
Ni 8.5190910070378 1.464998842269 3.509202078807521 -0.6985005946876035 -1.2114819552210425 -0.3155769449059146
Ni 6.53298838275132 0.9973040988367999 10.62342016979809 -1.8087412491679558 -0.9953339404374277 -0.06512450041347494
Ni 4.692887232860184 9.023556285145755 5.159352254838824 -0.015024755543606383 0.4452559321620073 0.2857742597221853
Ni 1.1028551902673285 4.084026056202318 10.423953760387759 -0.4602999709793234 1.9968004761351543 0.9261640663099856
Ni 2.2381303097648635 2.8749024369898843 12.87753313203058 -0.045707529339443866 0.3166367536289966 -0.45120083689153256
Ni 8.355808219791298 5.788215037260269 4.038731315996207 0.11480566968868615 -0.00506558744836547 -0.8495871010851949
Ni 6.464757474222001 4.938859471786949 10.895861231405561 -0.8170423343799542 1.3448918702744772 -0.7154127970619099
Ni 2.144298836429622 8.651835711520906 5.427184655816934 0.693692888886315 0.12324403026402646 -0.12839626388892725
Ni 4.438847275912339 6.601601250216972 10.0414917561875 3.194960003215678 3.4383956500706527 -3.564570737938545
Ni 9.402617923205488 8.89869297725137 1.0377283968010849 -0.8870866406925497 -1.4159147384502582 1.3442120705986333
Ni 8.628489636046512 7.161580999095847 7.897862745307204 0.24016134697907673 0.4459143916816127 -0.25642665979800355
Ni 0.2967997940667314 4.884407033180467 8.41013023339513 -1.0343190634513735 -0.5223959689791197 -0.8628347101237205
Ni 8.460325227272243 0.4952041713126243 12.457901865289323 -1.0126382360438302 -2.164846750315536 -0.503815634873771
Ni 1.3758160886710786 0.8891184223527362 8.799900695779609 -0.059725955105722955 1.0554730718211693 -0.6485394322781283
Ni 8.38223791497121 5.4676396968175585 11.986580375176285 0.6411164003411798 0.9025217443006973 0.7029722573057119
P 6.60937085394628 3.347124791228372 12.465605324910145 0.8664116288417014 0.5821378649244426 0.3345504006846238
P 3.461414357836468 3.02641902578301 10.76159707564158 -0.5025848477904634 -0.3476514568429561 0.3132608951782282
P 4.695272147194361 9.310761457053236 9.61479704394557 1.0746560725075234 0.2521231473266432 0.8233626201710271
P 0.9908107969191409 1.369937647480199 4.710406105537598 -0.8861780128353511 -2.2868769627771197 -1.0306521561227475
P 8.346492148173422 3.412262763980557 2.4771685965864436 -0.1985639831532645 0.23652066490269588 -0.2716825575158095
P 0.7157118600790885 4.589590630761181 13.050670459834471 1.547812587734541 0.22732871399078267 0.38623368799152835
P 6.271719154228004 5.23176607952457 5.214069269879254 1.9417942951026044 0.10857125874320012 1.6847893942036274
P 1.9950087887531687 0.12437700895593122 1.6796560380594383 0.5501782812987105 -0.35221567917487084 -1.1255885976913325
Ni 5.527011021238279 3.5329804200049866 1.6994545534617471 -2.33782465746958 -1.7962040359328937 -0.16986532966699133
Ni 5.271955612484085 1.510386743191289 3.544721465064995 0.2990678915072979 -0.08164435244536908 -0.6956297008977117
Ni 2.595019697374053 2.481195934346851 1.6805839187925786 1.8937581176299838 1.4586801544422425 0.35852696610487933
Ni 2.7814249743761223 5.412563081412678 13.58168561044621 -0.8221624292153389 -0.554626032657419 -1.726771395062368
Ni 7.155460340042903 4.051783132332851 8.472114715904663 0.6885370557169884 -0.005144263205100817 -0.7384822772868637
Ni 6.333615134057168 8.050949092167942 8.455207909132541 -1.0018195481617715 0.8200417833279103 0.6388646281925255
Ni 7.780512849172636 1.1998354958094115 1.1524874934187217 -2.032136175321971 0.9592713903869157 0.08656724366828317
Ni 5.506320026174977 3.173128521621313 9.790061230899822 -1.1372873741854994 -0.7393335695435654 0.25120397794648347
Ni 8.144901674434216 4.148074048575212 0.41862792582801184 -0.535203148046117 -0.5473665228815282 0.7828574609681291
Ni 3.6791030033313628 7.624943769225735 0.3640506518618505 0.2414587256342616 -0.45791938656228875 -0.6312742174397773
Ni 0.984811246797229 4.399775671546969 1.8666873550742287 0.03165927877649386 0.4487701159628529 0.02984510838589054
Ni 0.9193304426095062 7.137443057533932 13.341723169320135 0.301091606805546 -1.2884736393857488 -0.322705842641212
Ni 5.213534527368388 6.8046077668420955 6.719579981185746 0.885283783155856 -0.6910487663952485 -1.3069506151440138
Ni 2.152310658020995 6.202183995672182 8.98903185533707 -0.19900415601447663 1.3447437747323874 -0.6465702243668994
Ni 4.059627264635102 8.64660007927166 7.593693006983572 -0.09829944450354683 0.7533571375161671 -1.0030572772236144
Ni 2.5200066887069204 7.452950455016518 11.432712900885898 -0.7255437148483247 -0.4818797540326282 1.680955622279834
Ni 6.198718417030332 5.471738768329423 13.356449083726512 -0.17506512870037594 0.8507055309603542 0.5043180284314862
Ni 4.1195016569231875 8.087384248265453 2.7145532806958506 -1.2071419330847921 1.364042217950683 -0.00034272805139940973
Ni 7.870282515282484 2.7389064235121388 10.699462604378999 -0.2952022379043045 1.4398668783904816 -0.47912995920163287
Ni 2.951871820696771 0.9103068956404321 11.112876324922485 2.4697281631808177 -0.5285375631004833 0.45734371656447687
Ni 8.409534004811585 0.1662434348066634 9.369489972532321 0.4845169345451591 -0.3330442484527426 -0.03770137120551571
Ni -0.024414628888966127 8.385191109674077 3.880306860098427 0.8562156621453062 1.4554531628645127 -0.04703139035718997
Ni 0.4507842102314325 0.3212563452779779 6.878836362279004 -1.5745569457079207 -1.0118445364979414 -1.345109385601922
Ni 3.114698120433998 5.907665707544668 2.09458362024083 -0.36920398620275124 0.26945572506781984 1.254481341600704
P 0.682673343693455 6.927151372903629 2.545874624768275 0.010144030412537367 -1.5769264743813616 -0.5394313271948515
P 4.4497191314904 4.707392356369216 8.427582961964056 3.2977105415120436 1.7067921237269639 -0.06430611827723763
P 7.0642280506890485 -0.11696980041255846 4.112510876781134 -0.2894913035624562 3.2896933276345215 -1.0444666934083366
P 4.580414300217575 6.396237767472527 12.08615706987827 -0.3437564926639241 -0.0947693198631013 2.2652879237524344
P 7.4893483468275575 9.229180617895501 7.08585717416427 1.3251879640876467 0.08415709156489377 -0.2088391398270274
P 1.092663407917373 4.40815081993144 6.26789211200738 1.7955000678873334 1.1198684073781038 0.36738184539234797
P 0.9427678155857572 8.975066132374712 11.063680945529969 -0.47068799908186676 -0.10274925274478434 -0.5405428150914756
P 3.658356111838354 7.070572295460821 4.625896293463204 -0.40160322846906316 0.04141892926641899 0.9750669626582754
Ni 1.9124497620755565 2.2988804127850293 6.202198901386771 1.093268545402388 0.5099418023761669 2.4327202184979004
Ni 6.300198385163849 8.854683854928526 0.46674264091285306 -0.8447518844800807 -1.4154252004083494 -0.9863163103198499
Ni 0.18733502094953333 6.693578825300256 10.335980232885838 0.8295481801564488 1.0019419326722487 -0.2595803749356368
Ni 1.6382218779317756 5.604306467451791 4.219423046275034 1.1840164028109221 -0.807764508622454 -0.2844239163418779
Ni 6.7372618851164745 5.165705815682216 2.2730385617242046 1.9118394006117267 1.3314131190617522 0.2758757696615507
Ni 1.1741976667170186 1.9759481062229955 10.733264107030136 -2.804623863020002 -0.17001496787097817 0.26420321841962885
Ni 7.643333694599421 7.470334244655474 2.2525450673792022 1.897449193328326 0.6954620649715958 -1.6396773323563376
Ni 3.1702778037062425 5.185521100013437 10.778040873654291 -1.7715805809572587 -3.6189572831092254 2.063419558816285
Ni 7.709496435229571 7.770293118607826 5.417054359539656 -0.05774671989216506 -1.1043003777365175 3.345367224158058
Ni 3.6318612041571163 0.68793971897904 0.4211982299873837 1.2851093508992062 0.13454917086420054 -0.09197221673393838
Ni 2.689643036796814 8.50720369965339 9.41617560223098 -0.28475173199494186 -0.42957914485669885 0.6350840781041708
Ni 7.022985801636714 8.169384310645993 11.442870213770867 0.06952237237085446 -1.270967255070869 0.5207206381592258
Ni 4.8620670934408015 5.277908582247907 3.7497104417304024 -1.1824853108783764 0.12160855154313249 -0.6018044901154345
Ni 6.075019618088183 7.455391265780402 3.889005276168038 -1.9512922072907104 -2.5242018687486656 0.3119411479255402
Ni 3.690245024986342 3.2513462589249946 5.14064558303013 -0.04103634911601965 0.4393261969411337 -1.33350394015251
Ni 5.509971926249184 3.1561080587754544 6.398515546983098 0.6271635377055134 1.513834173906567 1.7898007035097112
Ni 0.4943126232587936 1.8816694614500962 1.2593800991622242 1.0077181730343936 1.539502782317265 -0.13194335781023728
Ni 1.464085867250448 0.516985146755217 13.047725649596062 0.5326757536385729 -0.15823982961292102 -0.6933874418307543
Ni 4.514363352446837 8.741679906203697 11.960019323386561 1.2796282731799768 -0.8908034274225046 -0.5527789521463512
Ni 6.388142101236593 1.436948150627577 8.140143025051804 -0.2576679884042724 0.11147403421229188 0.18928410051323527
Ni 9.053339766108103 2.55442957333497 12.524631954681002 1.2622586715532778 1.7335868753223045 1.72673077163242
Ni 2.5985132242307567 4.076098079255506 8.358222013947488 -2.6778715624924008 -2.920710713413957 0.2447371392752172
Ni 7.015616788986975 1.7159831277261817 5.631791673546009 0.605432573786325 -4.415730582827499 1.702117858179746
Ni 4.4383162598301205 3.9209575386030266 12.651368724577742 0.09455720385229521 0.5424618864910593 -0.4717565495556972
P 8.088865503652695 7.552958483834412 13.448922273819866 -0.7629419529911248 0.05823214416901584 -0.6720956223315135
P 4.076051498897416 1.4407118435611987 6.517249811360082 0.02356364625255297 -0.4415774548691556 -1.2639933948561972
P 8.900891570153188 2.397994098727606 8.932596956690304 0.7711391440899366 0.12113778255430108 -1.0985606470392628
P 7.440243333329736 6.82835443339606 9.763582160540336 0.26852447150280206 -1.6844363817395827 0.3833052014908237
P 3.2417320730153474 3.992849663278171 3.2036964158138854 -1.3978283132621927 -0.9417125555675459 -1.6252195050597944
P 1.7075800311268583 7.818652846376218 7.588525382057136 -0.49690605223813133 0.22526694636574754 -1.1451238395107828
P 5.620609592783072 6.95687895743627 1.6762062967393392 -0.818569569657758 -0.4868692368274196 -0.9321043430538206
P 5.640145394965757 1.4947730071597298 1.092592605773077 -0.8038919130409252 -0.049275449196360295 0.6726363253263319
