# total energy = -340891.8353898952 ev
CRYSTAL
PRIMVEC
9.05166451462942 0.00000000000000 0.00000000000000
0.00000000000000 9.05166451462942 0.00000000000000
0.00000000000000 0.00000000000000 13.24802597343290
PRIMCOORD
 96 1
Ni 6.385397168369121 1.8653127145997004 11.39505085461382 0.31253610119706177 2.494687918449949 0.48280972204606526
Ni 4.677357124830154 0.3201302191312228 5.9397393708204484 -0.6550880320299235 -1.7241475842862757 0.46811123949362615
Ni 2.93369878139916 1.5681103617013894 4.688793902953045 -0.45820529323382375 0.1855403172000869 0.24306463666880074
Ni 3.5022066749998246 4.101345401341182 4.911242179234252 -0.6746356151445478 0.5305962454017249 -1.3298005231589936
Ni 5.294173751981963 4.442004795607123 2.5779466417101005 -1.1127197121484642 0.16878829455272865 0.5859963194385843
Ni 7.2288222168162095 6.083198296654952 2.7173422753409096 -0.4459480731330256 0.2944188227710607 -0.6199235683136485
Ni 5.297921141093856 4.371854395565645 11.598607401872243 0.01978798126020463 0.48958432176573746 -0.5749071515039583
Ni 5.376806397398565 8.044006071956279 12.482356710596079 0.8358602384174055 0.03271780194799527 0.06261458950742765
Ni 1.9167895307333636 6.375666629008528 0.6551748658944899 0.5474822225237862 0.7862831988202265 -1.3550958073906727
Ni 2.6113328011311316 1.4932349927796975 0.30378381817188005 -0.3133567973261442 -0.2724230352262598 0.565534966260439
Ni 0.8207153273291453 9.337878153650353 4.561825299543777 -0.860792225772395 -1.1430687567539668 0.12158901115910672
Ni 8.707556443032493 2.3827239619766045 1.302990728533016 -0.014859433610335697 0.6066466486990842 -0.003200252104852553
Ni 7.118283289679883 0.6088258177122459 4.903346412272165 -1.0990360440137847 -0.16075076896023283 -1.7015331893208696
Ni 0.726622369461897 7.228776958493602 2.585644177219168 -0.33767711923906363 0.6760864886584614 0.46919727346895324
Ni 7.351010636191683 3.7286069080111104 3.941658651352568 1.3656242177258222 -0.4879403584044112 -0.25522364062883784
Ni 7.806019708357495 3.9937120585162496 12.257430993735342 0.0786976111122193 -0.803775442067719 1.2267003148326938
Ni 8.290573413521424 8.906376254246826 6.838604959295158 -1.5029578933136956 0.7382915014322963 0.42632695646798835
Ni 6.827109345352877 0.7899016509651192 0.3155084392265545 0.5462306095048721 -1.3736159776820471 0.7188233654053555
Ni 1.6228638803918285 6.683522791048622 9.284481479471685 1.4879377657557793 -0.8078591252187893 -0.3662693290544595
Ni 0.03629264889887855 5.128609756219553 1.3788409617236712 -0.01689523309344187 -1.251195985981213 0.25422168172688475
Ni 6.3214290551958126 1.8044402706927398 6.877394962435513 1.081571568680434 -0.3059353080510925 1.4524956228980856
Ni 3.542187877191207 4.3432692390068075 0.6312657992274499 0.4599904101587045 0.282658596911339 -0.8152736725153056
Ni 6.0587859574405165 5.437678841305525 4.93836096614061 0.3595332958822066 1.0692310448372102 -0.325997111797974
Ni 5.256989514127719 2.8366649377288824 9.431256030020405 0.24077404086241114 -0.7680738749010514 -0.5566047536503447
P 0.331126181191918 5.665554495633813 12.492690090813802 -0.2092255766321687 0.5495434759281891 -0.3067398062302588
P 4.261768051655391 6.209640998355521 12.547218223057655 -0.9472638244030782 -0.9766736450237632 0.2911830894425824
P 2.2270986938587796 8.464763645572805 1.4386959985384171 -0.14635979034588342 0.23493557980376312 -0.6095504526094406
P 6.471234103026325 7.822765287722236 6.0728160374488125 -0.29156284137950433 -0.6533304259088685 -0.027705179224752283
P 4.709861652126793 1.2075192021591459 12.945865295747563 0.009049254686461835 -0.6237097748289581 -0.5654593758274971
P 3.814009362771285 6.309145946440164 8.271723322155438 -0.6606346728797655 -1.086096196023665 -0.3730709253573252
P 4.919199497515087 0.856306472227609 3.789889392320894 -0.005909937726531757 -0.24284429312787856 -1.2378630163177327
P -0.09004143282743345 5.495048291042672 3.812596397939482 1.470246004902971 -0.21750118637739962 0.07578506545111464
Ni 1.5905132313920551 1.3346950886859557 2.498723758318741 -0.03156003419446823 -0.9769880909403883 0.3962759027188788
Ni 1.9297515143281243 6.313979535294633 4.778390899052474 -0.892775720657527 0.23162811269708497 -0.3863604433773798
Ni 5.730129070330059 5.463186431927059 9.145906831812974 0.23527213720757545 0.6476865973595298 0.5291728826916371
Ni 8.726157613624137 2.6271822657082446 10.145033182359867 -0.09888745579653291 -0.9432313062049175 0.20722217304889473
Ni 2.348209965156197 5.026787582017411 6.792766424991926 -0.324917248470234 0.7511529307759967 1.798620101573554
Ni 0.6389741967339431 -0.0897282452349902 8.892816860793648 0.07865698768227097 0.4550209819685712 1.2762650131346989
Ni 1.378803849899133 1.2950306947528254 11.328970082941199 0.11497047740132456 0.11533094606453687 0.3390107504488226
Ni 4.079241236579724 6.775406237606177 1.8805702003171088 0.9744079889180379 -0.26293386478890196 -1.1052923093361415
Ni 5.440738303913786 7.8609271053448 8.048652291355154 0.189065556744526 0.22825739645263915 -0.04611119253576575
Ni 5.180575362237375 2.569686092667797 4.978952250520741 0.706357628838177 0.9115085211803398 -0.903998843066856
Ni 0.7067639226682195 7.229790744920008 6.897929568568945 0.8670464342122229 -0.5259386920250555 -0.2564464572923454
Ni 4.866989496555184 4.677673933088406 6.783479417192885 0.41870929202173046 -0.2693040299813039 1.8217749424234624
Ni 8.047735357739128 7.435933352732219 9.063345694546092 -0.2546636543603098 -1.2860136078810305 -0.2923917650387029
Ni 4.587437889473761 0.6550390909266678 10.75142229198293 -0.9424106100758352 -1.1783473774506028 -1.2525085341450495
Ni 8.17652244055076 7.277918445180723 4.841107167022461 0.5469343204401161 -0.17589765190400028 -0.09454563388806943
Ni 7.11918845613203 5.918177400763829 7.25167766973295 0.4030834125590155 1.084348617204939 -1.1261005043307444
Ni 2.3860730778495522 5.2893854214501 2.679929935540724 -0.1291097450161841 -1.3877768425634616 0.5388973090682525
Ni 2.4251219585952217 5.618730235064191 11.532181761781354 -0.4209119561000041 -0.8904897528368276 0.05009897353892017
Ni 0.9693699085989775 3.3372762957539175 3.9465076280367253 0.2956454960893102 0.5877426127057297 -0.3791937504256115
Ni 3.937962856728447 2.4970645882119538 2.263478238737064 -0.22683197686002224 -0.31470431249297415 0.6103235833300393
Ni 1.2973660241993676 3.32305613079067 8.278744698324752 -1.3760803800621397 1.3670203267424006 -0.7658143894429134
Ni 3.6628194102689857 2.6877560046859963 7.154199389334666 0.5325947638889924 -0.2918551758089425 -0.11704561476279843
Ni 3.9538937862862538 6.715049738576941 6.003224125108309 0.8366827343187009 1.6242113755102543 -0.09782250486712829
Ni 0.46292022695758744 7.495276065335049 11.202305615459853 0.2350746764847887 -0.11758991730204264 0.8311337794760139
P 0.18585330178731108 5.581102465648393 8.155935334763104 -0.8857573803581648 -1.0154355962833093 -0.60983738772224
P 8.793103724425013 1.6982642458557664 8.132353938351743 -1.0284592622364868 -0.048368621111374764 -0.7185482573670979
P 2.0719984222832 3.3060480531548073 10.330558813891502 -2.0775068901472866 0.00481207667666268 2.7666802938966932
P 4.213576989743026 5.943187149836681 3.884493769233606 -0.8145283097088487 0.02539375748275627 0.020140222393300797
P 7.021050309390132 3.9958210963497547 10.172510415181277 -0.8699728638303986 0.36106001693937817 0.48210292578702785
P 6.280741823171755 7.89857297808964 10.101871225255636 -1.0876715109305848 -0.2163007383113952 1.530623477549764
P 2.3152075963108762 8.293660031123249 5.666273197796818 1.0719571855191217 -0.1438071991273588 0.5583965554434447
P 7.14564647152832 4.078263656811405 1.6156632812649903 0.821319107378437 -0.2031929972848436 -0.02632809637156756
Ni 5.813404383927685 2.932141895101465 0.4429486343573915 -1.1718432577834978 1.0459103678333987 -0.9219546562143283
Ni 1.4276013733344377 0.8667647654157283 6.915164842984297 1.216337740651447 1.3818044270301106 -0.8870696714116852
Ni 6.91427687469474 0.8081823926327026 9.057675731889836 -0.4271034296226967 0.0609909378610756 -0.22569683481431455
Ni 2.6454756797061583 1.6844514057959863 9.085641754595404 1.4185583467206926 -2.0706998945277824 0.8724218395915233
Ni 6.433289525352277 1.939020418798121 2.5445351376284093 0.5588904643607279 -0.5926919862912051 0.6397269761928208
Ni 3.952065350052915 7.140505126080118 10.458972062958397 1.0291945977406145 0.2304168659978032 -0.8733417803026314
Ni 8.045282356653805 7.307598853146659 0.23622581484935354 -0.8318632014428706 -1.3031276418534978 0.19501560368037382
Ni 7.725197395845191 3.7499054746301552 7.981140451521687 0.7084397081781864 -0.7634034660085756 1.3407038003350589
Ni 2.8168779990849244 8.292284178115983 12.432808804171943 0.06492781102163656 -0.19842900023729695 0.13071899848483293
Ni 0.052587455370448864 4.972839661469384 10.406523098055127 1.1702381180799073 0.11201088055236838 -1.1946381441908265
Ni 8.573917668037346 2.2480985555486153 5.805722236248304 0.7870085070220252 0.5137676038801603 0.4330118246873316
Ni 3.670712461731717 2.6875297130729594 11.783549201042241 -0.4052865908579213 0.9487113554828823 -0.886427409841996
Ni 1.3191714840316155 3.5902160091421855 12.693742042499132 -0.3806235408936025 -0.1863296458706017 -0.038349289202159756
Ni 2.9784683141224058 8.419107049726454 8.187624307086358 0.9975887979098755 -0.04593070109384347 -0.8114519847763701
Ni 5.705182682908857 7.687949796339296 3.934888911456952 -0.8307648261723692 0.6212998798358849 -0.11623057506067079
Ni 3.2030672658939165 8.45329518662409 3.4288809510442104 -1.050809862017545 -0.3547525866641116 1.8589317539794177
Ni 3.5435365752049077 4.373320765218125 9.448253245658842 0.18801294711029554 1.5742766954633403 -1.0664519394301764
Ni 7.261046142512682 6.200697953808298 11.298645196461333 -0.7474448857967901 0.5914473152508265 -0.30275279655805276
Ni 0.37657820942008335 -0.09746741840085656 0.02001685092280335 1.5983285942062215 1.691116879083552 0.5445653059873073
Ni 4.4940066082830326 0.11873701969343288 1.6311497740947922 0.7757715006556252 0.577471826907341 -1.0144066407981627
Ni 6.158508145473674 5.566972817330361 0.28289800745501453 -0.366678134457104 1.001514615326843 0.5343284587506475
Ni 7.777000071901628 9.16209482864319 11.167728256987795 1.26601813859571 -1.445416090343485 0.2894352535135402
Ni 0.030652556735543665 4.741089894725903 5.849241734101133 -0.32136115568785945 0.21223376733087318 0.7176285737663061
Ni 7.68907220273996 8.645109009498796 2.6008527839481603 0.6969224515672062 0.6090719703111253 0.18367035387088368
P 8.623176826363247 1.59329209240015 3.4390151946424607 -1.505548279748691 0.3969790994334905 -0.0485380568097035
P 1.8852897381986091 3.323372939048922 1.7647034634434378 0.03371924662931612 0.42813392776974013 -0.8866091868354988
P 4.745054523786311 1.0256803135871115 8.106692469433343 -0.7427677920360949 -0.2286255784253353 1.373659429325473
P 8.481400604963289 1.7869162481791525 12.410936362022236 0.42809536122232084 0.24269414070325943 -0.18648751160470464
P 6.202137168467214 7.721839228307721 1.3771057576349033 -0.06762566956877385 -0.5477794420492308 0.005498818331042143
P 1.860451970751665 3.038643779861212 6.092766811220609 -1.0949305064858434 -0.4060571504753587 -1.4702560322053002
P 6.751518894933988 3.690626123678976 6.086540171196281 0.38130231212818205 1.5227250486382935 -0.5290199020535405
P 2.245899001069896 8.649462860133628 10.29863087762488 0.6973703377379022 -0.007401434670393705 0.341736891130734
