# total energy = -340865.0461419419 ev
CRYSTAL
PRIMVEC
9.37572826551138 0.00000000000000 0.00000000000000
0.00000000000000 9.37572826551138 0.00000000000000
0.00000000000000 0.00000000000000 13.72232602971286
PRIMCOORD
 96 1
Ni 4.780871431061336 5.4167708347723185 9.561222509195893 -1.9730475966899312 -0.3307929905247206 -2.3455230545551022
Ni 7.781226406877604 6.792490215895812 12.120738235735097 0.6994555024017052 -0.005151462293952419 -0.9519805131524574
Ni 7.818991840914933 2.9708495585085526 8.04740333645054 1.1936834935870408 -0.9235821645154224 -1.1377216335094407
Ni 9.38997951764306 3.819127962173256 11.941593380277931 0.497443155688524 0.6540747602740606 -0.9529297644396039
Ni 4.392894413708126 3.5229299502300297 11.328878277780332 -0.8548167249152503 -0.3973313405665867 0.25440602982354893
Ni 0.9338872422077648 2.3048446908715863 7.9159987524865905 0.25089981644250337 -0.2385122414114279 0.0915119892680682
Ni 0.7493869706825441 1.3204588378722475 11.942910670119602 -0.16514941224856072 0.03946257687099655 0.7288198144964351
Ni 5.432222035192755 4.598025975600562 3.6725065709991314 -1.4667660167741707 -1.6330179180582909 2.7150851954282205
Ni 6.058961352246719 6.039619224535941 13.483310970481446 -0.5804802747163617 2.5482031167592694 1.5819889765059336
Ni 5.2152489283179095 2.9272617971283283 5.850829557262936 -0.7913467293860629 -0.2170576710820778 0.9476044955719486
Ni 4.370842700486726 2.603405386374248 0.35036159497044844 0.49153501773420505 -0.14507835253029852 -0.6401177838733363
Ni 2.967989961343363 0.4287604983658669 13.15187522088035 -0.28954606805979166 -2.1640998448471827 1.0385883802506886
Ni 2.6844023041122047 0.9676595535150796 5.078660504115817 -0.20420961147481603 0.8542989047385675 -0.5069073864252174
Ni 3.1603705325975744 3.496668534952334 8.588063153395236 0.4041043976243621 0.7954188425729075 -0.737355362771272
Ni 6.992680768915936 9.078836594613563 12.118556503733984 0.8932811995390357 -0.025786622045800747 0.8088016916377168
Ni 4.1076097496346735 8.729506329768265 3.982768175558046 -0.6718534244137203 -0.8413109771193318 -0.03687604709074294
Ni 3.0683946368909703 0.38719508160377825 10.725246380966787 0.5146235241225524 -0.8851889094492045 1.780250855037747
Ni 5.257252191596765 1.2699892918387456 11.80002081885284 -0.6528048924227016 0.10839976616234234 0.6418522500659398
Ni 4.250805249647617 5.1388461175010764 6.291000317104331 2.324989196267809 -2.385790643825898 0.03981019001840241
Ni 6.308965150311612 0.7563193842692376 0.40138337140732616 -0.8212517444756114 2.247700035467342 0.22181806858519865
Ni 6.067952675792349 5.101624475711555 11.3665874574472 1.993530547134631 -0.6968232069851805 0.0803767985868551
Ni 4.700680825966679 2.103538426170618 3.533485145274525 0.7618800873855137 -0.9428790650718214 0.6117078652720755
Ni 1.4948286348499669 4.707496980521083 1.0633773024302982 -1.469310123352263 0.3366967576036653 -0.35512128285744
Ni 1.0694893397810767 2.9856257064834364 4.81885531957063 1.2339058314421976 0.42962645315486647 0.3830182663780242
P 8.92873118276211 7.762118672377088 2.0702602157505336 1.3098004258879832 2.439519500807921 1.6224105748560895
P 2.199695896748287 8.087297060837043 5.36725480031816 -1.2409041171369015 0.8742187835909461 -1.446529892232954
P 4.682510664307209 8.161627835675164 1.7111191886965316 0.3960481029787889 -0.0008926870175984626 -0.7056811715964427
P 6.306424327912378 4.3859657504127965 7.453281240963722 -0.9289444572686001 -1.1442321809344487 -1.1307120349608268
P 2.7760219221392117 5.946021327814328 2.2398268270635753 0.15206738225362196 -0.21493111165737824 0.04028687254450481
P 1.2497470942005644 0.8081043449987267 9.66645943516625 -1.800995543784266 -0.8423954684327623 -1.1794686355392396
P 5.926491685535341 4.039288816707658 13.303534190929415 -0.16545794462791505 -2.7849441252028875 -2.5020232757690977
P 7.747492536056773 7.093460473599962 8.248655221926727 1.2879031115942594 2.650150956648681 -0.2557838840076821
Ni 5.9981222505912495 0.10762773671502492 2.8342367574125933 0.6171287791773308 0.7898842859079236 -0.38304346318900484
Ni 4.410427025835684 0.0655579057644536 6.69805975449135 -1.343625344857228 0.6537991380151708 -1.2263215913370364
Ni 9.235101860030685 6.74121435721901 9.860136669659628 0.3544242567904154 -0.7954514955830558 -0.1155857423878203
Ni 3.6641096686347243 3.6890397304781355 2.3411109459360833 -1.3006483270750697 1.575285596343829 -0.3122005722345139
Ni 4.492474025155612 8.173450629200753 8.69161151067887 0.5578761641636005 -0.6810350909129883 1.039760803292235
Ni 7.828395696510625 8.409887748255713 3.9575596545808445 -0.29527911388882694 0.8336478041471191 -2.404801380600446
Ni 2.320202134007918 4.489192520211952 12.471535802076632 -2.0155800707355027 -1.4703632472071257 -1.4556884188037702
Ni 9.218909977065822 8.775522404806798 10.76718213900109 0.46541055273301135 0.9746033927582958 0.5145322499603269
Ni 2.759033102259459 7.75826524800039 0.5125120051108165 0.1960263043330753 -1.7314891122530116 0.8462264121430781
Ni 0.2991326149356996 7.692588270485123 13.538117728477626 0.5114379273057191 0.24250696439311784 -0.6262546527379989
Ni 1.152277021645431 9.401324149019715 1.3027096464184074 -1.04949191453707 -0.06357181121437439 0.08790447442246796
Ni 3.655015212076579 5.116747525637625 0.3323489455482743 2.3012214044242496 0.8051129299322198 1.9130920420719053
Ni 2.7007066958179933 5.825674477937675 4.450987364512172 0.2675091428644103 0.7294597620732791 -1.1029618614307521
Ni 4.728029825739988 8.343535718294893 13.031668069357012 1.524659546656845 -0.7610848451777279 -0.1934207483894282
Ni 3.264066088817253 0.6762375376241416 1.8226950446452006 1.1616789156559866 0.07626149086690091 0.9892612518807865
Ni 9.366840219926047 1.1808448661121 4.121596461277397 -0.4576833592920827 -1.310440630575143 0.08521998561176937
Ni 3.9807280170559305 7.266564547242269 6.105955315758463 0.7503412335079787 1.4583384548321077 -0.6058118115026148
Ni 2.014215861604173 2.673254563032169 10.37565640844452 -0.18819523832443072 1.645695513525959 0.7338568626997103
Ni 5.679122467153786 3.132834018256056 9.123631949813054 -0.7344718705758899 -0.28131802372304454 0.8557459215977391
Ni 8.09563208339394 5.98793083380908 1.6729712249400552 0.48149203167590626 -1.9231442841015844 -2.6192036163375474
Ni 6.310690284339136 0.4630784770666706 7.789368289429247 0.4637295654861627 0.9229962101049652 1.3467716037956934
Ni 7.322340755556091 2.60917145934668 4.930884960774364 0.38833839303935697 -0.008394394711282317 -1.2774420641619355
Ni 7.122318965647355 8.284281114740791 6.113501839556041 -0.43842399684183847 -0.20458267854351864 0.9381230384440747
Ni 6.127047891963473 4.389884804888368 1.5541769956881735 0.466229706200197 -1.4320574096483918 1.0133990254692546
P 5.442769729654521 7.0848066762771085 10.62732439830227 0.22663914412292582 1.0370341483896914 1.3483209505606844
P 5.891632727305254 6.3271259362426715 4.94291870818919 0.13975976853086255 0.6604942906471593 0.13594065189508847
P 5.614823721714857 0.6115187595524243 5.107244287320783 0.9033324131274506 0.41605308534580604 -1.3482849551164262
P 3.1626769617865476 6.461226979697469 7.928265955538835 1.1119941468363495 -1.1195963846636396 1.0564927713349352
P 8.812181502891693 0.27463946203621603 13.587216543017519 -1.0643904289154573 1.7814754714734675 -1.3604035927568312
P 2.1036978135535955 7.793536738280538 11.793941596551496 0.6988664626674544 0.7490914202612777 1.1595556986653965
P 7.97572589275258 1.2158350845399335 6.403386235987664 1.1413417467605311 -0.48460152383916544 0.1718731041256395
P 3.0082962177799266 2.6348890823765694 6.549337262580441 -0.442108130561645 -0.07547550463049582 0.009559618663977084
Ni 7.722703110139517 5.065968580566579 3.748349650829859 0.3169830812248218 -0.541771288181938 1.6568091069406177
Ni 3.1808658749028385 0.8501619875023645 8.503972245281828 -0.8412847518670867 1.174007098204036 -1.4165904243610443
Ni 1.5973897279319798 7.670724071831932 3.07374630266766 1.2412938963761526 2.2483626087520054 0.3776114935401561
Ni 1.2381868210704685 0.08981010244378833 6.898254995375679 0.6558033129293932 -0.0036897901467613874 -0.6959708862872143
Ni 3.9140103336871026 6.026418198934015 11.91550729112151 -0.2187168039520556 1.7145218882710536 -0.7108920263734209
Ni 7.118409286900193 1.3729629169708188 10.109429787511008 0.6334992501155541 -0.03857888871446259 -0.13228454319973992
Ni 7.0203391677267915 8.386851583551213 9.952281328477621 -0.2823976299404685 -1.1244812235597665 -1.342843729496197
Ni 8.293788103348996 3.7889662438768092 0.3134306007616498 -0.8092986858787932 0.07631574114360405 0.32785473383200314
Ni 9.259413123799005 7.298470151023062 5.191472081068985 1.4555284961871386 -0.620202533006648 -0.08823434695806094
Ni 2.1818257583979515 7.659960735616726 9.602074433025944 -0.17490494897342782 -0.28708449389317653 -0.2531096796096286
Ni 9.389041944802013 3.2038645366936946 2.2738850980874092 -0.2658716072609873 -0.23724802998702363 2.0157713608107026
Ni 0.4123276591808551 4.711312901984139 8.583369663752961 1.2056990299906785 -0.999215277769705 1.026234486671026
Ni 8.550204899646642 5.579420971236964 6.865938734690507 -1.7278216907037534 0.0013344025407073792 0.10941920856579221
Ni 1.232458251011678 2.4241695863515003 0.4197701123930776 0.7008063600026447 -0.6905947095769654 -0.532167960764219
Ni 8.659872794863784 9.41548149891951 8.117908814097193 0.11747138944630736 -0.39052383072645 1.0489293571653806
Ni 1.3221933476281826 6.976348250024916 7.059573778406039 -0.6180142671060777 -0.07369630124288598 0.7504813586302688
Ni 6.078566000352988 6.446994623970392 2.626686257590259 -1.1363921160647397 3.0211593430500225 0.07929693525911503
Ni 7.068558538941781 8.116868108243631 0.8416010098907742 0.18357213773012257 -1.1854130260481326 0.14834005400070582
Ni 2.1370472795095985 4.72111991390148 6.331124684409732 -2.317769795701234 -1.5459395390815438 2.0515068665390994
Ni 5.859924013821081 6.430858995375991 7.512411147329965 0.29966361610976777 0.8586044740924567 -0.4680806433660068
Ni 0.5652120369331665 5.75455020221593 3.1544338213680714 -0.3931489270541229 -1.9794892385502163 0.40025288508875584
Ni 7.4219484941888085 5.221652550822252 9.260497895576096 -0.5813135692509344 -1.2231989865476545 0.40059175648541334
Ni 7.774382125137969 2.1052729359265525 12.311313979270297 -0.5142178040437015 -0.262138108360484 0.2288045272053608
Ni 8.3586025138505 0.8699550877496847 1.948831406815313 -0.1544094001232373 -0.7089151051527081 -0.0805338929900097
P 1.654506665408497 5.2048231183254785 10.437050553221887 -0.3211135584534276 -0.512441171759253 -0.16076516713793604
P 0.257446251277116 4.921301091193193 5.231334865551734 0.0544968454962997 0.6423700702426227 -1.5721159403665956
P 5.044948197470329 0.9234079905633945 9.644736810012056 -0.03403703498005106 0.045166055013677056 -0.3285407041554342
P 2.1250744743294425 2.274111053142101 2.8942714215704455 -0.775909054674754 -0.5471340951557481 0.31169020825699867
P 7.0613767309793705 2.4543406803763577 2.3249321889909953 -0.7394965774839909 0.8702376874560109 0.7173344395646549
P 9.27972095153606 5.666165210490532 13.35025907103578 -0.2538506715407112 -2.1933672263527324 -0.2934824269997203
P 8.128109606607772 3.272729261868517 10.171647121242815 0.1061294820709269 0.6495231363476361 0.6626699581422394
P 2.8681478295003835 2.2254603984202284 12.495536729234567 -0.538784180529156 3.696415622497705 -2.1558046947179257
