# total energy = -381162.9607135917 ev
CRYSTAL
PRIMVEC
9.33149917875993 0.00000000000000 0.00000000000000

0.00000000000000 9.33149917875993 0.00000000000000

0.00000000000000 0.00000000000000 13.65759229051664

PRIMCOORD
 96 1
Ni 0.5932164714346578 2.144555826183498 12.817541143951953 1.0345432636470377 1.3860408337089611 -0.06553382003675166
Ni 7.986792882255823 3.4953090056495717 12.445275911763714 -1.9956411657197308 -1.6859224793668062 -0.2451837398943326
Ni 1.9663988424985313 5.482405113485064 9.37739809556976 1.5030378546220116 -2.5559971588823918 -0.6258713012566511
Ni 0.027043617977027114 3.3318398017844326 8.42881013818944 -1.4520580211400347 0.8307571128628854 2.1928517201688944
Ni 1.044344070086252 9.269015531228371 12.498417866843724 -1.2289009220284384 -0.42560216248682187 -1.676885308865202
Ni 4.063018757033712 5.480370846648519 1.3398409242428813 0.6757170211341846 -0.9347500082067837 3.1352168217187746
Ni 6.25651829678455 2.926992706814169 5.757412794738012 -0.8269768198848468 0.6511971816159495 -0.9769335835533692
Ni 6.637682046657785 8.635910633098776 1.4676861965704275 -0.26463387819914425 0.32240219535786413 0.07833045758078769
Ni 3.1840848426566426 9.116090921515967 12.188595295038176 3.138454354819466 -2.634903029350675 -0.12896704879073273
Ni 0.9819163401023621 5.371621554386598 5.2884247065215195 -0.4486839840069498 -0.09900212699752628 -1.0610119993615275
Ni 6.738854161528538 0.85157395857546 4.66860226442467 1.3663145589246277 0.26615674260157385 -0.9007587388630036
Ni 3.805002802765467 3.5742254948085788 5.303789020036987 -0.9191750365866621 0.7157382987221287 0.4944794450745097
Ni 2.4579075710054745 7.123423908628101 4.220291845396714 -0.19075348596991018 2.1947260543734717 4.677175264665384
Ni 8.5853432386619 2.9794637270980866 5.245252525240434 0.02337749838367587 -0.33099147968877185 0.1443972673028739
Ni 6.4766390325977 6.282917108163387 8.094773258979528 0.30802150115615984 2.138020631261628 0.37760969376794323
Ni 5.331860036081462 6.962940784523028 10.66931150651365 1.4353023989482507 -1.077476572675454 0.6201156297197966
Ni 6.400596645207758 5.225564928122346 12.57390316372843 -0.7137534070816159 -0.535751050129787 0.639263406292841
Ni 2.0334363331120238 8.653052597221407 6.872268472608609 -1.2782455338998373 2.0825560225354196 -0.5469582316995161
Ni 7.760737312919541 5.824796483973687 5.8878699537056916 0.665868153364563 0.35846448829806005 -0.0472411923751509
Ni 4.206033314542396 1.4116692065714305 10.456880859232594 1.4596695149387056 -0.02637694733163199 -0.6959125222454531
Ni 2.391765904320002 3.0445322713697855 9.673877556597436 0.02612960720751629 0.46157292415447604 -0.6906101361959331
Ni 4.301186612396765 0.25606753722480124 0.8118264375192001 0.44351940908687487 1.0566334106778577 -2.2805420216980274
Ni 3.113361409839318 0.6184115194102187 2.7700602181738 -1.5717037925298416 -1.1380008553127563 -0.5777171101489276
Ni 7.173823336078473 2.9522157492874803 3.094495917805173 1.0421709553956247 0.19638034523838438 0.2398888100439804
P 8.618703348481393 9.063563912236548 2.3412666298276523 0.5985998671352077 0.9199592230508544 0.1880494567751858
Ni 8.355918998096293 7.685236152486109 11.811495413088405 -0.1584663438014303 -0.5575897432714333 -0.4251761306929968
P 6.097444229066257 1.1205544244626988 13.478323268857666 0.6475022492628655 0.4776307489482871 0.184282790643902
Ni 5.3512975490196455 2.906715358943467 11.631501990350998 2.484523319212121 -0.6945048432646491 1.8763386366019557
P 3.456471305770207 4.2718670417526114 7.431314860088856 -1.3455102205847667 -1.2610759640990863 -0.9521658896903861
P 7.554791124467455 6.455848452268237 9.869249290099187 -1.0019154503096872 1.1931314777383129 0.37225408588298475
P 9.048502872446711 0.7791848531419734 5.822450545062185 -0.251228917647148 -0.34992971135417156 0.24304561050540724
Ni 3.1081357702592016 0.16727272295952428 8.893810876776318 -0.06529033656737787 -0.007661373199999709 -0.3570292985134303
Ni 0.18268276082131737 4.303808763686073 3.40069973420149 -2.9757454336915976 0.3393943590404864 0.9720425740096549
Ni 5.606056810049568 3.290641232594765 0.6630991361695387 -0.08325849101002436 0.05711551406606937 -1.0302027272901548
Ni 4.913967505159407 3.8989430057173085 2.9732984055434746 5.409220528077652 0.21641206707827892 1.919468120801578
Ni 0.31833289912173757 7.507713710750157 5.654625397347048 -0.6545290742026599 0.45025801336228904 0.036070777580628204
Ni 4.93874263566871 3.8353675013256434 8.92507233241444 0.06179055094423551 -1.7476587800343386 -0.6345258916078557
Ni 1.8726825955286948 6.717046447780803 11.489313270525956 -0.735657663353875 0.6569736790884105 -0.5044293571983699
Ni 2.4666978432991704 6.338999418657136 6.736621133757964 -1.1101018149096429 -1.6163741388540227 0.3424231185644812
Ni 4.0767827184277685 6.013787338288145 8.392181204182599 0.606514236886278 1.1786086015317896 1.4233220866579228
Ni 7.6819514647500355 1.7448410558008485 7.430685917039392 0.45646517061426545 -0.7002144920549166 -0.535979106980193
Ni 5.706790344455561 1.5029779267347134 2.2438056522087075 -0.18557425576181588 -0.7955222009199912 0.07057909577014297
Ni 7.053456327250043 2.4328245010209164 9.632289863889035 -1.1467089246097155 -0.30960144404877 0.266226933717877
Ni 9.292978821302905 8.437382986550606 0.44227387216299713 -1.491911662801863 -1.3965443043434465 1.2364481382480772
Ni 4.983963081035217 8.172275092852203 8.50835183779821 0.9551298574147163 1.2936916932515785 0.05071269586351911
Ni 7.580788681378533 7.82135473204889 3.693695746559064 -0.4498237540383479 -0.5284758566246124 1.2882710364566394
Ni -0.00901516142562572 5.486016403694894 10.188905395814603 -0.9658554713623367 -0.948724982329637 0.09844342628057885
Ni 2.0264470401736183 1.0528170714054406 10.78660285318921 -2.530114891798991 0.5110147237253716 -1.2542301448218465
Ni 1.0546553767577316 4.217791003597657 1.4296901979234315 1.2404634300550572 -0.014399463254781652 -2.4448540256469573
Ni 4.007552325490477 7.866416541928143 6.261405202941884 3.017764201325545 -0.11867800815989885 -0.9236508129698285
Ni 0.06419418279195425 5.447104051821528 7.488594401936407 -0.16232556964652042 1.4996537686411269 1.025954236426446
Ni 4.125129216043095 7.77550907623262 2.07681474052654 0.14704858888279193 -1.7075053477439044 -0.5068474797215594
Ni 3.2872538983669397 1.8124291048701033 7.211291171867907 1.7948097266885281 1.1797100621260843 -0.4518636672865121
Ni 5.069579586655872 8.618358083009134 3.8451179848921853 0.5371738986192427 0.04183236265475376 1.5626733068964571
Ni 9.011316847934634 1.3543084806804033 9.714154173661182 0.5765215471789298 -1.1140420305043137 0.6829094251175658
Ni 6.678628665367698 4.973437149880982 4.0391646455004055 0.427149966589916 0.7391901019871657 0.29316926663467574
P 0.44313516954379123 3.081699632883363 10.837490318050369 0.12042481564767649 0.5404867650425594 -0.5423140480592854
Ni 8.364186706431976 1.3343204092864582 0.7959414263455714 -0.9302418359237851 0.3926362490837625 1.101717961721322
P 3.0220340266775345 9.322121093461304 4.9378346807916635 0.041054603948464774 0.0018599360268742161 -0.32561864541263275
Ni 5.972504785605226 9.209573881004548 11.587238023657637 -1.2633274791374243 0.5444310944022882 0.5682446518821181
P 3.4260786127122804 7.626158430733044 10.260621700152148 0.10543939798243777 0.6025920190137363 -0.11504966737869217
P 5.507618824459126 1.3193806789868754 8.60959580521319 -0.3358794039086925 -0.26439527982577693 0.5085408082635822
P 3.165869756120237 3.8914124858223906 0.21566961067080181 -0.44281235571752126 -0.24965000319580233 -1.4490061216875882
Ni 1.824149467928364 7.550209358335603 8.856962652537097 -1.622393091354593 0.938677625395964 0.11276087134451548
Ni 1.2492264676238136 6.434600628475514 0.24211507954589062 -1.2731989726148651 -0.13674103630919676 -1.027187851723231
Ni 1.252520486859137 1.4690952529572088 8.037370541341875 -0.9272634700217515 -1.1597400467620607 -0.750739754497978
Ni 3.3960685111236124 6.1402384846277105 13.179781546495693 0.3477707560296398 0.7242954442635203 -3.4253866394054944
Ni 2.026400382677367 6.839820983415787 2.314784768105488 -0.8592799028929266 -1.0319451639025583 -3.130285188745112
Ni 1.7329527257560835 1.9223914920345515 5.330558291936058 0.13974896989758515 -1.871450455271719 -0.5543964331451162
Ni 6.106047871374949 6.182696806216156 1.9935982965130368 0.6037909244178441 0.5275757134078463 0.14217994793658095
Ni 7.8305835848073455 4.66566564161063 1.342709427112395 -0.09992952390780209 -1.29933732157313 0.0068561036898849665
Ni 6.591145859897 4.496914809169872 10.378800472406406 0.6760818606727711 1.8376574179816738 0.14030664217326805
Ni 8.957772705236941 6.645679141515213 2.165397729758837 -0.2906035627900286 -0.22634346725937793 -0.15219490897042176
Ni 0.32522701076779104 4.826307401202957 12.336671257740173 1.695363827285364 0.9063943398822261 1.09744710226011
Ni 0.8236018564230373 9.154741991410328 3.9500488276609214 -0.21285211764116246 0.1562091723361374 0.21088110995772066
Ni 4.122357760765783 5.709337843750867 4.060128791715923 1.3072547766479938 0.4592442760212994 -0.08626668170872884
Ni 7.315774102672633 8.844786912315426 9.728740240139182 0.17704847767899187 -0.5069104717490108 -0.5976704133424029
Ni 8.99902726342211 8.394980653957662 7.792680901152852 1.035187582099256 0.6689167103828996 0.9786299974191857
Ni 1.2287438267696076 3.614780190549982 6.63853214623948 1.9062840180111364 0.3341552221287342 0.6263652101739342
Ni 5.482601074969319 0.7935096376409673 6.5917682708969885 -1.0323868794256672 -0.28481086736765143 0.1433207464092435
Ni 1.6381540248732231 0.9826628600423787 0.9607842269003415 0.1317860062967666 0.2816270703230311 0.12247604174975035
Ni 3.268366943884519 2.023572938404554 12.588462168858603 -0.10180102989890209 1.6175406483582981 1.3179371960625046
Ni 6.969967403458433 4.279957451602542 7.495286953198655 1.6716482288359793 -2.682467923613832 0.7953257686384689
Ni 7.173991303064976 8.446537187315059 6.481046299693574 0.3314439938451582 0.7365004709701445 0.2745711919175142
Ni 1.0960592389309034 2.1736421093463956 3.0862058138712887 -0.5229495274897445 -0.09188119968202886 -0.5978681311755059
Ni 3.9950854424921993 4.400744377897231 10.94940112225826 -1.319001889881593 2.0716311480928 0.3812236363714467
Ni 4.311955162531504 1.665243367196576 4.168802498833917 1.5600132435657907 0.6992374728536279 2.1244822304555604
Ni 3.2316008368387004 3.23426031412501 2.2855575793039122 -4.433547042183629 -2.976909372092712 -1.8105520771244499
P 0.2958523842780621 8.589449098331992 10.217463516119938 0.34771290620851086 0.5129039703282845 -0.25715582465454423
Ni 5.242856196232981 5.2976507598302005 6.320050876279664 -0.4310079068834255 0.2859328967872366 -1.197724496425634
P 8.161730498699468 6.230324778389216 13.614625678955676 0.24384599491951553 0.700417094984026 -0.23094574191807968
Ni 6.117964195917465 7.394494630347386 13.080846191995215 -0.015415820334437964 0.5234917731464598 0.727683644009463
P 2.5042477962820064 8.322698860765552 0.5128396026429932 -0.4888939805669322 -0.695472606494557 0.06327613435082652
P 6.170808476171391 7.136721295059647 5.292754522173617 -2.0994571691661323 -0.8946659957017044 -1.146178248917226
P 2.2415007718939064 4.632986731236402 3.6051538159234675 0.6883815039757306 0.5882964283266707 0.16425466834843325
Ni 7.978851776393897 1.030916042665203 12.108903358291476 -0.30629860492778216 -0.381936089057439 -0.4028730963204223
