# total energy = -340891.7728252093 ev
CRYSTAL
PRIMVEC
9.04327297473191 0.00000000000000 0.00000000000000

0.00000000000000 9.04327297473191 0.00000000000000

0.00000000000000 0.00000000000000 13.23574410656436

PRIMCOORD
 96 1
Ni 6.240355632230235 2.0490338009381266 11.190887347361494 1.6609550107881912 -0.9222449337612375 2.0414852206370386
Ni 4.668236910491485 0.4216534475940228 5.882083770915005 -0.8608601028958528 -0.9768901319099434 0.7450355050243491
Ni 2.9811420180008747 1.7737837058323864 4.668869035262254 0.35403884842653865 -0.28881561765167035 -0.474847272665879
Ni 3.511620402168261 4.398412779083332 4.90725784598844 -0.6554415587146002 0.17721559938447543 -0.3614138007343711
Ni 4.840701166619277 4.59074510561712 2.3769012746739304 0.8960600478357534 2.154511429827799 0.7164312110240951
Ni 6.9199033257159845 5.986176362816789 2.756634631067682 1.1781409178667517 -0.3255445976415877 -1.0590628460549567
Ni 5.0707891572154375 4.611499416760388 11.233903483228678 0.4717539784525359 0.021123412242176523 0.33215079010419574
Ni 5.625494469292548 7.709263481168058 12.473894445401735 -0.2256775515406049 0.3703653535007041 -0.5061643376116057
Ni 1.8185750361559638 6.707784318231665 0.4516382273141694 -1.1417904042621756 -0.7223383205371495 -0.040254219534356483
Ni 2.5872080102832564 1.5930538983386051 0.35726805803117695 0.8207570642273799 -0.24931755955704804 0.21069187676505002
Ni 0.6465505995861592 0.09946514919502636 4.794859912320216 0.299420132640394 -0.15859438473886234 0.1940018177038788
Ni 8.907677996508358 2.011422829241022 1.40752844326344 -1.584643383409645 -0.004953230240217276 -0.7583463632006423
Ni 6.813509220879141 0.8169936842365992 4.808347049417851 1.1585745656990498 -0.40848658585245784 0.20467780936048618
Ni 0.7289293890974853 7.457073731777061 2.8638308742044862 0.09293612330910446 -0.001337744974817051 -0.27453776757641746
Ni 7.556314607805921 3.7586735725922096 3.9893059682126952 -1.05779014999012 0.25269110401497125 -0.6753951190183917
Ni 7.5409500872689215 3.71955237433261 12.621910213435484 1.1152188244212342 0.13777410555940142 -0.46741961274324023
Ni 7.939812678678514 8.918593226813337 6.7570195128235655 0.4517603089394285 -0.10260809918122973 0.6459804133017004
Ni 6.937112673910163 0.300470878699406 0.2344052490448741 -0.9457802978790162 1.4922209665121655 -0.198413059397697
Ni 1.9888508202590618 6.801662533472743 9.41537908940056 0.18517984853687464 -2.125046330489147 -1.0094747507141841
Ni 8.990767587264068 4.849491227809367 1.3497021394836934 -0.2302787977580421 -0.6405996086057613 0.9601483936752303
Ni 6.436721258445895 1.993743230859719 6.880852664984454 -1.0515968766952146 0.5602837451638286 0.5594440228713526
Ni 3.01835508569349 4.453676219343252 0.5251256709797169 0.9112596383943273 -0.24829117517506272 0.3553773647323041
Ni 5.690859245302808 5.740506813135726 4.7054129007655 0.7948843102256762 -0.32344606324134617 0.8890638190235784
Ni 5.2252573004129 2.881503237967526 9.394215117998122 -0.5109738431851072 -0.19618982649413308 -2.5524688340141592
P 0.27075739716413866 5.527076531091155 12.522165627110034 -0.14617107137384502 0.10270862931483601 -1.1701956948777459
P 4.092117128354567 6.150148985757858 12.636098204177392 -0.7706354649806406 -0.487103978546045 -0.7964318572184542
P 2.1896838232524014 8.582463819020674 1.6267916362829158 1.000237291276316 -0.6347876299096745 -1.0395826258431582
P 6.230561767756091 7.798547713811846 5.89694729413726 -0.5531013684827765 0.15703783888501988 -0.9288891785506326
P 4.780762354306603 1.1873093763059062 12.669664119937945 -0.061621372356222906 -0.6552016747896522 1.1955837959335474
P 4.033426287692338 6.196550018645053 8.293450766996006 -1.485981413360357 -0.12315609853591047 0.3868101293202887
P 4.929804533806479 1.0294138327061353 3.703519555933524 -1.4190175457452978 0.8263893228124929 -0.678362943397464
P 8.921749329030767 5.574779795265772 3.5556104985191617 0.9077642236465593 0.048675610828832296 0.9809876990180847
Ni 1.7799783477204643 1.3050347019978774 2.7147036879400157 -0.842827156653542 -0.7309000940642316 0.8083715460788337
Ni 1.7736028403758 6.438412350464977 4.84540728579965 -0.01918634312046373 0.32641825849579265 0.14150271936389824
Ni 6.083907012283154 5.77038578656377 9.083333623617614 0.8008724094883111 -0.28808439591260065 1.4316064381539024
Ni 8.633314142139891 2.124192441422531 10.302015017695682 -0.7467260053528946 1.2024756379573742 -0.9071461304465861
Ni 2.402933239840385 4.968636347335539 7.068588295939102 -0.7852655561889895 0.923537427320416 0.38008000968530675
Ni 0.6563019606780054 8.94230468817179 8.9500764768413 0.8917256821264579 1.5603189477316675 0.10903585708444448
Ni 1.3442101598944527 1.1226771053948201 11.42680191864158 1.037173502181033 -1.265560739343317 0.8612599094374329
Ni 3.8849357478350504 6.85526201153207 1.4522392884588369 0.8987625343685812 0.2203728514982398 1.1130161603429605
Ni 5.345966906138543 7.945645589653419 8.035631580268763 1.2875459853651567 -0.01887343986573524 0.04934332631981825
Ni 5.245161543910213 2.882299045976505 4.863473936258047 0.6916979699434733 0.16354478676560222 -0.3441647838459363
Ni 0.6768681717464246 7.254829978222349 6.954536347670397 0.5924955540096829 0.1429296816184119 0.0968367439150913
Ni 5.0201016130071485 4.593322438373473 7.318876245054095 0.42081682528303654 -0.7571888525574315 -1.276747609198072
Ni 8.390285228124986 7.166015995765685 9.23759648452185 -1.2226282016458492 -0.2896702523424818 0.7056513467997718
Ni 4.583347708442743 0.2654055883037524 10.618071072789123 1.5506564849412392 0.7619343376622169 -0.7941942261371869
Ni 8.172496088576688 7.283750364730485 4.981099785948897 -0.3764071888194098 -0.8407196233922359 -1.2942583643883256
Ni 7.134355497590267 6.2703883412963775 7.083213981085947 0.9350685678884669 -1.2377169776581716 -0.5489387524646546
Ni 2.1995229040906916 5.1944106967921195 2.7974541559646258 -0.4418867585794583 -0.26337198076758517 -1.4687905034033673
Ni 2.486022830596095 5.2187642305214546 11.529564245110173 -0.9230553454776748 -0.10278473396841008 -0.48071427296961733
Ni 0.8654737655472529 3.4748866279355997 3.7065372960766654 -0.4147598204556793 -0.3759981263064492 -0.16758039028755656
Ni 3.788552546020253 2.7642119893713617 2.3470946474285213 -0.8914212635121614 -2.3125280876863203 0.35258617514041213
Ni 1.248622766088635 3.1521683937488056 8.314442916214684 -1.0248139521744157 0.5871962532839565 -0.33131621001804235
Ni 3.579182693476044 2.8193940401758177 6.827857277550126 0.8856455373706489 -0.5655902449784066 1.2016099475229693
Ni 3.9410854288322428 6.778267586663315 5.974376700429104 0.290734431940938 0.8862638876809382 0.7778810907994602
Ni 1.027460485775004 7.455961409219055 11.43630458973062 -0.0709609045895939 -1.1470747925895663 0.48521061817807404
P 0.22061968394387235 5.554305825580211 8.18743286230886 0.6176730817165749 -1.1887382337666237 -1.3421382187887403
P 8.674632855697013 1.595151937635005 7.917026344130499 0.8234451525825045 -0.05671519330385716 0.2992805217387362
P 1.7316510977206259 3.0168539024038243 10.631545549304796 0.1169060038611406 1.8777481153549727 -0.7046499021184509
P 3.801601988712949 6.218416652346328 3.690376967530687 0.6491714094351723 0.45159215879268033 0.347265277148131
P 6.968013537167919 3.9167409383757374 10.20437480095761 0.2936685748685975 1.0429607982867715 0.8457646420153112
P 6.476149927981692 8.037371505961122 10.139612306917781 0.08159087349961433 -1.2379411778538356 0.5663806020901858
P 2.3709833569344294 8.396371350739113 5.9085018838312715 0.07712023932277041 -0.12814609555133413 -0.08831353693542855
P 6.805180366603345 3.8634398883197782 1.6240262034517123 1.0007558827839473 -0.1679136052572592 0.8783988831105646
Ni 5.348960229445046 3.3085265809675932 0.21529410057469106 -2.0091034618722237 -2.2123746206931707 -0.4299000185312274
Ni 1.845731984462385 1.2725874390863094 6.817705299471941 -1.5217146050959083 -0.6473438693081303 0.5954623499474907
Ni 6.9531011802723866 0.7983346994078817 8.91214266030419 -0.9863885583186819 -0.6187868836060441 1.3417291562757796
Ni 2.7294677351611485 1.6153455658628568 9.37585727415462 1.1289225471605717 -1.5403882702460117 -1.1430404746191927
Ni 6.709755751708455 1.7310180686225742 2.6165208748321853 -1.2845997582526392 1.3899764213179417 -1.5051813833275756
Ni 4.444741465787892 6.864169635268941 10.49778469223189 -0.7339532790682586 0.22403564506180773 -0.36363909052046406
Ni 8.110124635872928 7.0412369172668505 0.41948396644227104 -0.1212362558053783 -0.15213397382549929 -0.123774963066832
Ni 7.771372678959766 3.642196218550683 8.15119285077268 -0.09654826614039501 1.0366654521963632 -0.25575405921101113
Ni 3.085510429723954 8.454094561208604 12.48345047180047 0.8900950885015704 -0.12942856180818355 1.0559757224892006
Ni 0.20492960558501766 4.6741602541946845 10.158235118655183 -0.1449114879351311 0.15867845981223638 1.251102397826142
Ni 8.60865313713436 2.3954454099377154 5.887299026355668 0.5493912666210409 -0.0951938089950296 -0.6003505312777274
Ni 3.783895260513158 2.5943612390912416 11.379933348549109 -0.7320951428135972 0.4350723067607861 0.7262798216834008
Ni 1.0710761906307713 3.3584725768038783 12.759124696401903 -1.022333351844407 0.19509479365774143 -0.8404874527767718
Ni 3.0027102236987817 8.453904652479189 8.077298459829812 0.22217108104924319 0.2883726165769808 -0.6499874775785645
Ni 5.76118877809636 8.070316148878302 3.5229579533143682 -0.8344006231527437 -0.7639644807183681 0.4417245219699812
Ni 3.0568342115822085 8.410361293806055 3.721732707411757 0.7760136985734184 -0.29853130227753744 0.08648445414648975
Ni 3.2048273714338835 4.142424855104024 9.367650504062022 0.2260878996051461 1.1135900305685595 -0.309557478184712
Ni 7.346999014898687 6.125071990202178 11.346023788421043 0.22711248421491856 -0.31992236635880383 -0.05734717046090124
Ni 0.5748302114314592 8.880150274015936 0.19228801449692376 0.008839452668500907 0.4511352737609198 0.6404201456051035
Ni 4.508360890142095 0.18694344025480092 1.556629404036706 0.11166609561843993 0.7065887710123767 -0.3050433923644424
Ni 5.972403458297749 5.511522101824741 0.34306378939817805 0.6410256403995864 1.4456456898557877 0.018893494470393266
Ni 8.290158111358853 8.81419768527177 11.33633482591172 -2.100071919931996 -0.5658162449462836 -1.3815755988487561
Ni 0.16081019043265787 4.847067630691111 5.793708387190563 -0.8459199366462529 0.1127575289104058 0.5730166193494647
Ni 7.886918575899874 8.720500335487278 2.2232081399579404 0.6668675411633548 -0.08669117084065715 1.3152557925755994
P 8.609512248053143 1.4869220484138106 3.5922601703145105 -0.01901587898087048 0.29913833973391707 0.35955772136223885
P 1.5954051492742258 3.1527652497555403 1.6826862969863214 2.321678643837337 1.6998177492916595 -0.49720584286673725
P 4.749970010322799 0.993005616295329 8.120036062893854 -0.4042674055647877 1.7053034549965793 0.03104221401778525
P 8.38971550193674 1.5274539972347827 12.48031336045598 0.19804847696942665 1.5944297733724475 0.11982934815552265
P 6.1384379474439 7.5628981104256585 1.4143850527226238 0.26626267205181886 -0.18700121801632955 -0.15620891522582128
P 1.7042228512293258 3.198732205546928 5.659392273165938 0.5776566892246374 0.679810474477268 1.6182351033221614
P 6.805804352428567 4.103276527025936 6.024090284153677 0.20744200236918467 0.1408126352754091 0.4472423664644169
P 2.6526632190218096 8.581306280098522 10.412863838728246 -1.9438902583996847 0.06283261905550469 -1.131935880065599
