# total energy = -381166.37260152894 ev
CRYSTAL
PRIMVEC
9.30048364096023 0.00000000000000 0.00000000000000

0.00000000000000 9.30048364096023 0.00000000000000

0.00000000000000 0.00000000000000 13.61219791583880

PRIMCOORD
 96 1
Ni 8.945493484608715 0.7140241707692598 9.429672942966095 0.27195175201679617 -1.2701162199244835 0.252960555626274
Ni 4.899029759924187 8.16990755249747 2.586535185308195 0.36122251065917144 -1.5296994230735976 0.02700429650298575
Ni 8.886323807660187 8.499191175943348 1.7044103529484773 -1.5749984041207132 -0.4138604485698614 -1.3812462405337953
Ni 1.1508790481481892 7.850473141231489 5.040719838108367 1.6345276698345979 -0.15162900916462274 1.000256831660342
Ni 8.556249643104497 8.6523887425413 4.2223135492478745 -0.8867225724849117 0.849961196595162 -2.2020292729031046
Ni 6.320004153602435 0.6151042267226463 0.2479425235363928 0.4078250410090589 1.0361401758205124 0.8603019163995377
Ni 5.565111797600979 7.610037038044854 6.44201347834575 1.5217693695932437 -1.1479903624253003 0.32960951173958075
Ni 1.9372256398365233 1.599813393685048 12.94766365593465 -2.39857622562634 -0.08591186947247141 1.2180719497337344
Ni 0.12175821168490457 4.332621005469241 12.748422184956143 -0.14298573166732795 -1.104687071651975 0.8979940316336729
Ni 5.971821947390223 9.00310068030491 4.47626232512211 -0.7832364415741027 -0.3961715159305306 0.5047039510159953
Ni 0.6362358556121076 1.7921845973951038 2.1359444236341885 0.8150422732307899 -0.9444852332166765 -0.9153708323492235
Ni 4.804750757216353 3.9824670967243225 3.36930481098672 1.4431715172836823 -1.0366019459482794 0.32332342162055283
Ni 5.318397867954071 1.1993159669705624 2.237967939073088 -0.2689584737164271 0.4394992321838882 0.9749803164817402
Ni 5.503477492486565 7.135331052328118 8.903480409839839 -0.10754538858184705 -0.8160753424809946 -0.9064035958536067
Ni 9.209208698358408 4.724078362080934 7.681486143549677 -0.4422024900476642 -0.6964719942933489 -0.8835122930777299
Ni 4.219480621929653 0.22537769011726025 6.227553625979178 0.7650782826078373 0.1984174302730712 1.8242434585686131
Ni 1.909603203411322 5.880928320729115 12.987452055015678 -1.2436102032141552 0.8316009489204194 2.174835486097132
Ni 1.9342959874883958 0.7289774883734479 10.583306794369886 -0.47048668170433805 -0.22366874864069222 -0.1941493990253366
Ni 4.091431563107372 8.380768117693487 10.206589774286916 -1.458130709696676 0.8995420928470831 -0.5021097079262579
Ni 3.634982426785476 4.960357149078321 12.049530831125416 2.223804974017299 -0.9295957176993538 -0.8861047363952546
Ni 6.888282305269995 6.971372826153075 10.943118325331616 -0.27144627313528735 -0.27184865078002857 0.33652783612596887
Ni 2.349432375459874 6.5963587246254765 3.5408047993493708 0.7121086723893414 1.392124063788564 1.3892403144828656
Ni 2.233455344408607 4.262681368459976 7.573282456728775 0.4029399450026157 0.16359903704230536 -0.056505905506528495
Ni 7.879509251170708 6.478651803616268 8.639144853831036 -0.8387848682633683 0.2845036205398777 -0.4449425146866466
P 8.163285608142338 2.6887326197912533 9.529028149647285 0.7248266341766421 1.3850275619530985 1.4802427111043668
Ni 7.213213302370083 6.50560460521904 4.423950824813293 0.6016787631708477 0.7234037856871864 1.0719965233974893
P 0.9880647814614633 8.503162482459699 12.629438307542497 -0.1868855183740717 0.7990520684501207 0.1813108524997716
Ni 4.545620681903571 4.798017207057483 7.489812476112985 -0.5116191900785899 1.7128149328822757 1.502317431516219
P 1.8931134459090049 3.027939859286185 9.343862030616895 0.4855500037953638 -0.46424584300094884 0.5060658643605285
P 1.5202384556197204 5.5393122559701675 5.771830857429944 -0.5243988583417614 0.5946480815763113 -0.045863595301333916
P 2.9409803372068466 7.071539035008099 1.3408414265942288 0.4800028487248895 0.49154324526432125 0.03214264617081561
Ni 8.495312874263446 7.693378671986345 6.194352759463795 -2.884109774361472 -2.871758194774654 1.3095394589171125
Ni 3.527571141171115 9.24504346184201 1.1312159656262493 -0.2202530380909239 -0.14124818015093094 0.17451234152069947
Ni 8.897893609314378 1.8695553208366023 4.321777571587711 -0.3705201339110135 -0.2080726939746481 0.3984001481507332
Ni 9.25515308756396 2.1328520128222763 11.434205252892024 0.42053580370750804 0.8920290722994896 -0.4457074178771292
Ni 2.8143449518985832 0.4583892172102125 8.33187640522088 0.5590395883440824 -0.1438262252907523 -0.08605970790424533
Ni 8.11543461978959 4.460046931887316 10.776082569118493 -0.9577459548813249 -0.20887436394033704 -0.7105477556601247
Ni 9.138580825559425 6.5225128844853755 11.471121662623524 -0.775937079699212 -0.16161697361527003 -0.2020390861860585
Ni 1.9729394970327432 1.1614164961178028 5.994838784314496 -0.7080427298500838 -1.1971812223276543 -0.11498204736555036
Ni 8.479715963191033 6.370840597205178 0.0009179577357465919 0.7972656659736592 -0.12898144696843591 0.7659254610994809
Ni 3.1760407608467593 5.006747961498828 2.4105430633450826 -0.3582588000451572 -0.7996146258218099 -2.0800545962698043
Ni 4.736978132896338 3.12701791155476 9.255436752315129 -0.9489535534006752 -0.05388312317170075 -0.06429994762965055
Ni 8.793635187655621 1.413310795154892 0.050201220569801204 0.9900199844236821 -1.2813187735085223 -1.3231783898567857
Ni 1.288926126888682 4.647460977814667 10.775688228611951 0.7360669829771517 -0.4789659228199428 -0.6797338556030617
Ni 5.601067467371966 5.05706357801746 10.178956177281341 0.7643522030750901 0.7534052171452831 1.0707824484847301
Ni 8.12141483077323 4.38960506876123 4.148466779059409 0.2443404180574308 -0.19520560820399283 -1.1395286048111923
Ni 1.9396530660678288 7.093599782213681 11.15751028416758 2.1234687015893816 1.8160282697476724 -1.5533186051544345
Ni 4.276706497796408 2.1682217521236367 4.723310142131869 -0.2975478553183456 -0.29992921106632864 -1.4610093167960516
Ni 0.0027603835457911696 6.319799542962248 3.48076180698659 -0.4062546111981455 0.2442946524211599 0.9759845893765385
Ni 8.369375025228546 8.973153122968496 11.552835711927166 1.7782736767067182 -2.0535141267771153 0.3603797030429019
Ni 6.406201036022895 5.295797692697088 12.77085495150752 0.22469256191951623 0.047910707638349745 -0.3653136500094095
Ni 3.3675098176432643 9.337592574591902 4.191100196087397 -0.9487208685645789 -0.24931344579198997 -1.8064820208201342
Ni 7.07079499631651 2.9481882120316047 13.557232234791881 -1.5850694152034701 0.8674177015087124 -1.1181997614264292
Ni 4.956274236758231 6.412915985214476 0.7785276750881097 -1.1201399158719354 0.43556030214079827 -0.2767244908150912
Ni 3.0890626378001316 2.7657034224360237 11.24592161174388 -0.3704340019551104 0.006598736263440248 -1.0595958357402913
Ni 5.137931283309421 6.143155457095632 4.177501958950263 -1.598896036673917 0.8818274491761394 -0.5254761505663402
P 3.3724018720404554 7.520240868453837 8.09807340696975 0.09322665796632976 -0.07907299217376704 0.1506681879132502
Ni 3.4047210527063054 5.623360726668668 9.772932403185086 -0.20166370512451076 0.6521430904689866 -1.2989822522265564
P 5.314872984652673 0.363192256766632 12.037403000452535 -2.115689828974911 -1.5164762395151044 -0.6701678091811812
Ni 3.8085480525656465 2.441655971282196 6.865176183702733 0.17282158408183784 1.0267633625913026 2.10015265257126
P 1.7555034898998196 1.8564695403482998 3.941943029386987 1.792978329906744 0.4093329930131531 -0.5212459145350765
P 7.070553183741745 8.972957812811954 2.714176882946831 -0.802082113525696 0.13574807626830815 -1.6503034446116158
P 2.4121455366770905 3.709590906584454 13.206350098177573 -0.4681714033076002 -0.6583168233798663 0.8609390357629043
Ni 7.275638148594309 9.039177256363278 7.896422180678865 -0.22208057821796592 -1.08765788408383 -0.980002709396996
Ni 7.026552595617964 1.3497512899259942 11.679074896632157 0.2777053666711217 3.2238324632756545 -0.23466689952340872
Ni 3.469759334834734 4.880726408111124 5.136073046677181 -0.6351640394124868 -0.8295258115589456 0.632553341262517
Ni 1.2330395206667848 6.31316829812347 8.77689989738508 1.1066259405459007 -0.03371847529836774 -0.1616051465407281
Ni 6.838506116802763 4.27325601836417 8.343447136923436 0.2213241596679156 0.8031884592159974 -0.27261921039746595
Ni 7.0196423362698415 6.537375057349844 1.8411042113186449 0.3871433442899913 -0.4402834186480804 1.3409531973417033
Ni 1.6466506293205074 8.709196096644037 2.3552507580280913 0.8371596739551195 -0.11855408098752487 1.0416112262374126
Ni 1.0046754452511635 3.305782507692402 5.683093082877711 0.46219307423697825 1.401895541353031 -0.9573433201262673
Ni 6.6932325622702225 7.818553881362367 13.42482589938199 -0.3258680424192775 -1.0779077466756015 -1.0775004839348539
Ni 1.0808278053351867 6.103154076939136 1.5850451557053924 -0.7638636934744458 -0.6035297003366573 -1.0030696185187886
Ni 0.5251806405056952 2.2027730488642505 7.770128123120368 -0.10846995727864545 -0.11708238153800482 0.28989830919288784
Ni 6.494862546609239 1.3929334354890277 5.869430132798988 -0.34861227809432865 -0.8418763627044985 0.6107825252443287
Ni 3.2761232653489785 2.3034507843197405 1.9038155124391325 -1.5188269991354681 0.8409088565849067 1.2141327625803284
Ni 1.0131202844006864 3.9334628483996132 3.0423258473880366 0.6661445469544011 0.531432368149775 0.754426459320946
Ni 0.6509613113669971 8.493610885756437 7.6389615421803345 1.628721604675782 0.799612568939281 1.392608202513834
Ni 5.6574562997106845 3.788961234009595 5.954165909238842 0.9137158132443038 0.08905118643240148 -1.6545470503793183
Ni 6.648720447545976 2.520356663884908 3.894395236801061 -0.9535198326151191 0.536390740596315 0.02250640863263221
Ni 4.9205696800456575 4.10241543429194 0.927830199135599 -0.10130814942288359 -1.1492301483696725 -1.1217003183805199
Ni 8.68042970073052 3.7635523126918677 1.2776846323071531 0.6963730068216394 1.5217539429742761 1.0981186744058378
Ni 7.911716826032819 3.1993105709261713 6.107425789077215 0.7283156211665069 0.5669303039460688 0.6293165794927743
Ni 4.119053999532574 1.7859067709348309 13.435457282236417 2.0469125623001974 0.8909193841750787 -0.8927852337392238
Ni 6.353141776829031 9.146653645363152 10.014943078252795 -0.44668263730620494 0.4132125305732174 -0.41049590297300276
Ni 3.3942952105404296 7.362876685182992 5.685120588312287 -0.18962759989558312 -0.8884297849840055 0.6147222266183672
Ni 4.563477610501682 6.9789620208072725 11.929539711333033 1.0036607151355683 0.596632716106508 0.3488161665750186
Ni 5.340812033538157 3.335804468897974 11.725941893815282 0.8413228041938736 -0.709502602225062 0.34989268746864904
P 9.22655410035605 7.702204830965306 9.64603939447986 -0.21678153460255567 2.3040686440650577 0.9232723465844874
Ni 7.622667094834558 1.789896678418471 1.9212529892248598 -0.25647473942711957 -0.794106037298755 1.4921435763070108
P 6.649948111387095 4.1072516857872605 2.189113428535061 1.1882903475959277 0.1838387611279479 0.031051212878849748
Ni 3.2342059855616445 9.056132038047839 12.452152488304387 0.10186762147077941 -1.0635841309640781 -0.9663192983726324
P 9.07259389409922 0.43793466353009614 6.068018709825626 -0.25226764332430746 1.3808814009952088 0.4997702611598038
P 5.056412544162321 1.1783805782860075 8.461587460470493 -0.2012237893736147 -1.2105077642332314 -0.39031377159817293
P 6.994772843003515 5.73934705820358 6.619679687364935 -0.027135679874527457 -0.09707251407498121 -0.35840843824914403
Ni 7.045348873064205 2.0338297634555693 7.9816759940577375 -0.8390723175968001 -0.7826893108213812 -0.2894229122183661
