# total energy = -340863.9267435703 ev
CRYSTAL
PRIMVEC
9.30945405384743 0.00000000000000 0.00000000000000
0.00000000000000 9.30945405384743 0.00000000000000
0.00000000000000 0.00000000000000 13.62532702184340
PRIMCOORD
 96 1
Ni 5.921464569176819 3.0629873301460337 7.881475206530528 -0.6479758464651744 -0.3490267399239279 -1.2597688152518884
Ni 4.638137680956713 2.4340592194593995 3.772526005243035 0.3104218830675363 -0.5147307391243781 0.29717196003616564
Ni 3.031986847470607 1.7217649459023603 11.328683263712144 1.1214750897435912 -1.588358370367387 -0.9887172064518585
Ni 6.360228457758064 6.444283520243478 0.6320896013522725 -1.4545707602595594 -1.5319321690588585 1.395543630993074
Ni 2.1063757390713054 3.5776139614666347 12.017498162687893 -0.1445430488521188 1.2704864587797087 1.21637605008855
Ni 1.750428755559309 0.7065131024635136 13.50742697639477 0.013255579458325558 0.014503850043129861 0.20741217757251373
Ni 7.553923920392881 7.998915833871983 1.785476058000204 -1.6106112682283165 0.5164171256878655 0.7304609496442839
Ni 3.1433651581999786 6.345314712038534 2.7651788194137095 1.4216858366060807 -0.7691622228692238 -1.4849321461602363
Ni 6.315515148962245 5.1178910966310225 8.945408979114903 1.4300918012815886 0.1098598956476366 2.069613089221507
Ni 3.544658493397262 7.5953882296530475 6.730789422562519 -0.6038534022246632 -1.3030147704247175 0.7499941345812051
Ni 8.186808549138691 3.9635187687772873 0.6287791594185242 0.22268504457118424 0.07448922945782656 -0.5127301637545815
Ni 3.5689840973705023 4.890805578942828 0.1879187817386285 0.6945644928579909 0.08134019094138895 0.44808825940447994
Ni 5.561049047621517 9.308811904541239 4.13156745135002 -1.3846141285647637 -0.33136506097810675 0.8504144820824967
Ni 1.5990011726168183 -0.08510703081644234 7.78872790660546 2.465377856631922 1.5915033437542718 -0.5282393151337742
Ni 6.130163914707666 5.633551077374137 6.7860531358676655 -0.7102291959784414 -2.4815431535378742 -2.2123460814480804
Ni 3.2998105369869304 3.6434504219713255 2.3051605158185704 -0.7174048877912742 0.7451049248097038 -0.619356640066585
Ni 0.4865632814632211 4.841307210658971 8.80307859487224 -0.980324611512789 0.16893561876387034 -0.2594273942975403
Ni 0.9508490388897165 2.9456788970550263 1.427443756734665 0.9177601585170065 -1.3673226884741678 -0.5237051747088465
Ni 7.124357772617439 8.279912401161798 12.841298286497622 0.5810191779389672 -0.3958956365613246 -0.03413293712796702
Ni 5.859966314355837 7.907078067627813 10.924310361046683 -0.5509766088302899 -0.8060400697321796 -1.322149177261323
Ni 4.003381851905269 0.8280433730600184 1.765052046306024 0.5777816448382759 0.6046818116632295 -1.7428181641125855
Ni 8.656293636767657 8.251239282050593 5.836517660973595 -0.49338415512780187 3.168626764637788 0.28953784052967557
Ni 0.4363909086911652 7.7138044878006236 1.5355060398577343 1.1344067102035948 -0.49865440238780573 -0.14397792037726817
Ni 6.190098181213491 1.033749729047277 2.245903977582646 1.726217322331111 1.091810729909939 0.3139190975875174
P 2.4441320489653493 1.2545699840205884 5.955903033309313 -0.09939499156057076 0.4983263296244256 1.1831106031672012
P 5.041804926989502 4.894780715910517 12.265683558449318 0.39614889022271127 1.1158153203546526 -1.4089393355736897
P 5.035558283183132 5.396960606889664 2.0523697330362647 0.03004771131499986 -0.6658265014933501 0.10726076746189268
P 8.606897672480626 8.229455159089483 3.619826750849054 2.19281418206274 1.2020670896650458 -0.2856565031973984
P 8.541293948332358 6.530880063741023 0.15305208271031726 0.9344036806109586 -0.5374842307708098 0.8622878364813149
P 0.04582113385238779 2.1545521648506853 12.881343834929039 1.807193187954546 -0.19823205373514247 1.4081314949604136
P 6.750806611105673 2.9370955802301784 3.4725372203237486 -0.5325130028084636 -0.5007346819556021 0.2286335488451353
P 0.06477425177397989 1.0552918061977088 8.691242258993428 -1.126853066226053 0.5847426495371413 -0.16971183480826255
Ni 6.6403592458019896 1.5906040448771082 13.597640242871114 -1.1475309062903787 -0.772205894791554 0.13597921844250774
Ni 7.834455014969852 4.075707002027007 5.078200238406794 -1.4907837198450067 0.17636739245156724 1.5213389669240445
Ni 8.590736459890673 0.42824513621639093 10.606717398127627 -2.0408321604340722 0.07467846265049718 -0.03763195142016099
Ni 4.439445998752017 0.3773522116848522 7.432739030549307 -1.1965538731563006 1.0600264955198067 0.3831769034430756
Ni 1.9449684211654341 5.296539523820645 6.875408070661524 0.6627530047743488 -0.21031752414476682 0.18357368039201935
Ni 0.3517102508796882 3.0902174838474226 10.625888357278829 -0.9314050029939506 -0.9970375533920959 -0.4444056683465701
Ni 7.284554861469915 5.671291604931549 12.37795557678735 -1.8270734718182404 -1.1424699468277033 -2.4008722207493682
Ni 5.8322706879416035 1.640521338602525 5.778338226595192 -0.7071307595587757 3.069966594360713 -1.2085532116100217
Ni 2.759657382093951 8.112453937988953 11.909871562024048 -2.0679691258601802 -0.6738699406231169 1.6676038835632765
Ni 8.028529207863134 6.7335375734591505 10.207086731460622 -0.04325675380610615 -0.6868005326418559 0.6941338330784755
Ni 3.0997317460979588 4.522793542713908 4.7477723309037705 0.8825417016343446 0.10957064654199193 -0.2589915923117023
Ni 8.788813718114415 3.379685654511004 3.159263844179887 0.878415338170797 -0.5168626978657164 -0.9267873017162813
Ni 6.974056633640031 7.357987836648224 7.8369341226384615 0.8492970806486019 0.9592827032408254 0.28910203854383765
Ni 6.831510270058608 2.403189069143569 9.90329689636825 -0.610371148738523 -0.8926427946240885 0.08677164636960538
Ni 1.3771382587667358 5.014090681666755 0.5893871346759412 -2.002749751740054 1.2956084506583172 0.8452887308201572
Ni 7.6456406637317125 2.7617985565730345 12.015930450591034 -0.7521520614644723 1.8264792898776674 -0.6334272592270381
Ni 2.351475050746573 6.868105734742423 8.869120794316007 -1.0221783143237815 -1.1830447829262722 0.1569535067013297
Ni 0.7189644975320973 2.9255239285888703 6.885872828191688 2.006498420149209 0.6659959371916788 0.7073583021885494
Ni 7.783057518017591 5.526026880707117 2.620123557910057 -0.1939174855201886 -0.3168306148073576 -0.7047627735472314
Ni 0.12027907994437942 4.978491328588427 11.958213696089198 -0.9520792435138505 0.015669588216456885 0.21717774159970987
Ni 6.263698726568424 -0.008317997378526714 8.979962880480183 -0.014221800026336799 1.0664203148612925 0.7096100743372037
Ni 1.3623269170440317 6.855658994400969 3.9382100864345198 -2.705411162673567 -0.018769053077387028 0.9034650820505731
Ni 2.0864721258700856 5.923373007299481 12.222586370912495 1.1071296196551965 1.3597991264036131 -0.5192003448599574
Ni 1.5351476258688441 0.1358277304442287 10.49823339672672 -1.958369425852466 1.2261657824854624 -0.32845637197174404
P 6.4901232730043805 9.365869549681687 6.734154790276383 1.814289432679695 -2.1026378808869595 0.9986236669322931
P 6.5495455195260766 0.6204890904027682 11.589036116187316 0.017426937227195793 1.3492200653361859 -1.2029942294650056
P 8.068680884073078 3.8725188534162363 7.442849097872284 -0.33980779242882125 1.4640748430952528 -0.5887237456720764
P 4.478126781189374 1.5092207957634198 9.544160493827844 0.2127888685033948 -0.12771517866150262 -0.7114530410832135
P 4.561334683337412 4.0475831407169585 6.307136640131049 0.8680692190497823 1.1889961154137008 -1.1503624622019026
P 2.5571395141896756 1.6518043971618699 3.049443936093118 -0.9841280444192794 1.3163271712629072 0.6535273724110229
P 2.4488612517278465 4.311208266363427 9.618636127882924 -1.4710278773743182 -0.4456793928526711 0.026596776651921936
P 2.4624996022141827 7.589877032732971 0.7158607254828518 0.5562180597348872 -0.3374614036838317 -1.3557270132167685
Ni 5.498145065207745 5.276933813155646 4.379357195305528 -0.42934671713091865 -1.0172731637126802 -0.7368730238182148
Ni 4.105841705456545 5.118105214078931 8.411323726506561 -1.6319758499470216 -1.525055239433367 -3.6606310086989278
Ni 5.616579942263836 7.635772642219414 5.7480759836423365 -0.4625535429001905 0.3579826635656351 0.1748023619572925
Ni 4.369913684907343 3.67864015906235 10.34391243540119 1.4934985476730087 -3.3429010220057522 0.3060836607034987
Ni 9.235034479555425 7.889017726369455 8.621561924826072 -0.6628496782532133 0.48456938504964936 1.0553041503434728
Ni 0.6333231040413098 1.7679491484707666 4.761193771105921 1.1954652680778122 0.8459716158197946 1.9850590193285107
Ni 2.280741817302761 8.833675978178343 2.5141996564297937 0.8120325398701885 -1.6574300283540682 0.8655359111049674
Ni 7.157424954137895 6.956471074548776 4.294416803720283 -0.06799282310020549 -0.393132986214523 0.1511520695282042
Ni 8.117946516000513 1.8080077301381425 6.87818787370263 -1.4200624420700445 -1.7957384091503847 -0.11946399439630392
Ni 5.207755258572734 7.6427454234578205 2.557079002737006 -0.24067788160417908 -0.28197545480138536 -0.26493418304838245
Ni 1.8916066293649696 2.0843774986622865 9.160293526054025 1.0010420465657985 0.41468757245684706 -0.11342215907759821
Ni 8.537802902986027 0.5185375330539181 0.7678139968542498 1.0444877764542593 0.9747753995597858 -0.6698140253861884
Ni 1.7583790294946888 8.511931929606144 5.439448956118086 0.20041157788496453 2.0532737286315346 -0.8958381616329346
Ni 0.8602671180248 4.410726332369527 5.012145005727066 -0.7743126567219116 -0.17909584712632381 -1.0431086367185454
Ni 4.404963780184516 0.12397214044808569 12.364847865193656 1.977840390092884 2.6318187339983963 0.7394035035495524
Ni 0.4707632756984359 0.8764497423595432 2.7989283839311945 -0.8638109579940607 -0.45642866094937523 -1.347344702690344
Ni 5.7241320672936284 3.8107878622388323 0.2667540332222074 0.65687674849923 -0.48369418153354765 1.1519999978053255
Ni 3.3419265080450784 2.7632322125285946 7.383387751642709 -0.3635251906504191 -0.549017685331706 -0.010330692502046724
Ni 4.623735955221312 7.26430679846119 12.839513664116579 0.13685545039987398 -2.129341615430391 1.0864808330565934
Ni 0.12266602401584473 8.268647961510968 12.445714439596088 0.589958646520442 -0.003136745856768791 1.2874991912876215
Ni 7.763898661156922 0.927676876298904 4.2500805278218685 -0.12127019436710729 0.30367170882789635 0.17498645294364057
Ni 8.624306351941001 6.146194794938022 6.069429035135748 0.4933874975619116 -3.089070919290332 1.3300622614608126
Ni 3.9042454735237007 5.767960977935043 10.561604713744188 -0.3250229208101628 3.61845026156582 1.9239960905789188
Ni 3.391955515221578 8.617240476160026 9.837186737908407 3.9972609176204 0.6681880597469911 -1.668777077935771
P 7.866386443070969 4.392852180196308 10.1637177078595 1.383868765758307 0.21971464908895064 1.6887779465377304
P 1.3253870025527121 4.997882921805519 2.8435783884380665 -0.33040398261641807 -1.8138055510647406 0.02373642438499138
P 3.59448269258011 7.749403840878952 4.4147833925346776 1.1712089666336087 0.2651761238558594 -0.07251410800932673
P 5.022934663210796 6.8903925682334055 8.859078686009106 0.24938852200429956 2.8334631558491976 0.5921044892188513
P 1.1404267653769218 7.284126626574099 7.030996048711416 -0.2919073692031166 -1.888296323184464 -0.6334622262300317
P 5.738664125388626 8.9100135030848 0.6898445246165611 -1.230001868402101 -0.4839155535157343 0.5531628178483312
P 3.319602436737068 2.297433668785356 13.428590793965764 0.7230762271444385 0.2624736373230318 0.8682939334660787
P 0.9395752897846288 7.403939302860207 10.723214046807433 -0.22752463205167264 -1.6445986809173547 -1.2912080075977763
