# total energy = -340873.13564608496 ev
CRYSTAL
PRIMVEC
9.20837266212535 0.00000000000000 0.00000000000000

0.00000000000000 9.20837266212535 0.00000000000000

0.00000000000000 0.00000000000000 13.47738418759223

PRIMCOORD
 96 1
Ni 0.5503945483990316 3.710762290307465 0.531777061052251 0.4696682995681008 -0.18928461473386754 -1.1209336154178244
Ni 0.016064926513598553 6.911049247468164 12.38866707388939 -0.24236323972640192 -0.4359966183472685 0.882370723274119
Ni 6.168808389031495 2.672739301558233 10.47083566786063 -0.07870172487727736 0.2066030514076571 0.35085813670571186
Ni 6.12043680874035 1.1373537019798796 12.312695238961535 -0.04677402293074525 0.41513622995849153 0.312868544835816
Ni 2.3253350354923543 6.420040413604756 11.606575142156323 -0.990797486019655 -0.31265565749406155 0.002599642406376168
Ni 3.90867783860322 1.7738456116132888 10.34585963745678 0.6136295077748206 -0.8542012028184385 -0.2703442983203602
Ni 5.928386993672363 6.895735724143554 1.0129633240615632 0.3458619690427011 0.9773213059100909 0.7632306878761372
Ni 0.3780856421123419 4.883908935860862 2.5033697077461166 0.5752434517974545 -0.5845359328429739 0.7091254213913012
Ni 4.81978183036923 0.43108903372776847 8.401625986042378 0.2567508759066417 0.942764650981144 -0.2865005963652485
Ni 4.3055218561602775 7.572615555185105 12.643591655800696 -1.4532808378035422 0.4334859361102728 0.795123937040308
Ni 5.829166780910683 8.21327885752209 11.151578411129886 -0.09311610053039449 -0.1996739283879916 0.13326799015893176
Ni 8.279836973331038 6.1534488238448155 3.859369766837563 0.10077798795102645 -1.641950187550914 1.4751676105743046
Ni 1.974311879067743 2.3479139646516707 11.752170560069777 -1.7343538353953163 0.9875679233387638 -0.003437564926639241
Ni 7.190228682318147 8.766306079594306 7.615261369509177 -0.10056664327116872 1.0291812280041759 -1.6584540987432081
Ni 5.05895088708005 0.03879579381774737 1.0938312506019867 1.3296508849550068 1.2652653195900856 -0.932279178068788
Ni 7.502171506217416 6.053298565469315 7.991253027734558 0.0549879262001053 0.9148761521009922 1.4736874264843522
Ni 0.9372926029116451 6.035701365786014 7.78853991741107 -0.36261116347658195 -0.015234814671883439 0.09241547491894406
Ni 8.713818356834068 2.881032685564653 10.369620000796822 0.4879562992440113 -0.3381311760573467 -1.6756699484008628
Ni 3.8335006862146965 4.117450057975171 10.612388610284304 0.7767464629743849 0.3608283605445463 0.2851960186212121
Ni 0.7398715442145262 0.749007170486532 0.6356419768595898 -0.10302950298936449 1.335599389228958 0.44254341832685073
Ni 6.345443388678319 4.5661556289683105 4.152382018727972 -0.36725791821997394 -0.3520277315337808 -0.837790365560583
Ni 8.616126733893125 3.9188070482587047 7.6406930524423755 1.2709047772640498 -0.40563214712279816 -0.04104791908024544
Ni 1.8833884098511475 3.4113981031258254 9.52236502167554 0.4061893051778488 -1.6402877122468267 -1.82969548282212
Ni 5.261866581596648 4.697126309813727 1.859501891809032 0.6095622796839824 0.08160167213289173 -0.23763652367469398
P 5.129450186282223 5.652098987760399 5.990912763201185 -0.4982954763864902 1.9451662968986305 -0.45639420816701404
P 4.099751566195316 2.9585027226842815 8.337635164462474 0.20143821937726597 -0.380466446490448 0.7041477656710519
P 5.18069477876656 3.2721122619904985 12.236467411280564 -1.4431800019241148 -0.041110653997380814 0.48320052972658073
P 6.034937070875646 7.700713223837329 8.908685933860763 -1.2195863294957319 -1.1186628171057766 1.622916567958231
P 0.289148418825463 0.9565933514915502 10.817554831018905 -0.01448225277657506 -0.6806602240720729 1.0642323060710381
P 8.880618814742657 1.4236788338231867 3.9865429148994127 1.123400074680446 -0.15286185313045933 -0.07696571602277713
P 7.23918039007138 4.129034190472081 9.354207249673115 0.27917038125242244 2.3778868155977886 -0.49560533114883687
P 0.8018236321419527 2.1409650030177065 7.66605751425695 0.08987393944401297 -0.183397045604839 -0.31276287249588713
Ni 1.118826456682757 8.911476070702228 3.158842835436663 0.31860390465769645 0.08966002366099397 -1.3090424646760357
Ni 4.351324300547897 2.6651423943166197 0.87155403224755 2.60896394088741 -0.7781510566313953 2.0221273849357173
Ni 8.365253835844015 8.531685958856041 4.506406183722332 -1.7988306749224634 1.1820711061590934 -0.2721877792870022
Ni 6.845209384707514 2.3101688461263694 8.277742068606836 -0.5402142281074632 -1.612883866312577 -1.331752504679042
Ni 8.106636696594666 0.3342372143509905 2.1640909094984195 -0.3077276240648249 0.4907099507297485 0.6737938359695428
Ni 5.597861674241486 5.4989729628867146 12.531379350399996 -3.3270550561124317 -1.9360100843206594 -0.657654507205519
Ni 0.11775666643121535 0.2963456827043055 8.832726990654285 -2.2081724096863646 -0.13768411694875643 -1.3841546724298421
Ni 2.744684315229416 2.6745257258065642 4.714631425772886 -1.0775876443320218 1.6654647257330863 -1.5478411269796313
Ni 6.424036847232465 4.171300619852693 6.748260877420388 1.2121854090459705 -0.2029770246192956 0.057755975863545694
Ni 4.2119279589436 6.498016911207158 10.299632687100871 1.297386368494346 1.395455699264958 -0.19501508945974155
Ni 1.5387282387646635 0.8379471562851349 5.240613658064959 -0.9882196979901497 -0.5127088235983428 -1.0704551470522983
Ni 5.971740010997836 1.0325071736732 3.284654065218471 -0.3439094733020206 0.3654596886689706 -0.3475519551506143
Ni 2.867137251591811 4.449025131861252 2.203646394040328 0.07641935660100388 -0.7254706955185442 0.7896423451004465
Ni 6.816525304637665 3.8553153204636446 0.08369489687154491 0.3034313106823161 -2.0531775693733025 3.130346895220983
Ni 0.7193166153118238 7.152483563792846 5.271462626489358 1.3657003223793964 -0.4946725349219222 1.1727824817683157
Ni 1.6915503873486837 9.095781644569978 12.08755513762356 -0.36309504509153595 -1.1987148853633613 -0.26853424169481493
Ni 6.867604146418549 0.49240021893517527 9.945015502923047 1.707526173679511 0.3949744102986359 -0.5897539867088037
Ni 2.8220070183904196 8.462871791805645 0.9351553396743378 -0.7931220761189308 -0.2466983767666461 0.47389287917240963
Ni 2.4404949409028 7.669377132512224 8.86904849480437 0.7966259755071312 -0.9713465763838949 2.5239930951719693
Ni 1.7965810831036446 8.593078177740692 7.058914529181687 0.05345734848819181 0.2413800498775262 -1.9824138683961794
Ni 4.5579601775197816 7.6101120476552255 7.176262343877717 0.14944768524258778 -0.4812218087336551 0.33276271265658175
Ni 4.291285712408115 0.7462529462974814 5.1355028494699955 -1.0945209297522505 -0.18367909562163207 -0.23516749330891112
Ni 9.098737532114896 7.421561414104587 10.131003446430848 -0.017173169345176875 0.7097278308619906 -0.6696579594242983
Ni 7.748440218059488 8.94725980590333 13.380278944834435 -0.06058778888538598 -1.1929890386231776 -0.5336286044701454
P 1.6276811162846463 4.8497182490873945 4.64900980143845 0.15933357689773203 -0.19343411812586683 -0.3123790067939072
P 8.152494391216768 4.452330937557906 5.319967728180508 1.022297356400149 0.49936839773569475 1.062340488364964
P 2.896373834006505 8.352702824243629 4.411713727676655 -0.8994809005918445 0.10033755797949817 0.7531283093348127
P 6.719653226841575 1.658658081085601 1.0233393180977453 0.09751320115682562 -0.05045944220213245 -0.42014653868888935
P 6.979485871249583 6.869648405094474 12.541810594670663 2.7389468325371666 2.5575801870987953 -0.8641611422446278
P 7.507751779900347 5.1731162882697745 1.809608167557839 -1.384362417565274 -2.7769217691190433 0.22695950357682204
P 2.669820247502971 5.541377517853538 9.167410811067358 -0.6579532693928604 -0.5488888730633257 -0.10367305011063437
P 0.6652653109156752 7.862955537400949 0.8401774240838245 0.06258887847581478 0.194582115687381 -0.15157630154981638
Ni 1.908591725148476 6.600625805017217 3.370329682996284 1.220220620645621 -0.5336759127683132 -0.9767160682259243
Ni 8.19383077498356 7.062922933693534 1.9997877621885278 1.185945244402519 3.523498136267951 -2.809759127364038
Ni 7.898812939581365 2.902672360737733 2.693455376978182 -0.12411589134601853 0.27464678235045603 -1.6868951276927209
Ni 4.350781006575466 7.972986379376754 2.88631644965585 -0.36042289757601154 -1.0027590292569053 -0.810413773319843
Ni 2.855212409315581 1.7417360170054028 6.8827519190397055 0.6433249779567243 0.5156856468384796 1.1397625751988694
Ni 3.349665174461854 1.1308617994279555 2.89010385322976 0.1260809854921893 -0.07041043140276261 -0.4709242834623889
Ni 3.238437244072219 4.208253818350384 13.148037346690726 -0.8272575843500592 1.0638373846254647 -1.2868327613482158
Ni 3.7668320699367794 1.1830916877605997 12.75119517080815 -0.17497539720004704 -1.6894652024127421 -0.9493086227472489
Ni 4.371205176589888 5.571221852847562 3.8781981259126255 -2.062280045895203 0.9968051256663155 0.8999899790177791
Ni 2.8045479442933297 6.106136206381288 6.241456922355114 0.9450308213075014 -0.0917629289366097 -0.8795044574699176
Ni 7.176277998110821 2.562680834465186 4.888125449589268 -1.5267434257690673 -0.5038212913007258 0.3379203455981213
Ni 8.466260472854024 2.311900020140216 12.550813620379907 -0.21151360133539704 -2.1018886614257606 0.6491726949867529
Ni 1.8462602522775895 5.963102557673432 0.7562182469239955 -2.2235820593732156 1.0711413744860454 -1.1780385879609325
Ni 2.2442092745243367 0.7944035256506896 8.911893209972586 1.5766827338016718 1.2455549856453516 1.29579819807162
Ni 6.673685031750503 6.09834592331898 10.354647187251535 0.3666935610760717 -0.378656904085535 -0.598744363132872
Ni 1.648132911416311 4.0088188886063065 6.677922724735462 0.5102264234961212 -0.6865089695433662 -0.13494974873672888
Ni 7.329790774625897 6.643426319997847 5.742282103834902 -0.5207676893470774 -0.05002621131945578 1.7879927037666947
Ni 8.479271903075116 1.382047782139145 6.1968202579151175 0.8791887260017117 -1.5353494222705235 2.0396214279554226
Ni 5.48534457171388 7.832788909372433 4.965000625850948 0.14222031425621312 -0.02546729103316904 0.37512317990066363
Ni 0.49991793417402763 5.1008305648192716 9.922898834058918 -1.030107339362871 1.040950195614646 0.8333531557248358
Ni 4.763445007939907 5.226911599912812 8.265652396464393 -0.3133753092689055 -0.3365790010788784 -0.18835850337517238
Ni 1.3217513595717696 2.5433156272783823 2.5654470295383747 -0.5171953986147867 -0.7807602121194682 0.4009884777031998
Ni 7.950039115320874 4.536495461422569 11.831431625623942 0.9041137713781656 1.778673483248298 -1.2648590852906023
Ni 4.303624931442978 3.593825169021103 6.0614396875206005 -0.11745364883449448 0.1981495213236652 0.6327418031242393
P 0.9598807404433757 4.685652677785787 12.04328220389392 0.3028278727703623 0.07162373498457342 0.524949845749225
P 3.8003505455240196 6.406559356390547 1.028007962911682 1.5037755041189844 -0.3169265169552735 0.7684500272935475
P 6.544279774215481 8.05067741743432 3.0691910424504516 0.218157846124792 0.4876395393345408 -0.006288661222189169
P 9.02283291830566 7.760991229659876 7.12246058637399 -0.8333282160241712 0.0505651145420613 0.1749535428231761
P 4.475812287213802 3.178610448497962 3.496396905531204 0.5593190672577142 0.06682245694118814 -0.694114549804766
P 5.896618108843796 1.131994429234887 6.3492492089970565 1.8721518522141176 0.4188938972287108 1.0791753005341156
P 2.338328048968617 2.23549815422062 0.5559785054309277 -1.1115855985440213 0.18191968972836411 0.5690591773636136
P 3.322463642350671 8.748193211055817 10.682632837570607 0.6469121810873504 -0.21754592357240599 0.09644310802109843
