# total energy = -340866.2900474971 ev
CRYSTAL
PRIMVEC
9.32072490203275 0.00000000000000 0.00000000000000
0.00000000000000 9.32072490203275 0.00000000000000
0.00000000000000 0.00000000000000 13.64182304743751
PRIMCOORD
 96 1
Ni 4.364186989322815 4.910567869658089 11.98525514851804 1.281520347996367 1.4450671916444984 -0.3897558422121739
Ni 8.153499642984785 4.490706506035046 0.8528174133392793 0.49750640482629155 0.08281754681786382 -0.6735578086993368
Ni 1.7437304925623238 8.07653841935926 5.205664809024839 0.5623689098276314 0.3205900818497898 -0.2945126680364476
Ni 4.378876451407571 4.438836673229421 6.146227524436385 0.062352336984976484 1.4439683021533647 0.44217780745731594
Ni 7.093966265773726 5.144760397793608 2.8847819956915726 0.9904534724166748 1.1394710121003797 0.7121986609999863
Ni 4.723137417207355 0.17134754202735436 10.916731932359808 -1.1118283106824465 -0.0033354921311361907 -0.2985400440282858
Ni 7.9528990065710055 0.38070499927148194 3.3714123705101415 -0.31315008063197686 -1.9097472939693887 0.0694030731841708
Ni 4.540516458687924 7.156060933545708 10.32640942762582 0.23028856795005498 -0.15470661964868193 -1.0867703392725543
Ni 6.563253523613881 2.225966145697541 2.908108973330861 1.5931077121269146 -0.042449941634094636 -0.3500415543416875
Ni 0.4674352744268515 7.303207213959441 3.4156802202724124 -0.5326073622944827 -0.5446002729903008 -2.370211815551034
Ni 3.693747263588999 0.34499077854168547 5.207615636698913 0.08014771329518454 1.4864382983921174 1.290373941732255
Ni 0.6576470311200291 5.141982821841034 12.645287353081907 -0.6124357445770355 -0.7950802282865662 -0.5580725964451227
Ni 3.1684685039135525 8.834732767890014 3.1467316419034894 0.23368756632927495 1.155303865367578 -1.4477120854665133
Ni 1.7865965053337658 4.993214735334187 6.567637060427623 0.20819790669860272 0.35184466898869726 0.0295525168461362
Ni 9.392028216817451 2.0046921419588952 2.5599286428060513 0.13432239956537514 0.5127566461171427 -0.1600426871496147
Ni 1.436687180382102 3.005793896194488 5.539084839957377 0.19466541942980667 0.8919141439881801 -0.5902710355545383
Ni 4.46817831450024 0.9192080031130786 1.007244111795145 -1.1911522425247552 0.8234657214077948 0.929261988509019
Ni 8.918171895163322 0.14770179560424693 8.30331351479995 0.27988797614473737 0.5349709774306528 -0.05723609880433369
Ni 2.7196383280066128 8.311513888367315 0.8281650286514803 -0.262689867098896 -0.5613093582148656 -1.0059040026437904
Ni 5.204012244540304 2.4034513849221106 4.584812270624215 -2.4723247202634 0.30296876922360083 0.9837441787172994
Ni 0.7484933382910257 1.188010246104635 10.603856642751646 0.679476745286933 -0.6912490553315127 -0.14478807498338936
Ni 5.801899449418955 3.659558845488184 8.431547112779558 -1.7817953167067315 -0.38544255954880074 -1.0073363642149427
Ni 6.074735702049015 1.9226231612125273 9.991884890819522 -0.11615421329678059 -1.7338848661786979 -0.7674346986551557
Ni 6.488361500865775 4.769834247819428 5.273846842080802 0.9794704910426099 -0.8134677296548183 -0.6351889791131512
P 6.721743125954736 7.143999915818758 10.570625463074755 0.27394024320173466 0.7399696604656676 0.2005373048295514
P 0.8292229309018737 8.76121089166885 12.946485638819647 0.6094810328240858 -0.2050470197744469 -0.10093688212639391
P 3.400647755519688 2.682858748446684 2.0857116091070758 0.08021507619801024 0.43172935843048227 -1.6141449924131879
P 1.4173093937867927 5.76664846870541 1.5562319988214763 -1.893953007249609 0.7631131884616663 1.5546188120230968
P 3.523243247144557 2.588318638087751 5.992921177086222 -0.6350964193993449 -2.1879990200622834 -0.34165847248431486
P 7.628109034613261 7.42625942109329 2.412651872246897 0.6239578862840222 0.6813495368296137 0.2554840933790761
P 3.757109549916519 8.825654382058445 8.673457200944377 1.9276992504621189 -0.11733460675812696 1.1236790393734453
P 9.119480906652257 2.4427102772450753 0.31857584481820944 -0.6951131662726092 -0.44834254150713104 1.2419078758110678
Ni 8.011032366356932 8.914937603701768 12.54470648106236 0.5187141492521583 -0.6016648792137768 3.419843083879446
Ni 6.698898029781045 2.4524597552531047 0.7112449262800421 0.1595120114571253 0.14856271153447317 -2.0011929487758957
Ni 6.100945579829684 8.877617422110802 9.053696163982206 -0.46055142486849715 -0.8839506661667292 -1.0891110715905887
Ni 8.468596061282538 2.6346426397129012 9.347377285271117 -0.1826174871263371 0.3005434476115598 -0.6335864105127217
Ni 8.865891950472083 2.720617004097285 11.84575372648116 0.7124357167114569 0.8278425103192517 0.6507246128549051
Ni 3.9541962731285514 3.5913124994319765 0.12351824336750346 -0.6007665357692235 -0.7942063103220451 1.9600391002454052
Ni 5.81835052846692 8.032656447598452 12.410116148855716 -0.9413199481148176 -0.4973297700391113 -0.8239007520626842
Ni 9.169589122494672 6.995791072792295 0.37618258366010915 0.27674505964038143 -0.6120220540783846 0.6554713835112712
Ni 6.376661936383722 3.751815378302216 11.159052132410242 0.7982491129328511 1.1813774225261784 1.0134453053261578
Ni 8.610243114139159 3.5028122186611914 6.573066382549687 -0.29673153006463737 0.48295858891910376 -0.14604765842210332
Ni 7.681227844525078 7.687873521216976 7.44104115835231 -2.4741823422974294 1.084428835623571 -1.0693354316255583
Ni 5.788440322991044 9.195071983750841 6.226209594928452 1.1077615968122405 -0.8997768345657084 0.10994654182417193
Ni 2.9698811440291553 1.6492369858267555 9.547188456305086 -0.04663106959497775 -1.920999212734124 0.6080131900293078
Ni 8.601882424107417 7.188347923813217 9.44383839698517 0.24636336202473053 -0.1410221801830539 0.5885787354537799
Ni 1.9000110831556631 1.4012404644504226 0.345053227396995 0.5251627330909794 -0.9941221795175137 -1.1815401733562876
Ni 4.82524595600082 1.3651412977916286 7.844170889114727 -0.15864580680208806 -0.014837579233464772 -0.46372262350762716
Ni 0.5652068800299379 1.039493819163962 6.003929884997582 -0.830384560014815 -1.2930841415745666 0.12064515918859867
Ni 7.19916928515865 7.353865352557568 4.690427266039689 0.45030712143266965 -0.1018557943962375 -0.08488805619364735
Ni 2.4284682099446266 1.918251741340858 3.7434938353141005 -0.8241833163001095 -2.002383626649887 -0.18246167827476317
Ni 6.685196564511635 6.935924058217177 0.5689295774643615 0.5841302127641231 -2.1843675939572833 0.5385977755499627
Ni 8.970852631015505 5.558656497625886 4.750655924732122 -0.031046327782843306 -0.017690732411543727 1.636761444261123
Ni 2.4531774510529307 3.426820350401664 11.92138395062337 -0.765343877564398 -0.925613078902522 0.6441086502002842
Ni 3.261125827888526 3.245867801598713 8.064949962373232 0.0055358422165646595 1.8912515491580462 -1.0550796930374926
Ni 1.5076272158688262 3.72831783140141 9.71271893406398 -1.008996525526185 -0.688216439152776 -0.2192798755443772
P 5.2622667737469815 0.3684566349786027 3.38826051242918 0.16422561488271073 -0.14822512568939633 -0.1721297002211358
P 3.3936106083915214 7.355468517201335 12.137006798992735 -0.07374746619579557 -0.5024069274517025 0.6397699136156143
P 7.060132035210487 2.157822327612737 7.5992045353296085 -0.20127366877494368 -0.8364623907777787 0.33939255926827355
P 8.151011009497076 9.136155683092376 5.533137285543492 -0.5535423126749369 -0.6361616274390657 1.2190206868002489
P 5.829656567495352 4.7102841378831934 0.170104157355967 1.377306539159757 0.4023635036738554 -0.7575619196261341
P 1.9673160360198905 6.2148261938852345 8.277980717211017 -0.6836959255746032 0.5221823103064168 1.44830138231108
P 8.405187171331653 3.6501076306696927 3.9910653316453413 -1.5985648785867437 -1.9800016594102607 0.36447289927566906
P 3.9911156635585763 3.5090850663661666 10.337828247422793 0.769528605069707 0.5688164652251881 -0.9563092224347981
Ni 4.76352411721576 7.666538382440322 4.5701330613366 1.0812560943225442 -0.4204756398935339 -0.538630428560111
Ni 2.6424534069889325 5.7284241768211555 13.650280509868507 2.3835285872645984 0.5987500195598269 -1.787223172590522
Ni 3.481216099593692 7.008085108636074 6.340432279579505 -1.4592080019212548 -0.07986077818238504 1.0790616577743866
Ni 7.910825255396775 9.251275953529445 10.513124980494128 -0.15463231476732078 0.961895458273324 -2.6109611738230973
Ni 0.9627656136552623 4.217124595431141 3.1848878924976294 0.5616577426932199 0.5087536956053367 0.20804441183987396
Ni 2.618806728493358 5.650074165219341 10.574636170901575 -0.5697402625910382 0.8374859469462868 -0.5181423359090882
Ni 5.596107169362275 6.485695773609278 6.829505616334885 1.8859797592361456 0.29094603373111183 0.03731776261385186
Ni 1.4586561284365245 3.590604124356824 0.9900324616138568 0.9182512392208122 0.9341961925858426 -0.3199768737458231
Ni 4.979261610498604 1.9785847921496302 12.382859553694264 0.2023782146930321 -0.0611032950692238 -0.12060684975149552
Ni 2.2638828536675835 8.624904614049896 10.326546442278513 1.1621733387939017 -0.08113064603374415 0.11472288016689274
Ni 2.4121849039407754 0.07143776218426603 7.205310710645734 -0.63608629411644 0.039055314130248875 0.4879326450949275
Ni 0.7663406618950172 7.19436911195202 11.26410788434533 -0.5401566353966504 0.019414142860553662 1.3840168613003971
Ni 3.3036842567457567 4.022796806722336 3.962295050796981 0.5401288674825085 1.2086529704126798 -0.1516932867436549
Ni 7.55532349564127 5.867936783727644 12.465269672963665 0.004616415726088824 -0.6955312276466344 -1.9482631906563996
Ni 9.382614284897652 9.17080081670217 1.2990191448884132 -0.2749234330506104 0.4874356508538508 1.0356066719145454
Ni 9.324266548444244 5.0794500800094164 8.407209768585709 -0.6548108671091367 0.31713426209070544 0.06544511697768729
Ni 7.174916759559326 1.731352570196489 5.39640505080698 1.6465879434332416 0.8911135024637555 0.45968162066903406
Ni 0.503757206405332 7.350416684428533 6.974818510205424 1.2130590699001753 -0.6064026510090783 0.6996089972604338
Ni 3.360158527539878 6.619811680930059 2.867988846048105 -1.875065940537119 -2.2246511240676785 -0.36314106783812294
Ni 5.1534752753629265 4.187764312710974 2.1845196792938073 -1.000133161598284 -1.159225311909171 -0.5787414376483839
Ni 6.808929184546619 5.325256231087579 9.296260567019074 1.421720546498758 1.9858897427599218 0.7289576256258801
Ni 5.162684151339918 7.7659345903539245 1.9718981042691708 -1.040741936258582 0.5655208251930518 1.7677272686494394
Ni 4.010344318559116 5.687161328693482 8.324349458314597 0.35684880707150796 -0.7657549969598877 0.8455252723109953
Ni 6.439101470968608 9.183318549938102 0.8423120245602637 1.9993870059154084 1.4227042505682657 -0.25305645777419
P 4.999450300140469 5.524235061408244 3.8472260443456143 0.12677184091162683 0.6728340431594347 0.8982555128251757
P 8.867998434248197 4.589748526411071 10.860254865348281 -0.4024882021771778 1.129964358161525 -1.9567468026473782
P 7.804233448035563 5.743421222820123 6.667113426573414 0.592755749649605 -0.5053313001873491 0.8430019916685094
P 7.145267534374295 1.5866296781977545 11.964056092321613 -1.6902565879657856 -0.946341569699125 0.15821514702257267
P 1.17001192676094 0.014756571302402014 3.556955376214579 -1.3796071622684756 1.8687394840984588 -0.7659540003445712
P 1.0349173433494854 1.8466778965763653 8.213564256922973 0.03857811738351421 0.47103818333243386 0.28858601813936746
P 1.9238068932460068 5.754969600690055 4.552944712966994 0.008119029562708598 1.1218512421360873 -0.06738732830572265
P 2.8866657141479997 1.2085904061827704 11.732813573545121 -0.3341469945986181 -0.035236454604790926 0.819011542291183
