# total energy = -340869.52516974043 ev
CRYSTAL
PRIMVEC
9.22940404147398 0.00000000000000 0.00000000000000
0.00000000000000 9.22940404147398 0.00000000000000
0.00000000000000 0.00000000000000 13.50816573715480
PRIMCOORD
 96 1
Ni 7.840461790708618 0.48347679262867904 4.2955833738550515 1.4550566987570426 -1.8606225114182797 3.7797648734493228
Ni 1.5896910094598573 5.727334360918608 1.74575469401624 1.3993982288524738 -0.9020170367501368 -0.734514036667735
Ni 0.8000951897439249 2.0785079352620563 13.04553832619209 -1.627581320423752 -0.3484888651425869 -0.0015876562020940399
Ni 7.224122189381826 9.060302892352235 11.673743393608007 -1.4945282744891035 -1.093632099389394 -1.8062765896775475
Ni 6.6540126728565605 8.447405858729768 0.23641210724686884 0.6043254567650753 0.32617940301210924 0.14150914712180146
Ni 0.08801159685912377 4.31691529539663 8.369902861302672 -0.22889374448505742 2.0941439844833356 0.9148427277598954
Ni 7.584253534751269 7.694637206986497 2.5870970133242497 0.5394105012592452 0.23872667141507917 -0.5354656576788842
Ni 0.04430483112023257 0.7663404903738669 10.95958041599456 -0.7195918681402639 1.0573705459541984 -0.09850076188107551
Ni 4.6581263624983285 6.900686954447774 4.543904181125759 -0.07429613961041398 0.2804541330608525 -0.033803578813006295
Ni 7.678088885555245 4.326366205126468 12.054052062074494 0.1439799772597972 0.4575452910523217 -0.6646311956336682
Ni 6.770533898773762 3.594926706103564 2.3903104293528594 0.18021967631812186 1.075967078009463 1.9350829445206998
Ni 6.5693882672775645 4.548508730797845 9.81827508208934 -0.04255021465738478 1.3047145267246434 1.218077091940057
Ni 9.22422633738316 3.9535259704035215 6.060438319517679 -0.7391764751404108 -0.7960125102928485 -1.0966870841656338
Ni 5.067921130969591 5.742442895320703 7.676123022496206 -0.1616370282199281 0.009027143199274777 -0.14870129399486648
Ni 1.2517840690019881 3.696311709406571 11.215329970571467 -1.1900955191254665 0.24860407842979118 0.36165882686564166
Ni 3.2561891192827206 7.905879806494847 8.47744110827451 -0.7723545045542763 -0.6062681823137429 -0.7203452013665207
Ni 4.236970197662388 4.9817923325332085 10.623888532504623 0.5507421242219805 0.1751602595173435 0.5938137586004741
Ni 1.3393341956594595 0.4825556981061811 7.768856382458637 -0.42070678206773354 -0.5899043962437389 -0.5065093796558502
Ni 4.234727452482358 3.2835819904528 6.890110057425902 -0.7345657158412768 -0.05401630631545536 0.4611474065812832
Ni 4.263541651873526 4.150121505711428 0.9105434678073829 1.6177406801842462 -2.130656734697389 0.3245598651308152
Ni 3.2671444218699457 7.8933462758179695 10.828658550964597 -0.8769294976538897 1.4732297701216435 1.3076998346052122
Ni 6.487265030191525 7.5666253730481525 6.239138040405511 -0.7641084624954002 -0.5960148800168509 -0.34151449070728285
Ni 2.369658714888516 3.9622016101945845 5.370157347780142 0.17180959787755573 -1.0686782576575335 2.3857448781896267
Ni 2.0819320441583162 7.983692911897455 5.009084603199328 0.5341731641197058 1.296867776986715 0.39700301069289046
P 2.957202575632205 5.716019111574093 8.41701896889137 0.4664989007011837 -1.0531379959300895 1.8239256702178783
P 4.221344816634441 2.536295604705156 4.657021602835574 -0.2270178676185832 -0.553306285404731 0.11436472549652563
P 5.3113097447250395 1.5841441376359966 7.593588153990291 2.004509671853954 0.30785360811972784 0.3835468851879846
P 8.244848128416516 2.4524003220447708 4.397867321110876 0.2393632765578136 3.3192288751997934 -0.0903148836361735
P 1.5318041873645947 3.5083548962735955 1.1193707322802848 -0.9107176498479284 0.6404422570922905 -0.030112760224980398
P 1.6859167759083915 0.37157211460880657 3.1798896361415316 0.6096995765927952 -0.5789584387551965 -0.1893640618215513
P 4.0747634217816096 7.618060841724316 6.448986999904871 -0.0027845047236726237 0.6992125331529635 0.391193603099965
P 6.212321084047092 2.3774483318924067 0.8350570951615054 -0.7934290658363884 -0.9053155049957505 -0.4005773583077101
Ni 5.522404673768861 0.777034600826957 5.523165176661183 0.9275398636115897 0.4601883851021236 0.9378846971810235
Ni 6.9096579351678935 1.0891158229195577 9.555824980184441 0.18354514114692905 -1.6751421009218506 0.8581172500433931
Ni 2.6277774574807053 0.8165632153600885 12.283366757619952 -0.38403950855368696 -0.822568663514822 -1.0969516506809303
Ni 4.831740681763952 2.8944241693994286 9.360091471213222 1.2745747699164693 0.5822023996137908 -0.7132450999866297
Ni 4.612413124322654 1.8702372038523474 2.523433507244704 0.744177527899428 0.7158732816380962 -1.0973789680263357
Ni 6.838277724376318 6.128315048538311 0.5969052452544075 2.643854067896376 -0.8535098331783687 0.0989321929915393
Ni 0.642085946817376 2.3014626484883416 9.133505910440338 -0.7014205965478759 -1.5574434259560854 0.9298826528121534
Ni 8.795455914219955 6.276862306450181 6.99832389677296 -0.48754877939294744 0.24562982629281568 -1.1692251034343606
Ni 2.143067616473211 6.02179849659293 10.468085117141971 2.290762928095087 -1.1187427784140926 -0.9617044253084406
Ni 3.1571668434121736 0.9688566883689722 6.12565605723639 -0.4367998309748542 0.5692622945133551 1.508911539793969
Ni 5.093514268353227 7.130886749839998 12.273290094296671 0.14616078696119988 2.0813303776584346 -2.4796796179665748
Ni 0.589322366900857 7.565970085361807 11.488883968468523 1.3399599801904987 1.4444359858184026 0.4443532178420799
Ni 4.7816342472685465 1.093841277784477 13.085562559721797 0.5002664840699319 -0.6388666850750546 2.7107935100314022
Ni 7.368202415741703 5.154982099213312 4.829641915286837 0.42597651510710505 -0.3223975673721738 0.5201837918191493
Ni 2.507758287434979 6.148056743764996 12.792814170257216 0.7301927835845617 -0.7050980453994631 0.1717247514732333
Ni 1.1363149951445535 1.7622808648778117 4.875542510364383 -0.34432419224193606 -0.5243397229690518 0.8770359413247669
Ni 7.549430993334589 0.790401546688017 7.167419499824004 0.18466485657366905 -0.8520003385123778 0.3175016727324532
Ni 7.2117640173815785 2.9052687191382573 8.404105186768332 0.6650232888657643 0.10243120728373327 -1.477451521512475
Ni 0.4076323191063195 2.144470485886234 2.6199223117081796 -0.8127647900505227 -0.5789602385274094 -0.6790604836851208
Ni 3.812639117839079 0.35557201977711855 4.08993471613113 -0.7822612221450269 -1.3213343946695113 -2.4772180437999594
Ni 6.158753623039296 5.888212102618627 2.905511452464326 -0.6625547727206137 -0.2232231764628414 -0.03506290514140414
Ni 7.228303109408796 1.1920605955041492 2.476411539577142 -2.4132130017029083 1.9633691930599029 -2.8872706885879564
Ni 5.3844896893030585 3.060904159347507 11.904354820420107 -2.0929021416564346 2.3616387291700427 -0.3528810806730116
Ni 5.480752373367726 8.687767227962379 8.046692823827025 0.020215555715926474 0.09102142278489485 0.24502921659433927
P 8.062668922208227 2.828840024340606 10.48438978230675 0.6835727697331775 -0.14716583118694654 -0.11850805824093782
P 1.6014954172181226 3.0162246144235323 7.240430546308218 0.4940644690242781 -1.125337400912475 -0.09351410729976153
P 7.139350113338302 4.882779286066695 7.695304492898085 0.46549565624764994 0.8267863011405954 -1.4447643156920988
P 1.7404717831477248 0.16283068359341205 9.934256387870608 1.7544968860020944 -0.9851441443886193 -0.27094722201168175
P 8.359154297365786 8.634144390530382 9.030478996159852 -0.7007425966442448 1.2488699089511974 -0.03881748708782992
P 5.627029197887467 5.1590430369878515 12.568334759484674 0.017765808623853276 -1.3335057399247228 -0.6379868535732626
P 6.033704427795559 8.510304247214975 4.0760887642007555 0.4786712743976595 -0.6904211601135787 0.8941463757528083
P 5.232195293353771 8.163970860874937 10.151575626994315 1.5518013971789597 -0.49132007350992163 0.11667151925283131
Ni 0.8628874400827514 7.5291355338659205 3.123574581553097 -1.0260969326518972 0.11319924443351473 -1.2154805348574744
Ni 0.6973008564450719 7.18176845427418 8.906271522563928 0.4506930440171787 0.2971634753957334 0.18263574195878224
Ni 7.612624722748852 6.748060299953297 11.715955918833949 -0.5490572803203899 -1.1223839747111057 -0.13823921812127807
Ni 2.6500110917963124 5.670813490620235 3.998579306190834 -0.6275198926036676 1.9017833019273052 0.19072751782798122
Ni 3.2548416262938957 7.635273680245946 2.5757642281120727 -0.5758024096247181 0.16264772887262957 -0.8523116991052097
Ni 2.49691373769615 3.668438909226773 9.20241079507025 0.6400596769418913 1.3109008580410133 -1.5331457297509854
Ni 6.769407911481731 2.8254251448483787 6.012929962257577 -0.23750514030315223 1.293373133569895 -0.4758584875392127
Ni 2.0934595697955904 6.391306916459948 6.659039006292957 -0.008947696111591042 -0.5371057643854685 -0.10014061147734367
Ni 8.37522268978732 3.56424816709772 0.6201504222520363 0.519727421008021 -0.7966164624254345 1.0571306620292504
Ni 0.5776868572363963 4.320597827605815 3.4882809425017207 -1.9187384417244053 0.2837708561389113 0.2760318356234407
Ni 7.125570613116965 1.9581934242872727 12.430551755496545 2.7395716106053594 -0.8005895881405696 0.3175170993514209
Ni 8.272979351909239 7.576611588211908 4.81639033697619 1.6731731501209377 -1.5464481032868462 0.9001660995843273
Ni 5.455565329761544 8.635897977296661 2.122227622166594 -1.6407975620037096 0.6076565780208373 -0.737781137454781
Ni 1.4672906531736052 7.842944500393508 0.3983180045561697 0.1282579385388501 1.1544348324990634 0.26969535188245164
Ni 8.781971754927676 0.121685077473691 1.387572598778576 2.108981306606484 -0.2822791020847332 -0.09117646030552039
Ni 2.3386663761455484 1.497563098401995 1.2551315738447737 1.1574422518668197 -1.1665151607023652 0.693081223444245
Ni 3.4678285831644913 1.1018708592932267 8.549169267598131 -0.4917162805070758 0.15676118818486548 1.1072257789134285
Ni 2.6441688790433946 3.2905317316896836 3.214213789740429 0.9993482038031435 -0.6102675332811232 -1.935920867040963
Ni 4.647198748123203 6.322326350716964 0.7734868179166542 -1.5037425939985198 0.6544737954846922 2.4601112089163437
Ni 0.023447300945952595 5.600457743676327 13.46376415524754 0.5702339143980051 1.0612675670157594 -0.6917108254592796
Ni 4.944533228451803 4.537184252049299 5.059766952506395 0.25457289441871644 0.560780482294589 -1.0289840243917052
Ni 4.921727371086147 0.944389538277368 10.835007457998929 -0.9521170387303215 -0.4494172626285486 -0.5410020141160812
Ni 2.981743560956074 3.2208497312401887 12.957788844407506 -0.8006268691364082 -0.5868422123786473 -0.8819603752095779
Ni 7.160383925129613 6.8708206029968375 8.758681353850285 -0.7515997885054282 0.0642814356868893 0.4546833961234944
P 4.129272282000778 5.065115392143546 2.7361601949215673 1.1364872468817073 0.8655217700375804 0.5642429869218928
P 0.6975740468044501 5.840219201646789 5.010772661196972 -1.2959648055564712 1.1924694186742817 0.851628556995256
P 8.969236362758172 9.053002433762096 12.875984021760607 0.3291613684585686 -0.36982696449873076 0.453847016265128
P 9.449525319233837 5.677514037948226 10.601749038110153 -4.1216429181436105 -1.606091783091408 0.509320109631768
P 8.686382817357421 5.806993347127825 2.1137577980854676 -1.218135198871502 0.0942314450817603 -0.3898026362897093
P 3.902145878151556 8.297520337233108 0.4073120587863727 -1.0551971924519634 1.1130896938933732 -0.4054547410046695
P 0.024239183811987915 8.998078250361441 6.303666341642953 -0.3145626447087873 -0.7992814108521072 -1.9494070744528558
P 3.365723686346907 2.7314513529839077 10.896442985944898 -0.05811335920296443 -0.8083576621217626 0.945801638035255
