# total energy = -340860.80080890947 ev
CRYSTAL
PRIMVEC
9.32576277959701 0.00000000000000 0.00000000000000
0.00000000000000 9.32576277959701 0.00000000000000
0.00000000000000 0.00000000000000 13.64919649048832
PRIMCOORD
 96 1
Ni 9.10373520449685 7.72463205083835 7.058136557798025 1.477389815036604 -2.1593381617924816 -0.45748924100340566
Ni 7.898165848170511 0.9522070279772329 10.5452463639457 1.4177908724270485 0.25327834397700894 -2.661160934605939
Ni 3.0993613682588066 1.72034214646703 9.367184278073518 -0.46225272383032007 -1.9860432376186505 -2.5099325033138453
Ni 8.856089568847906 8.407333854766671 11.9580341734492 0.7246661973393778 0.16018178383064025 -0.00038849368767029864
Ni 5.035790768486773 8.154074109810228 2.0230153790924437 0.38105574333501474 1.1190058022674922 0.30928005615360926
Ni 6.069868669571221 7.602445904414984 4.357601701259281 -0.4039467890005753 -0.9397587742752848 -0.09386609132254156
Ni 6.814987805052862 8.27708092337489 10.828535998239488 -1.8941350413534284 2.5657326410026005 0.9558865330750829
Ni 0.914878796540139 4.80854990221459 2.3731035883825133 -0.9664177716237097 -0.4780950901792153 -0.5987837010112398
Ni 5.8931081582516915 7.535430971717816 13.47533301082041 -1.7805401041433915 1.800041664511429 -0.7295759759361693
Ni 8.962132819571467 0.5961820379809268 7.748417409291472 -1.9775711955918978 2.2758420451191967 -0.8605677684664148
Ni 3.220950665852139 5.838002224866281 6.407287829867538 0.6924474465149882 -0.1622731191420302 0.07819984554019435
Ni 0.08274562967373186 8.841448120986154 2.692071726644131 1.3926670807762274 0.7955877640506039 1.3837111571345202
Ni 2.1791790103180446 3.615346507585503 8.079273097610017 0.6333442125949286 0.23376341387253288 0.9303253967765267
Ni 2.008097888646801 2.8015804308870718 10.961683646456933 -0.2938272119336488 0.23841068283655714 0.3988994563846549
Ni 8.27145748830442 6.993902567618292 9.992154013764283 2.8911373706322143 -2.355828036025536 -1.549200726331319
Ni 5.091978490376621 0.3785159325492926 12.598413799870384 -0.5914295746390138 0.5529753844278734 -0.8166687530906193
Ni 8.299639943997551 1.9045259651100968 2.5870281977108767 1.0390108125000879 1.6521381838275093 -0.10412762114954971
Ni 7.751956536338309 8.98353544558594 5.5403723648546475 -0.8379253484765504 -0.09076431246876626 1.2883988202837553
Ni 2.67169120425109 3.4870519864172667 5.89025633993569 1.1687497064598387 1.0128428958554685 -0.011790050656392598
Ni 5.049061329192043 5.470790982188337 2.4773842699048814 -1.5251262018806186 -0.46787984020911033 2.0275462419584436
Ni 3.2858206730663753 6.712637556465132 1.2718606098170921 -0.584761932810851 -0.785232646068525 -0.11720399471753364
Ni 4.495166963395269 2.0202866608476358 5.331676710823153 1.4090912877705217 -0.15544452625597102 0.7463812204189663
Ni 8.006242115221372 3.562795833253671 4.430255922823967 -1.511750551904661 0.8308087920364272 -1.0138829070842086
Ni 3.339835492184383 1.1947421455190173 0.7243721106039075 0.610850916588419 -0.6598563999528442 0.08827214217453185
P 4.361454173941886 2.9578802182520234 3.358603590160037 -0.9103399547935355 2.1168666228918314 -0.35613404039267055
P 5.554181954659542 6.203357640713341 6.7025470809323835 -1.483848169067438 -0.597480408818784 -1.6134983599681243
P 0.8358168432392684 2.957199437555267 3.4852810240294025 -0.7641693976403227 1.401586237642728 1.97768458124131
P 4.970006836501549 7.296756720045309 10.306235452230004 0.24737046313300626 1.0498528974209145 -0.6011974526590549
P 7.381014988472656 5.533217639504625 3.4140191388760286 -0.02153427452735001 -0.5494362609263634 0.09383009587828356
P 4.383248482001068 3.0547375924508535 7.509064242074801 -0.6937980470056117 -0.4099228040783521 0.10676737276524194
P 3.5912860391247885 5.153677738181306 8.868074106839714 -0.11715231554399178 -0.9441856996983868 -2.2437104546919744
P 8.331627310982144 4.618388269508222 9.446882248408892 -0.6863583028981147 1.6771899845898148 0.09492281472183008
Ni 6.479409550366679 6.168469961445305 11.500867553745984 -0.7670937703759692 0.12161189397724217 -0.1748797521624472
Ni 1.342546162818965 9.198913941361212 8.910290903225299 0.6898925413036182 -0.14854625647424097 0.6833408562280296
Ni 2.717545980770987 7.723736777593301 7.912479961752043 0.3685247007475395 -1.2130492997081623 -0.6100824138535106
Ni 0.30799358039938196 3.580887813414053 5.975222433772404 1.1238055376489806 0.6515175410698457 1.402093773406766
Ni 2.919402120240819 8.363941079670662 10.658999222915956 0.2576206801061047 0.756628094957955 -0.3358871172181764
Ni 3.1716733343225205 9.275282614316557 3.3692909145228196 0.14279932668813472 -0.766203654461532 -1.0059986192401256
Ni 8.876363777543098 5.570781812744841 11.936754647505921 -1.4271664001046775 -0.1473535217177204 0.4225404928423626
Ni 3.3735574510812603 5.9488668950449535 10.731381132201937 -0.7276216804232758 -0.3929113571220201 1.6896742330997545
Ni 7.33911433545173 0.11390486890665415 3.3208090705744797 -0.7863647027904392 -2.6386334429273846 0.27278427522042054
Ni 6.282607974426191 4.1612580202805844 12.209042679224863 0.9202196758010925 -2.3039557726362774 -1.8770714010029221
Ni 8.751295970362229 0.47530709383104086 0.7029900012679671 -0.316969454378067 0.5044105881452926 -0.14449574055395115
Ni 2.6686603312860777 4.746682790676459 3.6759742252250196 2.1030713688799523 -0.32478303688521487 1.2186280793475208
Ni 2.8396481953276287 4.484321101062008 12.764537345947165 2.7406717856480736 -0.4177433285640354 -0.9136253104130266
Ni 6.159265433394635 0.9239070676706885 7.513637596234931 0.3294210498778584 0.2036665944871525 -0.762824453576654
Ni 5.3180722878035835 4.632106466836017 4.813580218760215 -0.5670118079162816 0.5449157473481906 -0.47061446553145403
Ni 9.047482202266218 6.661122041822889 1.6459290860063402 0.9528942832159782 0.3055802387045189 -0.41709052547138487
Ni 1.4058774191432721 2.33479801698624 13.16432254610047 -0.19206860523690794 -0.5269949012037117 1.7499604315843216
Ni 1.512153813941064 6.645855767842195 12.678793483478813 0.9923506894393879 1.0586445275706156 -0.1354747680022635
Ni 8.923496183589783 2.940627556758876 11.718026337672088 -0.8349690940617038 0.2923161746057611 0.29989424406333515
Ni 2.934612439643697 3.5078111347868597 1.5116483575881299 0.6769130983248148 0.21799586662563103 0.21300406983799444
Ni 0.8830425069156477 4.7048660695222555 10.386246768201145 1.593125195628411 0.9202978373371957 -1.081411388953486
Ni 1.4888021034660142 1.6122752051791385 2.147550685207768 -0.059070838020227306 -1.4797585723790965 -1.4651205107509477
Ni 6.372526980975883 3.4568085371079262 2.2798664753683533 0.750585745418617 1.8736425778270311 -0.19669479115500962
Ni 1.8523110182451585 7.021525477533267 3.331905795931613 -0.09990432709682148 0.234005611790326 0.5192916190221831
P 0.9437392352011363 8.981008163821267 5.579805420993906 0.23710224843777875 0.07245857218104294 -0.4239934232388053
P 0.5076189973669648 5.76143771088858 5.915357563543775 0.2854402734215342 0.448142509681183 0.07431619421507202
P 3.369230297063519 1.6734708617834828 12.211772330045967 0.4721113617919547 0.1918922275600437 0.48840367119407496
P 7.632987778139341 8.386416168426601 8.42402510532907 -1.760986607491496 0.13428640412111711 0.872445236630291
P 8.46898647375651 2.7637551362837156 0.5697229832845162 0.8981598677875758 -0.5382817869714407 -0.9973982791656242
P 5.6803968306856305 0.19092914299873934 5.255705315370299 -0.37672497717014475 0.22026332250356906 -0.1679981945512655
P 6.29945962811166 0.5787484566861749 0.9578435191158592 -0.20777727422141634 -1.0388115520050885 -0.7132600123849651
P 4.179042250262981 6.395981274843596 12.856397043770764 -1.329437226282304 -0.7462596072394374 -0.5536801238043819
Ni 1.3539422451674121 9.053170917677473 13.21527478465937 -1.4538670493243155 2.1095623759209343 0.3718565933342499
Ni 5.117885459905251 0.27827890185039944 9.812994916209057 0.13276122572584234 1.33504403094612 1.4316462902529021
Ni 5.693564807998238 1.4108946796207391 2.786784175360029 -2.3304193661444446 -1.0568642957417411 0.7214466619608156
Ni 9.028541577675632 1.4684253113781607 5.0270124278038 1.4979727813942783 -0.36898724220625484 -0.8650751694184651
Ni 5.248837823519729 2.709003581891136 0.0710072918243127 -0.47190978730410976 -1.6366490870529746 0.19386837744980803
Ni 7.218961205355665 6.056663389206736 7.924232288245916 0.9245075045431692 0.3466703238766094 1.5338286147506228
Ni 7.531206401092738 5.983791877364866 5.5702922101889545 -0.5167755374685487 -1.1061040066041596 0.16211191097381758
Ni 0.28779211265535093 2.658355363205035 9.034799164628012 2.8183052171618366 -1.0344558461395539 0.5046137052950342
Ni 0.9550886887347371 4.696230413012713 13.634169405713003 -2.9806079039902214 -1.3125705324339523 1.8322434460549542
Ni 5.265204537530796 4.972757936577484 0.29908561161113595 -1.1064655037086364 0.636066496622098 0.8550774347758047
Ni 2.3574782725275027 1.7018305069730306 4.58898320628982 -1.9652756660539958 -0.4936227535011693 -1.3763359477163715
Ni 6.781760111593356 6.507955710815612 1.593339243470037 0.8243671501761416 0.6691028582517766 0.9761807645477445
Ni 5.903096050391779 4.696332996405374 9.53266714423431 0.342344699918062 0.5998242264606122 -0.33637048461249813
Ni 7.61081111379842 4.701135764334548 0.41681684106408123 1.4837525240298381 -0.02935608456461396 -0.28843895103854195
Ni 7.526506216556225 2.8215655409302154 8.902429285042205 -3.760792446111878 -0.9899613632716047 -0.6728947211940411
Ni 3.28665999173361 8.342501150604313 13.047744913526824 2.5333583384369533 -1.1352939979045544 0.36015653128850234
Ni 6.3396816437981185 3.6727745559502627 6.686904978704028 -0.6110802589904056 0.6603809049977465 0.8148188443660742
Ni 7.278356989706941 0.9520205127178474 12.645871675044699 0.35202001822429696 0.6953221969596218 1.4120434284203103
Ni 1.3787394489026987 5.90156662526482 8.002428810743238 -1.323375079248624 -0.9254120186353094 0.405212028866244
Ni 1.9286517139115964 1.208451017083843 6.884381739883491 0.4450780118232464 -0.2663657732885864 0.5262035156506679
Ni 8.966860981396886 7.3370719933614605 4.4183273394099745 0.985411024896761 -0.43654117799682884 -0.13527293640410254
Ni 4.435444777340068 3.1129303533790935 10.382930526889274 0.46394296704854937 0.7447637394202012 1.4919625706444564
Ni 3.6632995807734856 8.212667878546146 5.583421951873388 0.44845438449464703 0.20728696484855916 -0.038316893302327557
Ni 5.250236687965119 8.018496167762992 8.172128786918734 2.220005911986183 -3.0289168755082545 -1.1873223272557034
P 7.920155997252047 2.3153911042471904 6.666813554963035 0.5067592908831272 -0.5574907557997237 0.515700302126499
P 3.8081380054492056 0.10576720813966983 8.051934623465604 -1.2504125708479692 3.0238746850986566 -0.36500228941657786
P 0.8411082811480318 0.8911885608693043 10.685219538080352 -0.7492896523150128 0.8204505887305548 0.9396669858924268
P 4.034334386268831 6.899898876888058 3.755985541196161 -0.9394479279030853 0.2930062586942503 0.03781527107556068
P 6.282785163922607 2.2561725093923313 11.236127794574369 -0.37730501804333083 -0.25859847063834174 -0.7478668038255573
P 1.2336212513379006 6.977237429192208 10.53013676278289 -0.7690506369920239 -0.11663192426414754 -0.3240353600859129
P 1.525666844483535 8.036961178442144 1.4607912418115172 0.6569772786328364 0.07482552975132276 -1.3142373786134138
P 7.8416610503397095 6.963817656279429 13.21079841843412 1.3098266511402281 -0.5259147807656556 0.965014206407964
