# total energy = -340895.8581725838 ev
CRYSTAL
PRIMVEC
8.99771315108464 0.00000000000000 0.00000000000000
0.00000000000000 8.99771315108464 0.00000000000000
0.00000000000000 0.00000000000000 13.16906269940159
PRIMCOORD
 96 1
Ni 6.426049881126689 1.857685886969629 11.397850645702414 0.12558296280984824 0.5197269067873888 -0.6831835047145589
Ni 4.716979225023163 0.4874556178353554 5.976450342532295 -0.3222129621651934 -1.400650098981704 -0.989200059625548
Ni 2.8882299840828 1.800073528597306 4.776010522785665 -0.5776039816098311 -1.3043255188163407 -0.27944034708435744
Ni 3.190328208719805 4.384801644765562 4.858475465112415 0.016302593814765474 -0.16375381745261475 0.012357750234404524
Ni 5.078336389569603 4.587196208130709 2.7206493730859487 0.26534684510576884 -0.1472445069436819 -0.6101217517318783
Ni 7.186257681613835 6.154921785728718 2.5569053870477036 0.4262865901483562 -0.9015508957469957 -0.8966606575342299
Ni 5.109648431914706 4.539112428161679 11.429732243300515 0.11271022061223815 -0.21803983248968903 -0.12424418939376666
Ni 5.49534441098514 7.822575967431525 12.348669604194031 -0.11813704805476428 0.19422550367891067 0.6567235107508174
Ni 1.955572010151341 6.384408463893032 0.501700797559713 0.09723809311856801 0.1685887769474129 -1.3911503870213848
Ni 2.7678675730338282 1.4276491766702692 0.7327188865306743 0.013190016327712769 0.26489561650096316 -1.8361744056782443
Ni 0.3726789872139239 -0.16418937284746393 4.770322168426305 0.7300038075022073 0.9271408284009581 -0.2595559494556046
Ni 8.559443699572926 2.1740994734948687 1.3160793310752152 0.4589910223599127 0.5906150491575183 0.055926121743658526
Ni 6.884798294622375 0.6569608397108325 4.688015585853944 -1.0267013990051157 0.21602511605250535 0.8343615423846921
Ni 0.5000380201386283 7.238759338821784 2.137655135473432 0.015210389191851224 -0.2004534868664935 1.433027743981461
Ni 7.682409589370609 4.037489910707829 3.9765564963499958 -0.8829947300113631 -0.9291899976205028 -1.0319778169127067
Ni 7.461596706844422 3.8863013338329044 12.526741548919155 0.8742470657257202 -0.8608940414575817 0.11760894346543616
Ni 7.94583564216875 8.588227384475793 7.003965809342776 -0.29803276537456413 0.024165284392293866 0.18084291172441758
Ni 6.7705813217692965 0.7381274120058583 0.31277941011627775 1.6436293750255502 -0.3627636298940462 -0.19893165090532836
Ni 2.0425259116522203 6.50971961726666 9.083558700778006 -0.6951743585278479 0.6862454314693343 0.20569339510919415
Ni 0.1375030549189191 4.723763500864602 1.1944752355884207 -0.2080223003526869 -0.051460886883453315 1.6472978250160726
Ni 6.344404630483169 1.9703102645655008 6.926334438610218 -0.21942617131425435 0.8774992541144306 0.5110391492054037
Ni 3.577301863081333 4.257052111082876 0.39662730097993587 -0.334116912691631 0.6216197250691488 0.060015204211367607
Ni 5.923311647221462 5.617326410431272 4.728813017578415 -0.13459519361078753 -0.05065458893207405 1.131459968870445
Ni 5.121858328886631 2.790505819740804 9.325000640627358 0.40590751227137184 0.08429670246655159 -0.10209747809339836
P 0.10198728091185474 5.587552977063473 12.425393105652846 1.0663277551474861 -0.18468825361243676 -1.1920742401183921
P 3.9493843019023025 6.191362524664828 12.508898183639106 -0.8963791217380691 -0.23952345628476168 0.32075488956242826
P 2.2476827730058564 8.478005396335709 1.5825529093740134 0.17412179095050012 -0.5961537195875604 -0.2682434499272735
P 6.4513424532623445 7.736584821255625 5.765718498007099 -1.985644459518335 -0.4769524919343399 0.4189676878894398
P 4.635630898919123 0.9716000771698494 12.572346458869196 0.22493501694762552 0.029854364357271162 -0.637519941239173
P 4.084556949071974 6.189796922547573 8.129565349027954 -0.9850695823969422 -0.355678955133123 -0.6467589433389378
P 4.7896447577757595 1.1793122891056724 3.799129687669741 0.8234459239134527 -0.41255587082582496 -0.3442843401429361
P 0.28887518514552185 5.453810966311293 3.661723808054651 0.223196436989964 0.783015069591916 -1.042052170429573
Ni 1.4721248735989576 1.3101390407429634 2.8073153477606656 0.16859289071247094 -1.0401487827592732 -0.820567059703761
Ni 1.873152956162511 6.495782159337763 4.760023385763028 0.08151271196351122 0.4424251475814316 -0.5366596779869854
Ni 5.844041792893777 5.397575258076557 9.24746104657064 0.6799652548875774 0.3818412153507875 -0.2661084058621417
Ni 8.729491483561452 2.057696056305623 10.024831085439697 -1.1531755061706657 1.3894891972688779 0.38462443452287953
Ni 2.3587955347643788 5.233636921430652 7.018281171231011 -0.4568822035470261 -0.5616220043592779 0.17043174369342262
Ni 0.4779702284559859 8.901608741613016 9.089853501014971 0.6618204656577505 -0.3127713571363194 -0.22973372388784952
Ni 1.5088985279278166 1.1493319083315696 11.202974571585417 0.5135662865026317 -0.22599148323659787 1.2049073873273184
Ni 4.073894658790668 6.94491201729698 1.5798922855460116 0.6292250482202324 0.4440038049224611 0.178608365966944
Ni 5.554594353181259 7.790301169761446 7.8987245150093495 0.1200823447065932 0.6058750606403823 0.49423878981861336
Ni 5.107758912118018 3.0695788959981782 4.903223792754624 1.0770320289388675 -0.4485600568345759 -0.32950435362028413
Ni 0.9263415791825335 7.432561085968662 6.713891229012024 -0.4050410505060186 -1.1100933302692109 1.3360681013352602
Ni 4.799785180684648 4.432399548215443 6.963523787294349 1.294980330156015 1.0840369995017909 0.2685949197294213
Ni 8.09000600265598 6.9672893303177466 9.30794637480526 -0.592451845255941 0.6729962797689119 0.19635669108930057
Ni 4.652636577089306 0.372733873265161 10.274239600660414 -0.6843117047817311 -0.5712780393918033 0.5840697918398328
Ni 8.051333830817116 6.945424886956081 4.64746739078837 0.5745934769182814 0.01121566621016133 0.2410869441171396
Ni 7.0872918328340155 5.951456494478782 7.122593461264122 0.053879266516958825 0.6524572792752957 -0.8345821430359305
Ni 2.269862136333637 5.226303785076843 2.6961548981215606 -0.00014758132145781036 -0.5579808080622649 -1.2503673194323306
Ni 2.231657845587286 5.158389044955916 11.376305621163521 0.2911506935427502 0.30922040656026745 1.0589468893023826
Ni 1.0327305414493375 3.3533037900407305 3.8800272283365715 0.19808190131052336 0.46541312383617267 -0.20565688544430388
Ni 3.6849415074992775 2.715662840365358 2.6562392423022105 -0.2858367375290045 0.36548668525216405 -0.3785733432327932
Ni 1.0158778244055517 3.1484168600866203 8.264127051463364 0.6392695769404281 0.37006530576178204 -1.4102302864709713
Ni 3.5711024386055357 2.5724552352031074 6.912612026029612 -0.7674920342556524 0.037254513476084224 0.857865024823271
Ni 4.072985889745595 6.88076731905611 5.907694316216177 0.4638426940252592 0.3684367690194235 -0.03291243445730461
Ni 0.8112230354550348 7.396561234985114 11.30504823054512 0.10342853819999608 -0.6238738112106481 -0.02176027449522704
P 0.2157300742730988 5.701850929336411 8.048707398299722 0.7545123341665328 -0.4597762372653695 -1.5302609520040227
P 8.340745279676364 1.470082392675872 7.9083907584264015 0.7391620769627075 0.8691758218503999 0.36938087810024767
P 1.9070023536631635 3.1943681819993883 10.248612313589346 -0.37268911653787423 0.19412548776593666 1.256532824813094
P 3.9603255212964528 6.182004902814567 3.7444253902416524 0.015430475622457297 0.2358164397468197 -0.05496607182323437
P 6.999015267475455 3.752073446561577 10.26258486260018 -0.467495203176182 0.08973998496930996 0.37250965353721655
P 6.2310604358218935 7.599828576542063 10.256224379056 -0.45785845141736625 0.45877067881899053 -1.1285242832808886
P 2.4030912774267157 8.532558532180063 5.572937091550433 0.3727433668145774 0.594415396740215 -0.16554536213539878
P 6.982540454391008 4.0343497087600015 1.6153171826485684 -0.11878933692678252 -0.17541711272315594 0.14706992903903057
Ni 5.378545094409922 2.7860609493619304 0.4752916092013489 0.09412448719025081 0.21554251998913201 -0.13962761382837244
Ni 1.4624973203491707 1.050608997811325 6.913113198661399 -1.0581125663265454 0.5187378034012421 -0.20627857818870282
Ni 6.712204157764981 0.8002944128595291 9.108593038541448 -0.06889913696455877 -1.0737104207648025 0.2602236649465905
Ni 2.6638000208029546 1.5019073046800742 9.154934861212197 0.605294505546564 -0.5414786966421836 -0.7214448621886026
Ni 6.424817194402183 2.1015329155887645 2.570745669672771 0.38812756258013154 0.37418961234280074 0.8553096053912689
Ni 4.11961204015718 6.850615981728973 10.34874966464311 0.07475482441438738 0.2853487421489925 0.23708887870134007
Ni 8.101289135156197 7.327305835579871 0.15140902085120472 -0.37390216300936896 -0.30916281384945465 0.351268227659937
Ni 7.778217240775965 3.939387842406496 8.197504382974838 -0.8089960670367099 -0.7955047174184945 -0.2348324785669956
Ni 2.99124480385552 8.39871754658139 12.293596400519924 0.6471096418101372 -0.35172459847106524 0.6976184491929663
Ni 9.293108245773274 4.878155263680577 10.044307535686881 -0.8701137602836369 -0.6999355273619171 0.8869763403669305
Ni 8.446567386004162 2.2136264280989 5.820791701681208 0.8299718979574287 1.2063592892824966 0.28940697137876603
Ni 3.7476555693226556 2.671745001662358 11.581545261479677 -1.0296566249786976 -0.4151861093598204 -0.4051811756283086
Ni 1.075559656840913 3.193270460974646 12.566130838509428 0.04118650154063874 0.41008246958466793 -0.8099082944383342
Ni 3.0254361144622397 8.438640400571394 7.6682138970694975 0.8162139249413878 -0.8016936198380258 1.1039141980416922
Ni 5.655593685170845 7.769858365103954 3.6196091111004898 -0.37866204629185757 0.6678820984707982 -0.36840925821559783
Ni 3.261554107341593 8.515777796842817 3.5053804412200975 0.05166194715066587 -0.18122523476450078 0.6603030005719596
Ni 3.4798476301388637 4.479934467672101 9.480895921338698 0.23811783418648666 -0.269032264377156 -0.9513505928779422
Ni 7.100203551444712 5.982660564264073 11.508194102972285 0.5353833823777232 0.17634502385406403 -1.0046130517465086
Ni 0.7298036274157855 0.03395467074646806 0.11474603839615176 -0.08684440858906979 -0.26538541165318813 0.4671177652321052
Ni 4.829342668932826 0.5070427399563471 1.5305218325725716 -0.7260021425419819 -1.163469689007822 1.5645751519048605
Ni 5.779465204413664 5.429130238681232 0.382328134975673 0.4166184709309729 1.0687731313641853 0.7261453529880656
Ni 7.797940228368052 8.628276206452243 11.307721451171767 0.1460260611555485 0.8941191220592988 -0.21464366232394644
Ni 0.08746137253198934 4.851863945366673 5.8956841684798995 0.10730241933310553 -0.2077821593174228 0.4844220608385077
Ni 7.869490044669273 8.939417132973393 2.654277740798983 0.3344203028646628 -0.8024760065300051 -1.027687674177785
P 8.56009153493179 1.672234017781444 3.734206687226902 -0.32618171700495435 0.5352900513329684 -0.9799939676462478
P 1.9490306725694764 3.322252681381838 1.3710310656195364 -1.0715851468916835 -0.03153020939779731 1.626500171544431
P 4.5786033919124405 1.0325505871829863 8.081945851066111 0.9343640856222748 -0.13946974809426949 0.5842045176454842
P 8.572922274122627 1.5649632796095194 12.27591049522293 -1.2976645618563973 0.10178148951487632 0.12748043694287722
P 6.429397030480821 7.836684381913456 1.3718867481560362 -1.2260305424591786 -0.48668437451012314 0.45086299393613966
P 1.5939899027719613 3.100288091551003 5.9795977426507765 0.5528820533831187 0.7972026739462076 0.8622865509297344
P 6.848168603706599 3.984277434147792 6.003262628447286 -0.39432854918452087 0.020361337265171385 0.7546712283419003
P 2.4117740707781588 8.425071848888518 10.175366428327766 0.2201558503914273 0.17730893042923013 -0.9041495097121074
