# total energy = -340864.92955476773 ev
CRYSTAL
PRIMVEC
9.32850884868807 0.00000000000000 0.00000000000000
0.00000000000000 9.32850884868807 0.00000000000000
0.00000000000000 0.00000000000000 13.65321564018200
PRIMCOORD
 96 1
Ni 1.2688264624351735 2.435272540024255 5.2315844931347355 -2.6302519037319088 -1.0907318950234635 3.1849015905384115
Ni 6.3522854289280755 6.165360768194955 11.031757460349064 -0.43368802481874985 -1.4656290749562502 -0.4831894739829872
Ni 1.7308488497387942 6.547605747644018 3.5264478123937804 -1.6973698019717993 1.5477100007184055 -1.2431484330863882
Ni 2.1415084672052775 6.792908216884367 5.90390971725009 1.4989775685097086 -1.7092105033604692 1.4121123339850326
Ni 8.967253035311352 1.1200180889440703 3.8174804978156796 0.9255595999567673 -0.7395454284440554 0.3978262779251342
Ni 8.499017861100443 8.756456720380406 0.6290512043192238 0.08468005394789932 0.5778934878257919 -1.0494813730141088
Ni 2.75762849252918 3.6774940951627495 7.0810761172323495 0.37451100023796147 -0.14710463893170794 0.22738579248096322
Ni 6.309710114446293 3.2097533319219393 11.67994330206203 0.9430844962144082 0.6223476043741089 -1.0125639311624692
Ni 2.904403251086666 1.1287309162284667 6.276942794190221 -0.09025369138093489 -0.2938256692717521 -0.07715289233291873
Ni 4.003124354280975 5.987689988260682 2.1134221927000736 0.01612621613790126 3.1116806862700477 0.24756046765662526
Ni 4.629813580154365 2.006534272368093 2.5335045369759452 1.5492912291625962 1.1345123825435237 0.22316121287665436
Ni 8.920601162453467 4.445137090058868 8.751684255242616 0.7430806952908235 -0.9640852668357913 -0.8814129873465401
Ni 9.101480949438953 3.5142731754678 12.392258910851343 -2.262564611284 -0.3292482717454201 -0.7774162353478997
Ni 2.6589235401777906 6.805921486757743 9.221614419515168 1.4209353315933013 0.303968928353341 -0.6032718186895805
Ni 0.3195172872558437 6.872592339650228 1.3008568304905304 2.3024118251879253 0.850347119179671 -0.5366298531903145
Ni 6.90427195577208 7.647464928920444 12.786004076035098 -2.303399385912175 0.25324543385654447 1.8767538697625032
Ni 3.8187463764693117 1.0347741748918071 0.44862011861037415 0.35202078955524535 0.053313880931792054 -0.9857259850340184
Ni 3.8313398634435463 9.217294387057562 2.8765278008819193 -2.189659438483842 -1.2164806939872146 -2.7607829545756517
Ni 8.717276983127233 6.871398290514892 4.424064921372869 0.6640339283693015 -0.4021025367029849 0.918558743158902
Ni 5.517281271483108 2.9607287876425383 5.826414062665086 -0.2658880623212195 -0.8136217387341795 -0.6915185069428155
Ni 8.297260871264337 8.412253400102403 6.557612439108656 -0.7976179071067554 0.7226586799910457 -0.9570705260808549
Ni 0.49109841659991077 7.281591482537886 7.690200693754787 2.7562110189342532 1.8561475063660613 1.8049491291153752
Ni 7.111971205758252 8.97777559331649 8.460679555347324 -2.2059280937368784 0.673244391223976 0.870705885341681
Ni 2.9251125407776293 2.99340655421346 4.03560342361297 3.264632013790519 0.17112002800969886 -0.7089508434866499
P 2.5135853719862546 7.510186592392417 0.9434769914339287 1.4271964820116647 -1.713568523218849 0.19032334041102705
P 5.4159736651570425 7.923915289277066 3.0870190735728236 2.4906926812476264 -1.064692019316276 -1.086897865989354
P 0.6467660426629803 7.827561121160867 9.788236443925006 0.7805871768767138 1.0646010022643664 -0.2642878077136352
P 6.307713813548155 0.41463729364856755 0.33530019141266393 -0.4442771131885059 -2.1399535866182826 0.8524654510742544
P 6.056161243365037 8.223630950754979 10.498968071908228 0.3624301578140274 -0.0195583817479018 -0.7458256050258123
P 3.903952976486096 8.21070163746143 6.928174394049177 -0.7904031345258711 0.004900265515094786 1.303552130985426
P 9.094484567786601 8.416050103212413 2.8614408034867864 -0.4901458506961623 -0.041937006553418095 -0.019834775337740036
P 3.327936210793478 5.645184456596981 4.262793660031709 1.862366747802896 -1.7548244445448422 1.561251486848266
Ni 1.7670248071358916 2.307527939561168 11.873068622640908 -1.30121679798403 0.7086312553637022 0.9633419609118636
Ni 5.953948771678602 1.7995066750205468 9.528647363350553 -0.3865170235599021 0.17963552167987773 -0.2115128300044486
Ni 7.968132421319933 1.8148147580758942 7.92727541817197 -0.26324342560952085 -0.017875851839156312 -0.9479379676519675
Ni 3.4198500086876504 1.8144696032477114 9.462088452564506 0.34956924269095924 0.6563820682509985 0.17031450138926799
Ni 8.61499921187871 7.458515981762576 11.532270208100382 2.0785589855608846 0.8711213756125449 1.399120549711055
Ni 7.107064410092735 3.897870788702984 7.3957966852273405 -2.3812894135214346 2.189529083553565 1.3806111780529577
Ni 0.058944048995626476 1.816092763791057 0.5181296367519399 0.8299047921649191 -0.3577615486937645 -0.38290076696355346
Ni 3.9828255189802833 3.430932277224977 12.158352148046347 -0.2917880700164329 0.01841192684828442 0.0978009076005735
Ni 8.12677304315981 2.9641616789066263 5.727086898772081 0.5834774096714725 -1.163401554774048 -1.3876655137965779
Ni 1.08256412583181 2.0660968015017875 8.411855072773662 1.4924508231347844 2.3424459582916755 1.2618568081291686
Ni 4.94076076631152 4.412953734458046 3.490936044828213 -0.7880618879872041 -2.2853772383031417 1.0904362181599156
Ni 0.057398315075900055 5.444369646156725 10.713650643634336 -0.10565691330988256 -0.5263706373561516 1.1454375140964597
Ni 6.461699509462 2.5091170162376186 0.2727777264145809 -0.1036221422680409 0.6023709041418658 0.12489056472851394
Ni 2.03037794103931 4.596632074104474 2.0125660862033077 0.19173050517119883 1.3962655967607631 0.16190776538281149
Ni 9.088682235269584 0.5855691587752964 9.447055560520818 1.0797208886249405 -2.2704874656755027 -0.19811172610719427
Ni 7.567398337290922 5.070744208903361 13.473280101316087 0.9948631714485963 0.4234164676894127 -1.1602519534014726
Ni 2.188011083921247 8.885777838842492 12.988931793734366 -0.47860031195040803 0.5564317184075901 -1.2286774931637228
Ni 4.789237796739305 7.938551719693787 0.5088664274442252 0.40063340835662614 0.11308277346030848 1.2873266702654993
Ni 0.9948481569290489 8.55894420208006 5.392241938592263 0.03307724216994303 2.120567725892503 -1.0249988144917124
Ni 7.722755324008626 1.2381449967623903 10.973416965877314 0.16951514541642418 0.643152456934602 1.3716529404184055
Ni 4.278884404981232 8.841626006361711 9.268485512331495 1.890191740434964 0.11028207078671975 1.406936703321364
Ni 5.125166729649793 0.8111866085985864 7.325400958743144 0.09479683066692705 0.6286918014245818 0.06682374249276879
Ni 8.995257218938503 5.37533868052018 2.665817308232575 -1.0202993521335137 -3.275471270497868 1.3535341193305077
Ni 6.631217172644066 4.471993867095032 1.9014831354325763 -1.0313926338331978 0.19027037568590457 0.8709087453811066
P 0.5614792174699162 0.8746615143522765 6.873179102858138 -0.34720819865795044 -1.125859591964532 -1.6018492057649705
P 6.883049598093278 6.273608785120154 6.726270013772927 -0.26850647378067305 -0.4634595996542276 -0.05511571002722121
P 6.737683444375132 1.0026747758708139 5.675860325164443 0.7280590250710106 0.3246891916198279 -0.06710322140640057
P 8.17661526605117 3.1284740341393427 1.6285832055518008 0.7150399871035233 -0.12462548399258536 0.952813550576714
P 5.635361536757078 5.739047912844942 0.34107920265750713 -0.6638616644574954 0.8538137375720328 0.07484789834882594
P 2.7109299771269444 2.4800773681259205 1.6446795476066467 -0.9560099460268244 0.4569071432476905 0.19662845669344844
P 0.1638589897016439 4.327999004180747 4.732477551670099 -0.4869617965412258 1.401446112520438 0.4854857262163316
P 0.41345630442565046 5.912931318178077 13.098731141684613 -0.7193090467925225 -0.30205448493944753 -2.184930408439288
Ni 6.418797697169774 5.9563835124936215 4.036053990591381 0.6196037230803845 1.6396392800295505 0.6452021403747792
Ni 7.315211428504658 6.828337893571881 1.7284420944503849 -1.513846000981109 0.9459204230013064 0.43233716721781024
Ni 1.5766859121564238 4.19689614052453 13.44609682646948 1.828420472764438 -0.47738186616227457 0.49309619157373785
Ni 1.8078370334412812 6.931016790701806 11.317600696286691 0.5584582619193156 -0.09354521764801309 2.6486409477620576
Ni 4.103097983838658 4.031063238346036 1.015095685430957 1.4179394821897708 -1.6638994381284957 -0.9833209751369516
Ni 9.034483598736026 5.640128404789548 6.677405418611123 -1.1913193642302387 -2.6016054436398095 -2.356483667331664
Ni 5.774841401378378 0.4301860522327558 12.088707366526169 -1.8767065614643355 1.3127384254703842 -2.3772208998790156
Ni 7.2681211157298895 8.685009670946583 4.059961093122913 -1.0719556428572248 0.45246016321993043 0.3632991906825421
Ni 4.668900032318841 5.132816106923031 6.155483743003608 0.04230570274674649 1.052908653528103 -0.3192150558791341
Ni 4.776383111516715 4.567126000549287 9.55423359747865 0.8698977876180889 -0.2789850047144937 -0.03660788103102082
Ni 2.36198777434308 9.181482241506387 8.328666229225416 -2.373769193884989 -0.2712110171960297 -1.654452690893299
Ni 7.019702924527026 2.5132402171580717 3.5347082069979914 -0.7992099341842235 1.242796191953292 0.8272979506696914
Ni 8.02809607633503 7.118613104073551 9.372441482325696 -1.1129086882308188 -1.41382263180792 -1.1913311913047806
Ni 5.27806099002587 6.79323471469481 8.592078132734715 0.8569687382612466 0.20971665733597428 -1.2020789167395878
Ni 4.771336388218152 0.6248375168627336 4.712257075843913 1.135661151435986 1.5991001822649233 1.0580637153664811
Ni 7.270994296461789 0.8239162918023201 2.0393398395105304 0.5107848671027526 0.5402633361778437 1.19993564514434
Ni 1.5264798774191422 9.137358394552217 1.6165410334517718 -0.8339272830607509 2.0114691338909227 1.5587454325969605
Ni 3.3772560371881286 5.885897299473387 13.362211143308661 0.31377614425174993 0.24417946699953433 -0.5344590707912408
Ni 1.7822209480848012 0.34653451464456814 10.636769737783851 0.1459206459259358 -1.5483419778754495 0.17935167189087176
Ni 4.172390147723557 7.8751458449057345 11.882284256553385 -0.11590738739329716 -0.4827315605099622 -1.3158486889645917
Ni 2.3703461182904237 4.122286726583844 10.028955816757621 0.023049939840928044 0.48514094128240326 -0.5006650050599313
Ni 4.21591697011006 7.682558779288644 4.791773285450116 -1.965128084732538 -1.8538229719979429 -0.07552152737708284
Ni 5.956504783108928 8.183667618756742 6.156822384026425 0.8224853597723963 -0.47795907882198324 0.8461058274048137
Ni 0.8348670283645823 3.1104979975472316 3.1411132308070395 -2.068580534191934 -0.9725855909973186 -2.634582669896779
P 0.4707576030093046 3.234763064201882 10.383788972892766 -0.9342023632334299 -0.9445104300276572 -0.35024184327795166
P 2.050984617132706 0.7207532450620517 3.727601247706011 -0.8204727002177418 0.6348933022496034 1.6349089644334167
P 7.05793115387548 4.36200141901118 9.802435367275734 -1.1091831597501156 -0.06499517392446226 0.7329819162939247
P 3.496334452911168 1.2075661446871748 11.804965843636909 1.9800211997942865 -1.356963713837347 -0.3084832712839268
P 4.794284520037868 2.9695069144890236 7.9302241598257135 -0.37168304387086315 0.09451863730487593 -0.2672157799937075
P 1.6745606272184008 5.285038714660483 8.213965682714974 -0.8208953895774571 -1.0340678666725158 -1.8134067729644254
P 0.026626362867079725 0.36886789772976436 12.349661207948275 0.23396473125006156 0.15452124311075324 -0.1311954239006192
P 3.6440327338467644 5.447000285658008 11.234166512955172 0.3650102598363778 0.9997901764365684 -0.1656019264049471
