# total energy = -340864.6518360643 ev
CRYSTAL
PRIMVEC
9.33478169297240 0.00000000000000 0.00000000000000
0.00000000000000 9.33478169297240 0.00000000000000
0.00000000000000 0.00000000000000 13.66239658185889
PRIMCOORD
 96 1
Ni 6.538361171648492 8.093479800247508 6.387102235347708 1.0691960778342169 0.9976368775389914 0.3945023557582238
Ni 5.044861437291657 7.546237555730967 2.429993975978993 1.0717329853234574 0.5233657890915567 -0.6668330883809934
Ni 3.671528348227903 2.950155085199974 1.1260519204311725 -0.06087061023312742 -0.8289038617042305 1.5974053110610038
Ni 7.211538956571227 2.405713275204362 3.423250224905869 -1.4590295673618614 -2.1508062130620704 0.04534089002864449
Ni 6.87474003152079 3.2531340960193202 1.3165972191479003 0.25547792273148906 1.5703616766796504 -2.0005702275902317
Ni 4.549063174924588 4.152437633725364 11.00474618473351 -2.1941691534287373 1.8663082489491472 0.20195578244363283
Ni 3.416511445970339 8.96990378791756 8.624633548441311 -0.5682937599524986 0.2385091560876344 1.9118358010673009
Ni 6.77631409289186 4.589454775498126 7.141075356633776 -0.01988491184938511 -0.3297748336728514 0.4161541297000446
Ni 7.4198726153648975 0.5549303707546662 12.482006199303473 0.2483672798286368 -0.03689121659939453 -0.1120576746299038
Ni 4.256259076197952 1.593437907627066 4.354970659148017 -0.2518243851393018 0.2056599707680974 -0.7785086970811302
Ni 0.5382789870932203 9.17096565173855 9.095822525716626 0.5971019424334426 0.46248977954179055 0.18244368055263419
Ni 8.57987793740599 3.531861343887419 11.14257237011557 -0.2153147202490421 -1.0982243467457669 -1.7979750117903872
Ni 5.752409888567931 6.745555987070318 7.969781807023538 0.9187652027427532 0.12098454480588841 1.300424898210354
Ni 0.4918085766529186 2.3409578942987386 9.15879216287607 -0.5934471192896746 -0.19099465544643882 0.3309930223506687
Ni 5.072062991271618 1.080753025098793 13.567279125719047 2.4671367483045574 0.06943058398799655 1.4983052250330327
Ni 5.18311888958994 4.05972458151913 4.215068418307776 -0.06917990142977118 -1.0601792190475872 0.4595060143231183
Ni 1.6359018297460914 0.9421875250032082 2.185232264937073 0.419426115583097 1.255068838673058 -0.4262349109748143
Ni 0.6492294023779204 7.44346160881286 13.570297994132607 0.44378011894742925 0.7443600762238793 -0.21298427234365255
Ni 7.59576790762447 6.921105892405643 13.004210692246561 1.453793772884219 0.10501413751956108 -0.047376432401434534
Ni 3.7853566767219444 7.491199682612968 6.956236409992528 -0.22486148339721276 -1.435744628691992 -2.0968557269875436
Ni 1.659556166666208 6.301155032944039 5.006380666539568 -0.2504197914822913 1.682344789317877 0.2843570676596845
Ni 0.3804231605393008 4.912214188816971 8.81305238387848 -1.2287268583444193 0.17035872436364208 0.28352145913226656
Ni 8.29637128128884 6.8994491987771225 8.741980156171813 0.5043051729156799 -1.0515860780619375 -1.5800984443514399
Ni 2.4789726422718736 1.8592738219171532 7.714226287859782 -1.9643001895146042 0.3466258437919192 0.3714426457252829
P 6.970374870410526 0.46424576661975825 2.2306590467792415 -0.8339668780494346 -1.5044491331472412 -0.6901280543531921
P 0.6682004793008695 2.6030225567673075 3.330919898750828 0.8132157615450124 -0.8509356446932893 0.16378544202149858
P 5.285857497381102 2.5028043400449826 2.5041672181785013 -1.8415477541750156 0.0328206460744467 0.8622469559410505
P 9.235786376116328 6.237930556243191 3.0884526770597227 -0.3653514452258805 0.29770392128023565 0.9355858738445176
P 3.539767904018176 5.334501045009644 5.578533709597949 0.5909012129393695 -0.016819642660500064 -0.6247580135878144
P 6.4151047136006545 5.473029205978283 0.3449565908099042 -0.562600052001831 0.575324698657351 1.0570555858169408
P 3.1059432575992743 8.756678703493996 2.5495398582865985 0.6442456899987807 0.08519453169047263 -0.38823812001606683
P 7.2132192172837835 4.38183989489816 4.976746468439093 -0.8128840892372063 1.8205431268988905 0.20213267434112928
Ni 8.92631969199016 5.80339646641232 6.448965700871384 -0.43831138252337415 -0.1323832735611333 0.3909714597868299
Ni 4.71920824163452 6.3322771952533 12.307059320868323 -0.16446447036639417 0.3103648045773558 1.436060617270514
Ni 1.1877389585800304 1.3598910033632945 5.269053956777351 -0.8406733435353329 1.2501117517780986 0.5482103589390622
Ni 2.8194961452351466 3.616723844653315 3.6062035456363573 -0.1529469566450979 0.6093041409265894 -3.0806361582594173
Ni 7.4335854097357155 7.686119260051388 10.658855182271788 -0.9361353185900845 0.5844181763181872 2.5688935552290855
Ni 0.21295064184050994 4.96816687054514 12.602194314594545 1.0292082245873695 1.162437648198882 0.3578929320653062
Ni 8.161362333034836 1.3551302646777144 7.502212858105609 -0.18424216721395367 -0.1727940732780121 0.4775255908289905
Ni 3.8386582804369667 2.934257951902832 9.252557244983999 0.19381515561436943 -0.519321443818854 -0.08851999651927982
Ni 1.736381420357037 8.627046589520177 4.727066260900247 1.2358297879377877 -0.5013658877816979 0.15358459022909676
Ni 8.201100498886824 2.537333697688041 5.3998025106468495 2.3530152491670897 1.2346218836726155 1.851625964346624
Ni 8.811977950500616 7.661820823191457 4.8258450542788145 -0.022518749927806378 -1.0717139591600637 -0.9165041746227183
Ni 3.312531312208232 7.285321071415978 0.8155948159627705 -0.8059464815771087 -0.3055686687402931 -0.6041272247113402
Ni 2.8604758370580794 0.7755784736150374 0.1713072470361168 -1.371787923334373 -0.8561125609085385 -0.1372205470487766
Ni 1.9590159647709204 4.83905750434856 7.084048241527744 0.9263165327274498 2.001071592706683 0.6789270434310501
Ni 1.5554266763963183 7.130485046753795 8.136339517112159 -0.11446654118171254 -0.5674877191114355 -0.5606755812856086
Ni 7.054406575601881 6.4223391694463885 3.0958990324508737 0.058306449050377004 -2.019505373931838 0.39841583188001706
Ni 4.440649019837677 6.819534132331535 10.046219991257026 -0.556255597841042 -0.23977336751203862 -1.031118554236205
Ni 6.710270512106608 8.571476633843202 4.018042914109617 -0.6622896919846852 0.6098638700848013 -0.49453189557899996
Ni 9.107937205454165 8.291395842623322 6.987291361873288 -0.36435488564056606 0.9400145990398328 -0.11960334818764563
Ni 8.53515499810675 1.5259381008909323 1.3199624079638836 0.36241498830537583 0.9563860984193208 0.33637896925293037
Ni 5.290926283863984 9.163199113333839 10.045522683061314 0.7334192609416594 1.1327995136174749 -1.4652482945780636
Ni 5.904613504780442 2.4023154146523007 10.780573268289462 1.9547508552632722 -0.4106578824721638 -0.44296147970087585
Ni 0.9749246045528726 5.503469929220786 1.342884897995864 -0.15342518183309706 -0.3259156078277613 -0.3372423456944902
Ni 6.115280859008221 1.302640786973762 5.937964812968364 -0.4087830340469541 0.5061813068924702 -0.8655130282868321
P 4.819314440976008 8.65071026122203 5.1471986494681525 -0.11561016786785251 -0.3322631473123439 -0.4279565216516114
P 0.5310426642911388 0.7591511247152657 13.600451206097627 0.7694234469504104 -1.6487648964799024 -0.2679575432557385
P 2.9309441043863984 5.50392733352587 2.179220665498811 -0.06372324919057412 0.16543326203756673 0.6014903013091254
P 4.838861473932094 3.0341867903913275 6.858044774385181 -0.38892666144265925 -2.0256870772625177 -0.3479921280118265
P 2.615400477349815 1.2102824564735117 10.021149567947493 -1.1682329147244204 0.5526830499984353 -0.0709688750093939
P 7.246544388082843 2.7488878561807812 12.662295373326383 -0.5577239548564524 -0.3701987460158528 0.5164477218154847
P 3.1368133808016516 3.564701106036184 12.84638287003785 -1.249616814419551 -0.31846480797667087 -2.2000775484933723
P 4.985557568920111 8.535313689396268 11.874044000025968 0.15153362123733902 -0.6836262486789323 3.708280235145775
Ni 3.9154835341277954 1.6249708003327308 11.840242755358352 -1.7192956555106134 0.547455997271541 -2.215878777191687
Ni 3.854303374627225 0.5831690189855442 6.552498698588317 0.40625692519099066 0.279601298142254 -1.8477340854913855
Ni 7.9974809048700495 7.896338544755818 1.6013827403629428 0.562996001888669 0.7381477767655803 -0.15899162017728102
Ni 3.582278500045884 7.169681795265069 4.060504969272295 -0.3782815230239872 -0.4206373622823788 0.38661755369350836
Ni 1.4180000196725786 3.0693415784107274 0.4746839195574356 -0.6852987512853488 -0.09507990912498464 0.12186746163147398
Ni 1.1907634278626342 7.100996471248409 10.461557102446926 -0.7797340848477989 -2.2150354553547853 -0.0886179555497248
Ni 1.6820809949962165 3.9716322462724287 10.456515386831079 1.7043696303284002 0.13343254076125408 1.4257710624190476
Ni 2.5770438591948195 3.1702318994180754 5.664525718953953 2.33734051874431 -1.1404945682688874 2.120034736207168
Ni 4.356421284229858 4.840569738989862 7.771745345963324 -0.5613003593538011 1.3956001952626222 0.4856271368902023
Ni 0.7861939874057069 4.399389284562651 4.841024342860426 -0.5935232239432489 -2.55597401895394 0.9614624845009636
Ni 0.31130656960641706 8.984690082188065 11.502699848203521 -0.8045022929314144 0.20280707470033457 0.845276389524983
Ni 8.542800184348886 4.170136379897637 3.3189107020469093 -0.25572089198023057 1.477932060693319 -2.3636081941915874
Ni 9.22382852071196 0.2474062547078511 3.484006585315605 -2.2051045693943183 1.0313455826453466 0.19736867729358265
Ni 4.927224517849153 4.852676950902013 1.955485550318202 0.8599517321489705 0.7151423170093425 -0.5296487938867911
Ni 6.280422482707426 5.216556077769837 9.773777851932067 0.2846175204099227 0.06283441882771759 -1.966275825183736
Ni 7.6851671123142715 0.8663274877439266 9.938136287443584 0.6978164241363852 1.2359717128322907 0.5481671644059527
Ni 1.088426215686139 7.891475123471137 2.359550912561362 0.5025601652001151 -0.7186616430165107 -0.5861099621983131
Ni 5.5838237304079845 6.1881014913341215 5.08383228408491 0.4013515174695733 0.41826629094704093 0.9930600568015866
Ni 1.0833760987667298 1.858275000271355 11.92042759699612 1.0261396129643745 1.1877789551771478 -1.4245893834061207
Ni 6.744678517587094 4.958075971488057 11.884672582511069 1.5175440186579863 -0.12910588836144218 0.5009200584935309
Ni 2.8275520618736865 8.463753252604787 11.067320027147328 1.2948908557660022 1.7412341074549171 0.7996891878134872
Ni 5.972738741892917 8.23102780913382 0.2337718725036197 -0.9708038165065475 0.24329346485015518 0.030506653229289395
Ni 5.436511539825365 1.3309531799803578 8.177600185865357 0.8702574849503528 0.15349074496370985 1.1006895204568077
Ni 5.24058380595941 3.7934779368326397 13.174689944142656 0.46138240541022474 -0.8854987273801395 0.8504741316758384
P 2.358703314379694 6.609940278003446 12.386629000389663 -0.09425715611337315 0.15397488368898 0.51956544150886
P 8.70378783017538 5.892291592888353 10.776406221722318 -1.0188153113888194 -0.5367473526047852 0.34827494935956793
P 7.042915459284333 8.643205096705941 8.778499689281078 -0.521898974738043 -0.3196914812949204 -2.327812781759533
P 0.5078447981979337 3.352577525857522 7.143151412091958 -0.6258728439185479 -1.786583482123994 -0.49034922495622
P 7.979632802189993 0.4273976491933698 5.37609869938353 1.4572585915043677 -1.3405310222026203 0.7695131784507392
P 2.6949421525259454 5.616131409997774 9.221134502702824 0.3252887728770398 -0.8587780235558434 0.22849522349505813
P 1.8944566142817623 9.014290675074289 7.049004537411007 -0.8633448169909197 0.3704247459837298 -0.9732188537059432
P 7.401352408399818 3.456062916187598 9.075205726773543 0.3393599062581253 -1.2147986782991014 0.09722858003687126
