# total energy = -340856.8553986616 ev
CRYSTAL
PRIMVEC
9.38706691285927 0.00000000000000 0.00000000000000

0.00000000000000 9.38706691285927 0.00000000000000

0.00000000000000 0.00000000000000 13.73892128623027

PRIMCOORD
 96 1
Ni 6.570374352259266 8.52461152742845 8.440108210773037 3.1620599100535483 5.146070433512886 1.5900869230227197
Ni 1.3411772105555524 9.181058516134383 5.9274381692166935 0.13620753240322994 -2.1080253704511183 1.2207510392277943
Ni 0.22811887219313876 3.4862440726075623 9.377569256020383 -0.6965373003136455 -0.24402082993448299 0.5405114476329078
Ni 8.233715705360867 6.273217356442317 1.1765749891235902 1.5910258898972212 1.4182017347122222 -0.893467604518229
Ni 1.3169773515962366 8.400298597948925 11.354243398949286 0.11926421968067204 0.3728354123077514 0.03014849855892227
Ni 1.0782454613505756 4.6801194263789485 0.7821923846234701 -0.7564640585762649 1.1455868951901302 -0.9934122979346827
Ni 4.398160092181524 4.851330143042625 4.683790708318044 0.5203943651680586 -0.931583437553344 -0.8124400597212523
Ni 7.526541006097857 8.843546518895366 2.584057748072907 -1.4257404662914284 -0.770160582226751 1.852255627510823
Ni 2.011085253469267 9.096255752038784 8.410363411283361 -0.07309903397851927 -1.5869892579340021 -0.5853201193071661
Ni 7.366491512204789 0.22730501347639215 10.7296439127613 -0.585571830306656 0.43021497866848485 0.047190027422241314
Ni 7.779109433234918 6.965278877689618 7.464095419691707 -0.05105645235618304 -1.5842775154297941 -1.6462783826126228
Ni 4.8306973695777 7.101982735728607 4.169515544231316 0.747386521755029 -0.20043780313720963 1.568924944233124
Ni 2.175293218083428 1.7252772217647359 9.270268508228975 -0.2446821176675657 1.6186835037134897 1.148427449962719
Ni 1.3120960767091754 1.7695841784319077 4.966991012784833 0.4419302102228841 2.375060659002903 -0.7577920333590692
Ni 5.79696450760567 3.7876534098165084 8.929516095430314 -1.4914699472787538 -0.6981365264799655 1.6745677164756194
Ni 7.607992587242147 4.565127854520292 8.149488368477915 2.750898605582404 0.5102233381723277 -1.9264036715791464
Ni 0.5402979914750188 6.65412576484073 8.306620361919254 1.065661582318397 -0.0449012313880646 0.436205649034281
Ni 7.998879447957764 2.3245945201578713 6.19123916083425 -1.2084346837542865 0.12987490531698276 0.7111216258857237
Ni 3.7994811143505416 0.013856249732290818 5.3601166890015355 -0.5656174986719162 -0.4373461903966275 -0.7680139681973934
Ni 7.71994274936348 8.088244326659348 12.510579871425751 0.3925622013127175 0.24953147534006703 1.2284072702214714
Ni 3.80785437819527 8.496741325236748 12.966698400059979 -1.2978751352053066 0.818845191916648 -0.6457729252765847
Ni 8.365801126391329 1.75057536757364 1.8939787753951205 -1.2042638402060484 0.15492182098328156 0.45548120943444137
Ni 5.624786923031673 2.550006162202109 11.348624300588911 -0.43887008324032156 0.5994352185523096 -1.3251496546505437
Ni 2.8050715491852443 5.464737429138604 2.4517789534603813 -1.4615024543823862 -1.5680589966884027 1.6766940187900026
P 1.5002035141357561 4.693251933238562 7.971844694737117 0.37239189701242964 -0.034866472859881883 0.33703022968368407
P 6.21367518988726 3.0429492163256695 3.3474468986073913 0.1272122708831551 -0.1204700670633151 0.6145877579230319
P 4.517601133841078 2.094207732555667 13.764476132173812 -0.8815970783328883 2.1823724179041255 -3.085256173529932
P 0.23691079923010344 0.15557843383786216 4.049409898221754 -0.6109033670929093 0.4405909225861702 -0.697839821175153
P 2.806169836034833 7.6140660196497025 6.892995644972622 -1.0378910970733481 2.2195240872537583 -0.19642302555086172
P 7.347792474560507 2.709454883801385 10.090716007366371 1.3298144071160645 -0.3872317902387396 -0.5016998740823488
P 8.786379280314204 8.379975597697987 9.005959676281822 0.4244446518436109 0.1254901459857258 0.9472630530721298
P 5.961256955823647 7.281247555955934 6.126060999198054 -0.17871378119655673 -2.266832642531735 0.330229918932399
Ni 8.99623655218948 0.7724852185451814 12.751010820814795 1.2380964724847774 0.6743764479458901 -0.02785713142158428
Ni 1.7344296121779756 3.445870297051311 12.254431216900372 -0.9169705727361755 -0.7941847130554903 -0.490335340999149
Ni 5.534577208291943 7.102339444278046 12.806722125290218 -1.0632216054183368 1.0298440583991555 0.7988558932789145
Ni 3.760890881541486 1.5069715895080085 3.154058297235694 -0.6971512797485606 1.2461124008107183 2.6627488479183494
Ni 3.441524084988408 0.6761401167550994 1.09857221642835 -0.9481860791070315 -2.0173484754898356 0.15879107413070073
Ni 3.637225659691205 1.4078347739652108 11.325515218825512 -0.26361546423695886 0.2232866827109251 0.8749813727885833
Ni 3.1762174078095344 3.2493989828470924 7.641161788806438 -0.22346074639494418 1.222405801222398 -0.0019064729940934907
Ni 6.500834959252824 9.21794030273297 5.833202341401846 -1.0612904498338949 1.5808232383326064 -0.5957760245331676
Ni 2.7650263209771606 3.194944606655087 0.7383613522577864 0.2863892675983648 -1.0228136339149354 0.03258024792886647
Ni 8.385692321556103 8.122732411149855 4.913037905975461 -0.21382296619486402 -0.9913255906089831 0.4079957622589683
Ni 5.43345972159305 1.6139841543397375 1.7169809318701494 3.866314633616109 0.07822067147580077 1.6975168690726248
Ni 7.542010892663005 1.2418808148722162 4.106357479432997 0.1121026689352263 -0.017289897428699255 -0.0007911284427276697
Ni 7.094782855270192 4.087870589504961 1.5721450576106584 0.5200724630522656 -0.5416409332516607 0.3426979694924227
Ni 2.5655605323710717 7.121216836197046 4.374568515169672 -1.0523946900061618 -1.0338961169813419 1.3302088143410058
Ni 2.2400921422091673 9.15071012823079 3.360705192166017 -0.35936797394893594 0.274430809684908 -1.0967590750541498
Ni 4.6216379984051175 1.748313084404829 9.23009561590846 0.19042129944147204 0.1030143334807129 -0.30281527436487204
Ni 4.74439267474762 0.1742840424291066 7.4557146461933055 -1.203446743621392 -1.1010517888922327 0.31284617623831285
Ni 5.056296752963748 7.273475064404998 8.41857897240097 -4.555110085200806 -3.6785063463174517 -1.1933662194569383
Ni 7.002733275380724 0.5999828414498521 0.15908168727603772 0.2520300733922046 0.37585105920562367 0.26816374572927365
Ni 6.040051996981325 6.291907007019509 2.35343628379344 -0.615265757826663 0.7381940566224835 1.950327529384596
Ni 1.0429970244257387 3.0555184991598523 2.908460706120039 0.29759824894030684 0.42224018799312446 -1.3120606826770693
Ni 6.2759396058985635 5.32998608105444 11.954703103407335 1.065431982806094 -2.53014085994092 -1.4936507569801567
Ni 1.698890176173333 5.0699455485133385 10.26493903385939 0.8591384922190559 0.7304462943562645 0.8120307400979758
Ni 8.304372159351079 -0.031954515082779744 7.184906208992689 2.0740055618622475 1.7209704721098749 -0.8797376565266462
P 3.0481214902925364 1.3552765853254871 6.925941434340158 -2.0585899986381255 -0.8066216532672624 -0.6428668073733832
P 6.513075694738839 5.912031176001051 9.443365086671134 -0.2923562838150771 -0.4729066039997404 -0.44701945182033337
P 5.743852482007608 9.352560231877865 12.246709415511724 0.03596253413753806 -0.3689417336803001 -0.3577553780461774
P 3.8349454538184604 9.165222533952706 9.975103011666322 -0.42583638998481504 -1.6079406633746889 -0.9774246642571747
P 6.276305701515093 1.557042205368749 7.676334190487842 1.3377858553573154 0.9104335429486062 -1.1111024882600153
P 0.7029824351003914 5.560823447876989 2.7157038543635332 -1.0011662308484888 0.3647994293771524 -0.034847960917120634
P 8.734159026089738 8.715563246183454 1.0960555437413861 3.2083161128076103 -0.2045101734343704 -3.739040399146767
P 9.059327030104747 3.05360353747339 0.35994990370544755 -0.24740183059157392 0.01764599521653735 -0.8344631009595628
Ni 7.066293106650517 5.168444043493982 5.454406961805506 -0.08416017688868732 0.35004309700358427 0.7054019497931272
Ni 9.09580517281844 1.1541398987772888 9.615074256597316 -0.8917357094287868 -0.5901339957560418 -2.904073104857276
Ni 5.49174402115798 9.141003900859209 3.538445552697847 -0.6051222416347578 1.1769834072235406 -0.05735719776323025
Ni 8.127069236145667 3.779364629575595 11.790646270573331 1.8093115198491292 -0.09334698559427795 0.31895588868047653
Ni 2.1146246034775102 4.518192519067779 5.436395057472249 -0.9120669647869711 -1.5631186219639919 -0.7209411830793068
Ni 0.4753094485940515 6.323306746437239 5.725847148621314 -0.7333781232910789 -0.27533943754210644 0.2026929177199735
Ni 1.0688020718575302 1.1061813730119114 1.2382639779222455 0.17259455567269633 -0.6393963323262796 0.11289713981206363
Ni 6.600384805747603 2.8749676507411266 13.22288741897385 0.4022213216690363 0.2150357555560426 2.676019339775011
Ni 5.275841478076422 3.7575866339256287 6.685825890405358 0.3961134089990855 1.5983586761132085 0.7540392511848562
Ni 8.17118845147103 5.870474629991397 3.476208359181106 0.10069211310543949 1.1816023940527909 0.7428909478775206
Ni 2.2241622893565847 0.8426582385802331 12.944496108977523 -2.1149526936985703 0.5902219274841578 -0.5295338655754815
Ni 3.775149836451959 5.193141417009094 8.879780597864704 -0.3649557524493586 2.7112395964298854 -1.9383878405242165
Ni 5.9403331832789155 7.682497738739466 10.572169291371155 -0.3611628610658296 0.14937903678818143 0.47509127035588494
Ni 3.354815746273436 6.336082544747414 0.43739414590880266 1.174430301784384 -0.12612546557687956 -1.9494140164313907
Ni 0.7261891423615319 2.3659633248257164 7.291616510264104 0.7793067675023934 -0.0032668436767298572 -0.09949320770133188
Ni 5.459227220756479 8.547985324483802 0.9679211392493173 -1.0022900600402866 -0.8678614739143504 1.7813605431621578
Ni 3.6201881329219434 6.915151939426335 11.032793612208824 -0.6791646133631529 0.3212392853980145 -0.2261624615968234
Ni 5.485079203523724 2.1546604446185036 5.281117948487993 0.0677223430476382 -1.551205929686806 -1.604408224741398
Ni 4.512297440934944 4.051129608912734 2.0777231040380357 2.1555900076039585 -0.6927503224673877 -0.0272979164840046
Ni 8.63295705578703 5.606942108492627 10.225289001175813 0.056309987445638504 -0.23817748377982853 -2.314744378611349
Ni 3.809703630412099 4.758379404712469 12.329432005540069 -0.18847266035553348 -0.31639172749772604 -0.02099434286347997
Ni 1.4239993034950562 7.450815535878772 1.3559177220077685 -0.8761162577239751 0.3345928238867851 0.24014360636726384
Ni 8.350218595021094 3.6095901341767656 3.8104348829384493 -0.7035895791747365 -0.5782958654705331 0.6570474697491394
Ni 3.4635836926510892 5.765865154334835 6.681292875707354 1.4630006361944674 -0.7836473038592762 -0.05816066750113209
P 6.287570182023695 5.775374253297515 0.4832847007941425 -0.5132132740385872 -1.5184960981586106 -2.598121084635635
P 0.9449021733299869 1.5300262262822826 11.093175921268482 2.378171950938375 0.6395685962380856 3.006474230234022
P 2.9884009694627593 3.513025375016766 3.5797993380583466 0.5209242695295997 -0.4062324997109585 0.8695509458016315
P 3.908812284753625 3.913824978579953 10.289627959014119 0.1534454935480712 -3.2390474804531957 3.1863190397112287
P 8.426497902198518 6.213393577874545 12.08857488330512 0.09140477426624258 -0.748518321366627 2.1037964199714345
P 1.901219020242025 6.593128602886645 12.528220047902225 0.7483200893128918 -0.19656983554137114 -0.3391200223331773
P 9.341014139356547 3.9691335778771943 5.784154915853971 -0.3733766295232021 0.4998134556929134 -0.2756654534229575
P 3.6986264655301824 7.307568892077704 2.3284037919831975 0.818223756282565 3.181744018746037 0.146410955298793
