# total energy = -340858.9477767987 ev
CRYSTAL
PRIMVEC
9.37702276011552 0.00000000000000 0.00000000000000

0.00000000000000 9.37702276011552 0.00000000000000

0.00000000000000 0.00000000000000 13.72422065341827

PRIMCOORD
 96 1
Ni 4.53136186422039 6.063192305219897 4.769934890842829 -0.1850003855362169 -0.24751650179256723 0.8974530715285381
Ni 6.5331311787576745 2.2910129591447213 1.3562410009717387 0.6512285490745171 0.35391235015100336 -0.8567149703792278
Ni 6.854978731563907 3.911531281577709 4.6221942707631785 -1.0539437796608364 -0.27581046364125406 1.8663946380153662
Ni 5.088910261572187 2.77234491535766 6.272064549895582 0.2417582591525514 2.402126404871444 -0.8652057814590582
Ni 5.243237302451044 2.378838154482634 8.566603269604798 0.05986376623516787 -1.837820940142732 -0.6920666661368017
Ni 1.044328403798703 5.180561282203488 7.050406200980623 0.47592842154519976 -0.6259638609704574 0.8803287531434258
Ni 9.264367226256974 8.361416194880832 11.388797375752109 0.0006926551916504201 0.3194117452709725 0.800334277596654
Ni 6.607875427320401 8.515152483324679 9.187624734140273 -0.08494924844888596 0.33007076764671545 1.4599999016949308
Ni 8.431003080915708 9.310014573139844 7.225678697638498 -1.017836235305002 -0.982073732993412 -0.6173025857510336
Ni 1.7092718430259133 9.22896896527036 8.16937007987783 0.6245168441112857 -0.10564174380123097 0.08371100516641067
Ni 5.07812668537759 6.190616667748928 2.3507670990946794 -1.4123460472623934 0.9309103227457194 -0.492380653563952
Ni 0.5886810506767396 5.509751043844824 9.609795178242818 -0.6070989057451545 1.9288536757815362 -3.5068666983588574
Ni 7.306594902593646 6.496579543969378 9.898141441770408 -1.1289593139357783 0.18526083828645512 -1.7939908303316587
Ni 3.5200687116682663 1.6023737833577303 1.360877001033138 -0.010207022439988873 0.1078786035515497 -0.3196269466055721
Ni 3.507944221216428 7.841150840094007 2.544593910723207 -1.0377018638806774 0.9159652714001129 -0.3528425141255923
Ni 5.807527779180159 0.9707375290376591 5.507488368248514 0.5653066522997167 -2.2802977668977054 -0.3214614287111496
Ni 7.9226371680340515 1.7244063577894613 5.846820317726439 0.12686311507385245 1.9111151208511925 -0.03591753983221556
Ni 6.048339101139686 2.369226706135275 10.749002173912979 0.7122405699815153 -0.24711540969940668 1.2534888957804478
Ni 0.22076793577174275 6.8229655758001195 5.550116313796897 -0.605654459989144 2.0625428126382865 0.15789273068614745
Ni 8.145435229237211 3.2343789586936587 2.8448114850876323 2.4429308404823153 -1.4927292736071518 0.7090053508736692
Ni 0.16928151680506798 8.653097865410524 1.832018946593321 -0.8101353228474758 1.8326381103902116 1.8648118669092788
Ni 4.349485130420033 8.479238486085281 5.2820816193085385 1.0389969285430172 1.4334350067222088 -1.363046172586001
Ni 4.08984474672246 6.905961604407408 12.254191555498164 -0.14796698693200322 0.4621375384086944 -0.7210465983089195
Ni 4.54419900840335 3.730864183715701 1.925412218056757 1.5035718727486105 1.4379616909479687 -3.645098717391283
P 7.794875232685016 0.32258833760568717 1.1468877150275467 -0.5523750318397133 1.2221198945508631 -0.05287447940152829
P 4.506109541879476 1.4230944848668539 12.230682421691663 -0.3974593815040187 0.3591419739810589 -0.45173022703244137
P 6.287265641520854 0.38343396300699467 7.619961875999536 -0.2855526306296824 1.7245612747849266 -1.6185942864337932
P 1.002488128163665 7.293532709864016 7.687416427054716 -0.9909574086362869 -1.4468224837727082 -0.44991297131804453
P 2.4206221679810036 0.06535222254837149 5.932857314820604 -0.5425971265173429 0.6926785886891876 -0.8025055742163599
P 5.749709056731561 4.286040194304688 9.252155529493301 0.367931804358547 1.0392154723117262 0.40029710806312996
P 6.730976982348815 4.450006814599236 0.131332705622863 -0.1371683536546025 -1.0505653501069068 0.5475500996472441
P 5.412079974590106 2.6622117828310974 3.5226098848410805 1.4722861752614513 0.15294207154909145 0.18703438524711014
Ni 4.305535024659965 8.578334862802242 8.271011380576715 0.19206577702343053 1.1097495737765468 -0.5744682641943267
Ni 6.427789704870624 6.772770372869963 13.338487643483154 -0.056555013576909056 -2.4194888074092913 -1.154709940537321
Ni 0.14155272274850797 0.23374948610548246 5.274053012406092 2.292782015407645 0.7631800371438598 -1.579686553625002
Ni 0.3497967068980731 0.8834833943869214 13.481274382429236 -0.3672964847673932 -0.46094120410774814 -0.23027211288982277
Ni 2.2685737436371807 8.687286490458789 10.633649790508231 1.7420910561385738 -0.6059789332080983 0.04905793386891551
Ni 5.24150255323713 0.3806461741351218 0.23668824504407973 0.07838033698211663 -0.12619642802413106 0.14226556567185178
Ni 5.777736977814737 5.2904131040467135 11.297627396389316 0.656574643877779 -0.3871669984390751 0.41067022376733786
Ni 0.7525810941095644 4.162329132795711 1.7476144891647905 0.3802494453836355 0.06052942484362479 0.4425537027394959
Ni 0.7671145417130485 0.8459181034363329 10.53928224637817 -1.4417021318270073 2.7139713935387513 -0.6379927671105335
Ni 1.9882476476915372 0.42039349828613004 2.833200855484023 -7.250510914826223e-05 2.0086815438434567 -0.5035744653972424
Ni 2.9972715607314058 -0.017807903957530388 13.147473938688 -0.468181173499613 -0.5589907373840179 -0.5285874425018122
Ni 1.0626886143978522 6.747874377394609 1.4594201334062022 1.4919723408364693 -1.9917590570565051 1.456183613272634
Ni 9.000582198491566 3.2946263300417353 13.380387932063972 -1.22485297721131 -0.3773099031393373 -0.5829837578645057
Ni 3.1749473883272596 2.815948071274945 7.366982929283392 -1.4345950884685807 0.8367549823175331 0.871895277664092
Ni 4.72014008678529 6.0995376455070796 8.276912341010854 0.591248054755827 -0.25062573684551026 -0.3830468056231145
Ni 7.090417019471691 0.2845795134777035 12.684185249704319 1.1190137726872922 1.4661497233464105 -0.9618342660180855
Ni 9.133454611254562 4.677362108872461 5.056373867937393 -0.6494719713947266 -1.7432719638205527 -0.8165273424167485
Ni 2.9587976362736383 3.294757608360626 3.0973506494354925 -4.554878428805975 0.5376366971882741 1.7181808251798796
Ni 1.727988380490623 6.491028346484855 11.30089341342286 1.439218189062889 0.4729832228739466 1.4944151459500068
Ni 8.622275591539532 6.195427080433996 11.587702782917152 -0.5333424406882944 -0.12115063807010748 1.9790583216603852
Ni 2.102628571536493 2.6957815243760184 13.14471521858674 0.6425449052575901 0.787868026808843 -0.6287360243989559
Ni 7.007739809638851 6.493719552022115 4.407849595594305 -0.25768547190576907 -1.0295170140770398 -0.8244594527796316
Ni 5.015422534061701 3.3544517353648065 13.110555662309089 0.10618321812699777 -0.27019645988858626 -0.13316051804679002
Ni 1.1089923528751757 3.2026471136132084 9.538402277620916 1.5064144844037282 -1.950260937812719 1.735987257233681
P 4.8571571436161225 7.654482447654137 0.500074749341427 -2.917347196258363 0.6371628150100703 1.2974264777036622
P 2.9102527893523944 5.618121296089139 2.1552102267636277 -0.07235547094427539 -0.6171123241170985 0.22916859541299886
P 6.903054727346255 7.8552538823519855 11.618993907927042 0.5445491080373912 -0.4985214763543672 -2.130523551553634
P 1.4619716213040719 2.144881436173759 1.3165414996368976 -0.9489209003905269 -0.5561211291457067 0.7993857976404556
P 8.233607374417907 1.733352037519588 11.39516531192059 0.571595313521906 0.22622931027901685 0.05067207243357079
P 3.0638109143634615 5.160034979342641 6.35666123629106 1.4136601380881266 -1.0014079145456496 -0.6344490156233331
P 6.448625449483142 5.474952912315997 6.305098863439884 -0.7031931150672663 -0.9064784149556002 -0.4930954202427895
P 3.302643684516849 1.1612129927253612 8.761117417002946 -0.08692411278706966 0.8901650225075571 1.3115125234830833
Ni 5.376531681239046 0.6220238682704348 2.4884067902379656 -0.5678726132546801 1.785979272881092 0.14851514612598937
Ni 0.7606725270646236 1.6879766242972778 7.172058068287571 0.5297341545117458 1.4573897177655935 -0.6666456549605357
Ni 3.7907083430843276 1.6260976509858447 4.296325850589779 -1.0796213869325986 -1.7530956347791937 1.5251231165568249
Ni 8.972807457023393 8.227109097632814 8.997310555244352 0.9794707481529261 -1.1285273686046822 2.1101917819748177
Ni 4.973010260037211 8.911341072714189 11.177650265350502 0.24720899785447747 0.3167959049146802 -0.3088280562178552
Ni 6.508704034421217 4.6566295115105 2.4641156127317876 2.145334134203905 0.1506090525405406 -0.8643097520073502
Ni 1.904585850467017 5.591227994762091 4.212910669064317 0.799656534803339 -0.10474751412173573 -0.11374894628939765
Ni 0.723323845340205 5.366357611525013 13.364426363891413 2.1793212897826275 -0.01970467751777897 -1.427903278270702
Ni 7.568382624507359 8.495329457172176 5.181716531409727 -0.19834698204645196 -0.5121771194645889 0.5936767188019775
Ni 3.067955558431298 7.3930885606970955 6.5572404420219605 -2.375492090113367 -2.3537230738673918 1.6485108714875674
Ni 7.207320362443905 3.6262916256964397 7.366585343517608 -0.4097690521093072 0.437169298499131 0.1607996199202973
Ni 7.945751529181602 4.2908318529442 10.20958518780455 -0.8504057403317482 -2.0605797753746447 -0.37838899513612895
Ni 8.426202045253417 1.5331713552567485 8.814573010752982 -0.9137574651155167 1.293784767186017 1.645479026639779
Ni 8.221379736715512 5.802407924743419 0.7426667679264793 -0.005941048074783317 -1.3079746855331538 2.231804704393324
Ni 1.6626024006602511 8.158694339445178 4.258090102510569 0.7011645146730118 -1.335292142401184 0.2174435936665868
Ni 8.438317158682478 7.8879140526874485 13.612958726406271 1.1791960986041432 1.034158369503793 -0.6883660773567628
Ni 3.378316258334589 5.035798804558101 13.436231853515542 -1.1162374954937357 -0.06664993591906586 1.2095520851881814
Ni 7.4380701389627335 0.6176513625490949 3.6958231872969263 0.871059669136674 1.7441749352507963 -2.3977907536105674
Ni 2.813238111692129 2.220722796401502 10.929049450569366 1.3098001687776668 -0.435913828825475 -0.8585013728556892
Ni 6.824887865469591 7.7500718178521595 1.80068656268321 0.4424362033250251 0.8277484079435486 0.6133901380705049
Ni 8.135186143340956 6.223839459451065 7.517208460399189 1.5093578833027683 -0.9569509697838551 0.49649956082833197
Ni 3.0369363670819687 4.567585303211459 9.207621235214168 0.5207257803655484 -0.013799881997569782 0.6598792827709796
Ni 6.422547949137773 7.527414411990668 6.900194735398992 -1.8205510973186905 1.0378826124329157 0.5967314464679013
Ni 1.9210050173511388 3.212764921190574 5.458905075533881 0.41679047773246286 0.8864970867376669 0.04573246904010833
P 9.13175737013176 3.8292010215876515 8.277393382279362 -1.9156256071270363 0.39236782591372427 -2.3632022170024203
P 3.835830576691635 7.331969126230673 9.878776014329466 -0.2915181041844979 -0.9014997307940861 1.4941068706809686
P 0.5415905799883494 2.4659975812033146 4.126886799802041 -1.502117399690271 -0.3581657261107187 -0.69191934192566
P 0.47962158725824805 4.488818311877009 11.365768345511837 0.9795774489341194 -2.111016591868958 2.050411062371759
P 1.3814698807557078 7.822800006517635 13.351841461621179 -0.4272337845529739 0.2614166568134272 -1.3492732871716246
P 3.866287146674289 4.435050463268468 11.43727189500252 -1.5817308377485404 -0.4379732824576651 -0.2481639055685791
P 5.459265153208553 8.335601251173243 3.500458543932822 0.7313708630530631 -3.4130350598186774 2.0514693284329444
P 8.529977556336556 6.672933211353547 2.8626250152588297 1.1866414991385952 -0.2062353836555932 -0.481717517423151
