# total energy = -340853.74160435965 ev
CRYSTAL
PRIMVEC
9.41613903140878 0.00000000000000 0.00000000000000

0.00000000000000 9.41613903140878 0.00000000000000

0.00000000000000 0.00000000000000 13.78147127038193

PRIMCOORD
 96 1
Ni 5.1277374143253605 2.826414203610196 11.477843157548044 2.561246580206789 2.671765192484347 1.1705643910710744
Ni 3.1359321095987647 6.624771693827007 9.049423727074979 2.0335186574917947 -2.689686038628826 1.5101996624777732
Ni 3.9898817580458243 0.9213767367985839 13.126809665107777 1.112423006843652 -0.5934095811835199 0.3984744530320944
Ni 5.548751822544183 1.3456510123488907 1.4208012179311598 -0.02477335028993798 -1.7648718014785154 -0.5646908730925888
Ni 2.780246873956034 1.8346876089058042 1.400418101777302 2.735415679455457 -0.7070937356732532 -1.497544435607608
Ni 5.4897126308387785 0.3521174605650309 4.654499215829584 -0.08048324225773235 -1.236871856049057 -0.7889769436023056
Ni 9.137769709891051 5.622536687967395 10.49712591259516 -0.8535355442099816 -1.1336965715104474 0.23008390813841664
Ni 6.191563385566957 0.39486484852423215 8.438450013333593 3.50414955653801 1.2942941027222676 0.12980368575941514
Ni 2.857233226648758 4.344437057005198 3.6652509489173557 1.0096500999497837 -0.41350435078202336 1.2795781366683319
Ni 2.4390248278602726 8.545645223255868 8.726358821866862 -1.1641785421493887 3.1672003166039064 -3.1604424290547826
Ni 7.308854194209397 7.643541439819743 10.614902979557073 0.9976844429474753 0.7982845941564767 -1.1992203642448702
Ni 1.957558807081851 6.252033830404613 5.481676897792306 1.0890645346233694 1.5952712954371364 -0.12557216417657083
Ni 7.168271238521729 8.21932892524139 6.8057593020837155 -1.8222498251773522 -1.9374234197284181 -0.08785742323461643
Ni 5.420061450448847 7.844604256484095 0.7817457527666442 -0.8580604286635287 0.6695877683079952 1.3210006654791766
Ni 0.2622705451878983 2.3892040362632567 9.960668698279461 0.3884468935927633 1.598743570256453 -2.898146454960196
Ni 0.6693810825180121 7.897400548013951 1.1593432855413757 -0.6205640301111248 1.157471305332542 1.2038354944193783
Ni 7.137461631622194 1.749123153558595 3.2026209726504953 1.0387745281195657 -0.47168224467433606 0.0571589657094951
Ni 1.7266844942549302 1.5014127841496545 8.034570153303978 -1.7003656513753296 -0.155660498921519 -0.4486055653605306
Ni 3.88648313537963 6.277570399448482 2.40924911302601 -0.6563432445932632 1.2289016933593868 1.1894573713208354
Ni 8.416615870155525 2.2349017660118293 7.526529904960805 -0.07296405106255176 -0.13452577382543285 0.840923511872926
Ni 9.18902175462032 8.860850477217333 7.4668701896934575 1.342214066331998 0.5185781378949262 0.8394119603244059
Ni 3.540797839384609 0.6790881802419516 5.961106207698975 2.6182080851934972 -1.1527667007680211 -0.009275254654338864
Ni 8.511097409162227 6.578340712280062 4.143206633066148 -0.6262855059759342 -0.12201555717356405 0.9986815167534219
Ni 3.233982365297069 3.247692263721801 7.600853373536418 0.5508747931451029 -0.1418225645971622 -0.6835005217343455
P 4.012894801830195 5.148999056250529 11.85724670578834 0.46050951588696815 -0.8419360122978403 -0.15969327422999594
P 1.8213449399031636 2.526208859120294 13.354686820882092 -0.2798306405442406 0.6228991060022047 -0.3359292833100215
P 9.067346406100826 2.795679925822885 3.713293031851987 -0.8285757889408504 0.7972183576754915 0.43086726754050314
P 4.899782104597112 8.42686062941796 8.916308711250398 -2.082050286543595 -3.133080234991746 0.4926349356666031
P 8.321475201416865 5.199384816189223 6.365744066920343 0.2342346970819966 -0.04357659903937011 -0.2990372953796786
P 7.654746645263033 0.691557973156699 6.196714955229163 0.2430055012960912 0.5008822632770599 -1.2743040327535862
P 1.5909696824447255 6.851229837449807 3.0562621572830673 0.6867858773538366 -0.034014409272231746 -0.6758188368193715
P 5.607188381351796 3.5216736610187915 7.927901305553368 -1.2024242158941487 0.3495633291536883 -1.0040713203104257
Ni 6.884063914240357 5.558431613464941 13.097028300590095 1.3616706323947128 -0.4559218965162858 0.23724134511880432
Ni 2.561425219084921 6.6173329439949065 12.518247424571456 -0.7298225447293366 -0.15392269029480588 -0.09968629754874445
Ni 0.837562741696675 0.09766890206767151 10.144016932590484 -0.7185189467910593 -1.3843279647829128 -0.2652758826585173
Ni 4.771741446094707 4.192413492398541 5.692147378959508 0.10756647162776957 -2.0398427999376096 -0.11990879524320637
Ni 9.09057602108284 3.212654810398705 0.9188824015700733 -0.6344754979858943 1.4335823309333502 -2.4279533932368764
Ni 6.82392303426868 3.1257909278656353 0.218779282245487 -0.9357511957777884 2.314836166994207 0.4953309944415276
Ni 9.073504561025123 2.1108535504572856 11.95047872314603 -1.4151881446968788 0.15827788193970804 2.749058467049872
Ni 0.4358476520295909 0.7276792240819141 0.19781236547189487 0.5366547928909791 0.44127663579928517 -0.08982585981489692
Ni 5.5655313822920345 5.398479659796728 1.1401729680943213 0.041617932651102515 1.094683423472044 -0.8912492567106715
Ni 2.8006328149515998 4.510142271619504 1.3908673119612271 -0.5673689341453841 -0.6765096922388091 -1.1229071942044273
Ni 7.456922980424305 4.895252941724656 2.6420047704307206 0.699983349880717 -1.4434620519409078 0.08578280009377484
Ni 0.33272680546472183 0.34054125924403833 2.7649625970858245 0.8424306925460716 1.1157993795150525 1.1427774507657933
Ni 7.960582840891664 6.287683332764527 8.211220687924401 -0.0458823643544113 0.11301078257179246 0.06136297648851368
Ni 4.761826251698249 1.0325267251126073 10.582460614150088 1.9166797594231637 -3.6170618658587252 -0.2307660218071058
Ni 1.960232990565796 0.8462472467221763 11.953938212624909 0.10088880249727786 0.784860350330771 0.32093409545276985
Ni 3.1074106244830277 8.338396003250136 10.819764266705311 -0.08014925595708132 0.4550672618254744 1.7503039309666695
Ni 7.39840167636544 3.8970857079251298 9.019270425065693 1.0605587138741928 1.174670442819648 -2.4985440589712455
Ni 4.019344857064358 1.0846356384934215 8.160216287651568 1.521440011278283 -0.7263158171276588 -0.11550912351361398
Ni 0.8594524400950087 5.775426537364626 1.2086028752523246 -0.600373928316495 -2.5812561905594964 -0.5659895372993543
Ni 4.927305478975884 3.4921728974441457 1.7714836589083274 -1.025370338898518 -0.9144557767341219 0.7103538944817638
Ni 4.184438022641846 1.753200341757708 3.392667848266019 1.077060568183958 1.5071238517659271 0.13024128751746603
Ni 0.18238025521894652 1.7205545877477184 5.467453819790548 0.7795669631423154 -0.827421363621433 0.32997717949164457
Ni 5.498818037278831 5.9373464640896865 8.755437742413054 0.7485471177220334 0.8081437463387438 -1.431365782898006
Ni 1.40559415340098 4.150474009167939 5.878197103557655 0.25861646836047075 -1.8166080535105424 -0.7367807212147246
P 7.322338105297457 6.680091510616361 1.4335214801440515 0.01999212685121073 0.6961881445043429 -0.6734400521745499
P 0.17310441666248824 4.6008856034321 12.56853619827816 -0.2923683679999352 -0.010208822212201775 0.6537991380151708
P 4.791242270021644 9.005510621104115 2.739687796706934 0.7289000329150672 -0.02205723691035556 -0.2971832728900753
P 0.13437395361262117 8.385740350282795 4.676452943973308 0.8135844577383409 0.9474502293822715 0.24812791012432103
P 5.904493555021081 3.4482277766005858 3.644744481342231 -0.5104886760185725 0.4393992162709142 1.4155576122211557
P 1.136885793959655 7.096228358818691 10.291726963908427 1.376579174075429 1.2913437618446921 -0.48236183587536924
P 8.059075655124282 -0.07162103667458404 12.066587250272185 3.594953206885144 0.8925561484475532 -2.75226103314757
P 1.7827387698884658 8.490419567856794 13.322038242030393 1.758924582756145 0.5170452461901676 -0.8832456696799047
Ni 4.706977241860295 7.965526313881351 6.069773160151322 0.035941965312247776 0.07106117761288408 0.8368825090343328
Ni 3.9301834366084623 3.345808432393301 13.329907309416074 0.1429296816184119 0.8911127311328072 1.5073778767582622
Ni 0.9894761374767053 6.551485883772276 8.045071973161878 -0.44602957710323826 0.31621560693117795 -0.018049915523175367
Ni 0.00892461657071478 7.62123460646247 12.281592543995261 0.35689251582524983 -0.4061826203096295 -0.3667915201065167
Ni 6.0610368663611665 6.498378859654498 3.7749791002381548 -0.07095319128011006 0.5148700929157197 -1.2393033483086848
Ni 0.5536181276941836 5.034753041424107 3.640265224006624 0.34540996910694705 -2.017459547146403 -0.6899848439071086
Ni 6.18676115466269 6.030227259461633 6.132506303197401 1.5971785397621783 -0.12201709983546083 0.8436162282137406
Ni 1.8107706157747476 4.411244563408681 9.340667732051957 0.9437828078330133 0.5460640020200208 1.0690960619212426
Ni 7.513523392121463 3.195809337677658 5.440318390339731 -0.1507838875555081 0.6726247553621062 -0.8506682499645156
Ni 1.1380251467820401 2.6424510954206464 2.306811878154572 0.46192876483199796 1.4918173033158435 2.68880646423735
Ni 6.7965314858363 1.1862075301881887 13.006414911496085 -2.1968731826234618 -0.6566810875486562 -1.1548156128772498
Ni 2.806244833812273 3.3663638638913707 11.240856828878062 -2.243941082645542 -1.5153069017973515 0.6189681463789146
Ni 5.769221301745191 1.6288131451981571 6.398930307310539 -0.32258294391010256 2.1912087852488327 1.5132204515819683
Ni 7.004703487466774 7.903276218767408 12.884490035292352 -1.7961109619984554 -1.457945076048431 1.718297553263402
Ni 1.8255068733535285 8.858458777904227 6.251110107165969 -1.9861100863008438 -1.6479056338034008 -0.531064186177079
Ni 2.217820889815082 0.9090886753670764 3.8261774729749636 -0.6732145664273051 -0.10443538219795563 1.0732206256125776
Ni 6.610562740033792 5.359864073643003 10.838810291117195 0.38790130550193835 -1.0254852672098276 -0.35264711028533463
Ni 3.062570970431811 8.854795899822346 1.5492712523732406 -0.9812522655333811 -0.38553460504197473 -0.40568202652412716
Ni 0.3354198212267227 4.178581184166445 7.818504602326353 -2.493312892479293 -0.040956387807703665 -0.2806338531718264
Ni 4.223044192656543 4.235068602195267 9.732461036025262 0.9952532077981633 0.3827403301262892 -0.7586690366473837
Ni 3.154519568039987 8.112323921327482 4.126186020159181 0.14718125780591426 -0.41846940809678257 -0.23359577794641706
Ni 5.0640466499401375 6.957255562904807 10.936865254885014 -1.1038686895157375 -0.42496812844724874 -0.29785947302149346
Ni 7.319174282584058 8.512782898048235 4.31573666524793 0.7094205840342169 0.8200081018764975 0.41748004760031976
Ni 8.031316877269813 8.762432992096937 2.0235471093899005 -2.821619112026418 -1.1370472331502355 -1.3399759210300988
P 2.536161718072864 2.2744118853732127 5.596779781270272 -2.035750632146107 3.0337238099785946 -1.1416405089478725
P 8.498677521784327 0.7311029322324858 9.095963935834648 -0.7749068386624848 -0.2890112786022442 0.04763559960009215
P 7.975027198160577 1.3570633728507964 0.978475262250322 -1.1806073771293732 -0.09938779247171915 1.6285884215320277
P 5.019414150947536 8.742122380213596 11.999224191666052 0.4139056999855001 0.661689339396525 1.8810388702911025
P 2.8644648214222426 5.291606481829212 7.463356086608218 -1.1340069036620148 0.5748230764305843 -0.9284916860018977
P 7.228638105830076 3.321995016791552 10.886383450328234 0.3632529108256389 -1.9296651159392382 3.4772414192932564
P 4.324333600180472 6.130989363199994 4.972961512280826 -1.6114805582071472 0.5287455653462313 -0.8575145834623877
P 2.9685790706545636 1.4628913593862083 9.894600358789674 -4.4015540342168 1.202789312543051 0.5993323744258581
