# total energy = -381165.1364591095 ev
CRYSTAL
PRIMVEC
9.27992735382339 0.00000000000000 0.00000000000000

0.00000000000000 9.27992735382339 0.00000000000000

0.00000000000000 0.00000000000000 13.58211171175097

PRIMCOORD
 96 1
Ni 4.017141297665632 3.2127757654825775 12.427536559529575 -1.2340683251619906 0.3257443723572197 -0.43404926481291056
Ni 8.099910240680702 0.407437988880185 11.126207724521894 -0.6490649657642951 0.4746806651810276 0.7799539141680889
Ni 6.396143441582749 5.036346425081271 2.072834144879883 -0.08748487038654609 -0.3939176868993474 0.31633979121386807
Ni 7.676290842694773 4.200039383382836 13.485217193221132 0.26313286817358555 1.248840341264843 1.4397172401864946
Ni 0.8197971231688551 6.834852001239801 10.763578792250064 1.0586033899200349 -0.8758630040625884 0.12852301927477866
Ni 8.560482308884596 8.138533297799531 9.636942731305462 -0.7074588323221558 -1.25108594276591 -1.9175588195940074
Ni 5.364670250373 5.3568936713567625 4.05929907906523 -2.2207204215547045 0.7643282918156902 1.1969950744587772
Ni 1.124485901806104 2.340045009418116 10.85170005320506 0.9442072969649415 2.424568021704412 1.9146298188726703
Ni 4.611696955173144 6.586845946097871 9.103505602507783 -0.4844554851796043 0.13793479950698181 -0.20849332645183447
Ni 5.523746762898461 8.02587498126359 5.729355614518335 -1.4517772566748224 1.0003977281135803 -0.46648038875842246
Ni 0.20171685014086438 1.5974930724941965 9.162682770441721 -2.5209828475907354 -2.8536434874518144 -1.9538944208002482
Ni 5.938615189509315 2.9662452187697435 5.925059999808817 0.21018948320733477 1.3753375883588443 0.6775108798098138
Ni 3.7864794265109905 2.7177009278486475 4.584071539811049 0.373778235836995 0.9778401545280385 -0.4396172458189913
Ni 6.272674009827338 8.447879671912018 12.99314998000148 0.9502725293224151 -0.6506953022788665 0.24091365176406898
Ni 1.8968820846920982 0.6509488472733489 7.747589451572639 -0.5999167861744185 -1.0136569071163315 0.6670629450036125
Ni 7.0392423984147685 0.04663070632301889 2.966006724640009 0.18072104143457265 -1.6976058292420055 1.8517545195046883
Ni 8.16973241313675 6.909499735853896 7.479587009241942 1.6914655206722224 -2.4517582089659578 -0.10161693891255404
Ni 4.027906013248968 8.898095341330565 7.826230338872517 0.05571580550506534 -2.1891089652970104 2.939525275017299
Ni 5.361626434242539 1.7051959078909122 10.757493943967313 0.7552659245031057 0.23567502907294896 -2.1741505442149656
Ni 7.759318351594861 3.0170064207015055 9.874330693714242 -0.2612225385247501 0.32612926650046414 1.1577626113207158
Ni 4.213755115824362 6.896990393951882 1.5978540616633272 0.16221629776216578 -0.8183204297614293 0.26320048818672737
Ni 5.496677215177264 5.1346115744881144 13.55675336823601 -2.1120491468985305 -1.6279230200338866 1.6436694842348663
Ni 6.126747154182555 8.069425679739965 7.99034306790408 1.2843105091469946 -0.6796451525439973 1.5844088988013358
Ni 1.1204584133895803 9.102532138141667 10.703124706329685 -1.9224279747608508 2.646647571481113 -0.7207372945986168
P 8.666060040946327 6.3267945454152805 1.1892254581199164 0.4102552477171064 -1.2315419591957113 -1.3846503811193378
Ni 1.4563082596624168 7.70858498944478 6.550054746613655 -0.19172819117835369 0.07006976023389222 -0.3297961738290901
P 7.6749174134651765 1.7369610987889788 5.008254229379657 -0.4740774843793899 -0.10910836219359274 0.05346454757704341
Ni 0.08925341207669077 4.373611142236892 6.971983341858822 -0.5955243135336776 0.46149116307394716 -1.036775752521982
P 6.736299174088921 4.120686725664647 11.614145370125527 -0.5997740899489671 -0.7070428278306597 -1.0462291846253982
P 2.707669326516246 1.3819482027923595 11.794433940306497 0.656996819016862 -1.3726075910221909 0.03947491816617072
P 7.826811262316928 0.5286551822976002 13.274680700243715 0.6953599921760927 0.7924715870191256 0.9154988732866555
Ni 9.282711205181357 4.681417048429695 11.724431737262243 -0.1649126136474063 0.5005531620724153 -0.2855626579320114
Ni 4.404643218884025 4.339210452006354 7.2341449979928365 -0.47785752024711253 1.0133216352641 -0.1040466313999692
Ni 5.701670807621986 2.9024549990112543 8.573272832581589 1.9094685863867051 -1.9031660412074447 -0.8797733948605881
Ni 5.962473882409967 0.8839743158927107 7.042515428747736 0.5185405997887714 -0.2768651301580135 1.4630111777174286
Ni 5.10970424981081 9.261320972923091 1.4124856593182922 0.45950575721280223 -0.15347120457968408 -0.022606681655922358
Ni 0.5346314554317967 8.541783255522166 4.202142214892477 -0.005275646576642527 -1.6097311796162082 0.2466173870170656
Ni 2.185459981670529 0.8312698971996115 4.2906977764416965 -1.0429921657453394 1.7912752311727085 0.42832727472746873
Ni 1.9720216554492245 6.520884223368261 13.026793428170294 0.02267147345558676 0.1744580912439963 -0.7108490889506274
Ni 4.869521173321254 4.355264726109087 9.852843950212817 -0.1804032530838377 0.7841540682923657 1.6983843592792427
Ni 0.05973025159667081 5.1307047251255415 9.34366455118655 0.1891797137248871 -0.39446044677669484 -0.47993651426332823
Ni 8.338172372234267 9.025610821356954 7.235720729635983 -0.1446885732910476 1.7291550648031964 0.34497082468699947
Ni 5.938429590964775 8.238691552360685 10.640212367686873 0.009100419639371424 0.62133407550793 -1.4439677879327326
Ni 9.103608609700002 1.7197653936373232 1.0469632457370806 0.1585578750739721 -0.00906082465068762 -1.925840342876509
Ni 3.876903037411008 6.505340345263014 6.002165987145347 -0.881472636939882 -0.1657875600531919 0.5116538999712672
Ni 3.1730019973875985 5.218864033782168 3.232515098687157 0.20423429406516438 -0.6422582272551068 -0.2778362358220312
Ni 3.0568451482870733 4.311138672144639 1.0096347384664197 0.9303181976876752 0.3794179506212756 -0.4140399115705192
Ni 0.649503962604103 8.987739438343514 12.951928543259086 0.04508223705061913 0.3349689762792812 0.2684661074610408
Ni 3.9158508919827826 2.012407898741186 7.596528940185872 -0.5141213876751533 0.6132037330913117 -1.8511307698777604
Ni 0.665837562516369 4.795170396378423 3.358855739926607 -0.90381860873525 2.959564195946045 0.8866647226637827
Ni 8.283253762904803 6.899004138160144 3.234702377534564 -0.07343790537517675 -1.6710946703253542 -1.089209544841666
Ni 1.6445608633896078 2.9434537175001987 2.953891779645143 1.4963858965231325 -1.7023068342621004 -0.8090827132132453
Ni 7.3466585476640365 4.616782355293547 4.378166658512633 2.7704122501353 0.3298277983979739 0.8981758086271758
Ni 3.440727897886931 0.2141909283194156 5.930465557418552 0.024748153478957376 0.009088849675145637 -1.34953991056945
Ni 3.6043794145353094 8.347600778296913 3.702361526161729 0.7909579785880765 -1.152988329860524 -0.0710398374566454
Ni 5.40164148044542 0.893819390687849 4.913695482907282 0.5745423119653718 0.2594641610727467 -2.681173887392757
P 1.7583791708289254 4.082267826944811 12.724767988647198 0.7172601346832937 0.12662014582511097 0.24665286824069133
Ni 2.0168901035918334 5.456485850357068 7.811493814436021 0.6452347933849275 1.2716578533799907 0.4098019622297716
P 2.202859845221179 6.5755337148081425 4.524038762586777 -0.8966256905312364 3.5081239678047265 -0.899769892587173
Ni 6.292922811036681 6.0483039293326115 6.57011516530029 -0.6900594058987859 -1.51111240410003 -0.544694375366004
P 7.208703149507257 0.731570071043472 9.151002126041082 -0.6895752671735157 0.3125214459090424 -0.9533984765459063
P 5.903091628084308 7.39934069453179 3.5631310660039586 -0.24957107032875084 0.5462298381739238 -0.12259071295074372
P 2.3412050003214926 2.5775554668662934 6.060338138960604 -1.30260416524986 -0.7238655558149534 0.5091838411642199
Ni 9.06241501273929 1.385029138631728 3.200108664817704 -1.1247329345592565 0.23221098178374844 2.4605740074853752
Ni 8.487328642554052 2.4327607623432055 12.263356087029258 -0.07579689252565656 -0.3282681672203379 0.0767649128658807
Ni 4.437122964178571 0.19349854658862145 12.310989025492795 -1.371310212367006 0.013411645420215614 -0.21901093815370667
Ni 0.5133117506204565 1.0834315037537974 6.003211834943832 -0.16760712976043393 0.2056975088742522 -0.9899104554290113
Ni 3.5552329199410475 1.33804486708136 2.523434003285629 0.6939993643831402 0.591398207180446 -1.184897776974611
Ni 2.185227983489854 1.824739930429297 0.3229878671361963 0.31617755460439095 0.3267255053235663 -0.03203980204436417
Ni 7.61248206308183 7.7101904168550535 5.120795618832537 0.7179026533632992 0.7148841782519495 1.759211003648312
Ni 8.412615948449368 7.07335541090127 12.490585313102626 0.09837503493648865 -0.07152860416760584 0.8589736845064175
Ni 7.10926872926981 6.078482252674859 9.47378119481467 -0.8700386840713275 0.9593431241651156 1.3582590356100028
Ni 1.6515857683004567 6.491791651511575 1.713396579581424 0.0710740331286905 0.9095413701516402 1.2198735217188474
Ni 5.957304962944519 2.059225131601468 12.832039307427856 1.9064606527983166 -0.0250595140717891 2.030334603336858
Ni 2.99390868183347 8.647620825546252 0.49258410516619966 -1.309768544208783 -0.0032701861108395294 0.40985646961679095
Ni 2.9769542547897165 8.273444879825849 10.700245144911143 3.676176926853327 -2.0442183032974857 -0.24778749606576683
Ni 2.1687653925891324 4.795560153321958 5.416043927501745 0.25253092428802315 -3.2386528161179386 1.6608128287833719
Ni 6.179262262360223 6.265760464043214 11.897535787784058 0.6104217994708003 0.5332894759631718 -2.5373492047639012
Ni 1.4851502734839739 3.0407444745482057 8.088527481944048 1.6571988861798685 0.09578850515623502 0.24060640493629532
Ni 7.408871179793933 4.468349919297471 7.992271436781853 -0.8405820693731071 -0.4471621480457847 -1.0640158191848577
Ni 6.706185810237263 1.8267165549286508 1.7630395502823313 -0.9442168100466383 0.277811810341999 -2.6984923240665464
Ni 8.081619504116258 3.5758065186033354 2.125234181959936 0.7770742786274488 -0.17042248772204197 1.9897541108113344
Ni 7.959319343191451 2.2051983868823863 7.221798982810019 0.3870430712667012 0.5129769896580649 0.2749370598973652
Ni 9.242324961889397 8.415919602542184 1.669146174592134 -0.7295960305408273 0.5259803438962684 -0.6122251712281263
Ni 0.7328386370954046 4.362595868618428 1.2551537731115094 -0.5592902709023078 -0.40174335359135327 -3.42913196538054
Ni 6.607670102795289 7.269681551315961 1.4596555294132005 0.5400229380322635 0.3986127783821716 -0.47320382352518503
Ni 3.117211074898795 5.297873334192958 11.279182684895593 -0.09321560222273624 0.7045270033873415 0.487737755475302
Ni 0.13040060940126755 3.1682413947201407 4.813554860207859 -0.3484063327311096 -0.04605359982495294 1.0503306083882815
P 2.642357198692527 4.218627077618543 9.527729123756188 0.2817054889694503 0.09898695748887468 -0.5623154308818767
Ni 3.3683166257345465 1.1586267540742858 9.570607955501325 -0.8296844486239969 0.019551953989998583 1.9501861187107252
P 1.8237376982887796 7.80586646656556 8.717881938560136 0.21419449060166984 -0.09292815288930446 0.5806882769621096
Ni 6.094193169470193 2.914992180694949 3.598688963159705 -0.5911693789990915 -0.28325175041064765 -0.26027303012728725
P 4.6422464756044715 2.768471409707637 0.9913839055890529 0.3354412879300094 -0.594163428630409 0.23470263785735063
P 1.4645581149672315 0.4401033327192716 2.3291559428099387 1.8735253355228765 0.22630130116753286 -1.5217824822193662
P 4.3779819879608155 7.03625426184767 12.978834764261089 -1.1168530175905476 0.5037446724265195 -0.11060217313029984
Ni 0.035230315724633116 5.942605558216932 5.249459025856908 -0.2655988132155748 1.2085326427847316 0.7072588004962077
