# total energy = -340859.66774049104 ev
CRYSTAL
PRIMVEC
9.35045063699543 0.00000000000000 0.00000000000000
0.00000000000000 9.35045063699543 0.00000000000000
0.00000000000000 0.00000000000000 13.68532966528057
PRIMCOORD
 96 1
Ni 2.347468043402576 0.4041199327962468 7.766123402071682 0.643356345415292 1.5972826694402105 -0.29235988335950297
Ni 8.371374333991632 0.34358698522568587 12.292437201609932 -0.7753264426984067 1.0446106751853688 1.7342985566773486
Ni 6.080990791951205 7.060974125245439 4.724079571464537 -0.6489950317583081 0.19636954660510697 -1.8618651255761292
Ni 3.036858070663584 0.5223367456171316 10.782766733424074 -0.016419064787971723 0.8401580944618112 -0.025421525396898157
Ni 0.46649865932977047 3.1330555071932773 7.6343886427120164 -0.07626843284543638 -0.46211722669372024 -0.5664302243811987
Ni 3.800574830328804 6.65616506423455 9.905605630961759 -1.2981918951147773 0.9556952429998831 2.0167540364389462
Ni 7.59073325860725 3.3068429834122592 6.660376507217925 0.4349200974536381 1.2101760919254254 -1.3538303104146878
Ni 3.2332736375126063 5.814689956767917 1.7919708595166934 0.339917321423492 -1.802513008870057 -1.9742393030051872
Ni 8.56177756105755 0.4833472363984772 5.177174359753743 -1.069200962930223 -0.5251660755250891 -0.8792499182569503
Ni 7.612229944705789 7.139891928930374 2.8059851580373865 -1.2060535851166199 -0.6571734538040424 1.3321469119039833
Ni 1.3894863205432544 3.704152982982945 9.668877466123773 0.02151987634964681 0.41709875300150107 0.6129491938783443
Ni 7.325152408125827 0.4415871886452439 3.0017948156827616 -0.5368579100407205 -0.46853315752239305 1.6659339520600212
Ni 0.9667056933377628 9.014582485375877 11.480253315923328 0.9952267254356022 -0.594241333056196 0.20481407782803437
Ni 5.574233767246376 6.180040115936339 0.6172943123875098 -0.004409184811289181 0.8208964180187216 -1.617849952068601
Ni 6.116438350454711 6.024392514024083 9.966929626659304 1.0448551870960068 0.8084075415230917 -0.44502067622274966
Ni 1.0619213325467316 0.6169838774251473 2.4185810259102816 -0.38980983537856095 1.0520468197484398 0.6258779861248704
Ni 5.566669252651458 4.0770676567462845 8.620485300656629 1.3096829264735121 0.32064304657491227 1.0252448690642473
Ni 1.3078475357123098 7.577119002426531 1.5238064795141624 -0.814488714720165 -0.05679258350901186 0.512969276348581
Ni 5.355657632300992 2.085459065078456 12.71341132174529 -0.21750272903929638 -0.20895278258675629 1.2143374223919667
Ni 3.3712301867504655 4.2156132843765795 13.372865881174862 0.8013007552749812 -1.4578401750394505 0.9363512912556327
Ni 7.9695293658442665 6.3882746524367535 0.7808112535866418 1.5617762490034846 -1.0068167442660467 -2.12094182140247
Ni 0.229547018720685 4.987399482973091 2.7127882811288413 0.09790272328576043 0.144091563136997 -0.5647479515827694
Ni 5.136342811752395 0.2918565519192243 2.090393297898899 3.446354499906413 2.501404668348492 1.1914849432738257
Ni 1.4591752294133753 5.555168198322967 0.43056207225603693 -2.6542603508313642 -1.1400178857427852 -0.07202225597457274
P 6.641148240452795 0.9315105970024433 0.5789415688597256 0.2784131913714237 -0.871179739654306 -0.4208661904637332
P 5.816709654113408 8.057750867949403 8.616187833527057 1.545061764462281 0.6217508513303744 0.8733410089716831
P 2.723561870394929 8.298487570991151 5.324386920113371 0.5231315615935636 -0.3540362773233774 -0.5980406521976281
P 8.601161659294629 4.824926052069129 9.44796839373533 1.2114385035776167 0.4048327911499544 -0.6977143513408822
P 2.8161500329646247 8.214090403211502 12.442427780864676 -0.36176167099209305 3.654978438398841 0.06474449136623689
P 5.257328293017725 4.187346871990376 0.9948411994145365 0.8530323793213179 -1.1312907902824323 -1.1941136391459242
P 6.5325895081326415 2.1129680909601003 7.946851717825655 -1.2966119522221669 0.05876307697182138 1.2745292613905146
P 3.0207752955050426 2.5903553500992436 6.294006213881017 -1.0740950577977308 -0.13157851827165082 0.925642646588877
Ni 5.2988816958110725 4.9635932355581796 11.98895055914292 -0.9065064399800582 0.17084929084681544 -0.5887833952654182
Ni 6.692519616453391 5.970748978509809 6.808875689590235 -1.393532514100316 -0.595005207805414 2.024426979603172
Ni 5.052955492645493 8.401697845526023 6.1935561923849844 -2.4556336327609642 -0.3469976253090411 1.1165077184359866
Ni 1.5691271788838912 4.4372189653402 5.833180472974902 -0.43828335749891617 -1.1922804425919273 -0.44373332486989386
Ni 0.7663386260340893 6.586934327447434 10.540194536915104 0.5261145554812875 -0.6295418081297028 0.36069594873174016
Ni 4.556998238468639 6.695277999402094 7.809546894999744 0.11091739037787349 -1.565340055095343 -0.9301333353703788
Ni 0.858571471478189 2.1023459789949244 11.697904691297094 0.3317286149651125 -0.23595013711120655 -0.15326500210614893
Ni 9.328720226205151 0.593060749376817 7.437990841719274 0.0691863291876744 0.9797509983975061 -0.047587777081292235
Ni 7.978571251645608 0.6518507729418245 9.278009927067176 -0.08768515932281028 1.5498265328407759 1.362280240954254
Ni 3.7404140306950513 3.2959123065748552 2.0894900443638322 -0.015792744057882478 0.2242539317202009 0.34560460161625645
Ni 8.665277699563301 2.0312358016224206 0.6061139785171216 -0.7259468638240143 -0.9703600441009094 0.16064226840682658
Ni 6.621306584123478 4.926303638271981 2.6596347092298624 0.26078313699448635 -0.061147003822965666 -0.5579882642614326
Ni 8.420931722561557 8.81711031760074 1.3065524982940204 0.2475077600418189 0.15393066071460587 -3.075753890466451
Ni 6.983112922486616 3.8422591394315813 13.04157193344972 0.5118816997113571 -0.0580555093818355 1.0007381421721346
Ni 1.3316724840285676 0.8070832148441729 5.437742433629066 2.9976491757432244 0.7732348502767006 -0.27167253021348053
Ni 8.332626066400357 5.9931059060703165 5.290912306701988 1.7313423022625019 -0.890146767675112 -1.9844982617290337
Ni 2.731238590397931 5.033291494878975 7.856515143778156 -0.15278394870467235 0.20803978385418365 0.9257046101750638
Ni 0.9680147564320627 7.987931052769853 6.652794226766727 -0.8429744808646837 -0.9492749412958362 -1.3869492044558434
Ni 0.9679960555307155 0.4708353983521725 0.07902533386768133 1.3451420386120705 -0.4528967365367168 -0.5143039359996046
Ni 4.453395245005478 4.871285586508692 4.134844091458277 2.580993680926729 -0.05618786004547743 -0.5343865656820926
Ni 5.2001876889515355 8.941172097137674 10.509033225000364 0.81158748191297 -0.4539953689175343 1.4877886417724246
Ni 6.286476295953591 2.4588786631781687 2.105132413295648 -3.0355518643262687 0.765341820681869 -2.6018792661264865
Ni 1.1422791056353965 2.8719628730351676 3.7828445057615796 0.6900972011152567 -0.6036556843915604 0.1651825794793413
Ni 5.030467658775557 1.3920015917744448 5.787744763061888 0.03643433156763403 0.14672488699478603 2.512898270810388
P 0.9330337854171679 1.5414778962421432 9.25490963867812 -0.03697297767992341 -0.4045512553537936 0.3244284817592735
P 2.561649466531382 7.5727429915113005 7.855296780055389 1.0309522038616696 -1.2885659419892388 1.8053800460052067
P 9.093986512495837 3.8556489847961344 13.385634856614688 1.756639386266394 1.5176162666568187 -0.3221371146219355
P 3.2030623313863 3.0412060302267943 11.544301097902082 -1.2261285014896237 -0.6553682822745035 0.5491503542548284
P 3.115841327503234 1.223066999455046 2.213423722726538 -0.9629154148974061 1.0475175644195185 3.3020947866226673
P 5.332795780404112 7.356242656615449 2.3054854549233115 -0.037965423500179785 0.6601068254007535 1.7980367182662582
P 2.4955885325226066 4.603628935977735 3.843867416947435 -2.27242556323848 0.726126326824672 -1.1078973510591563
P 9.263884201234614 8.308455151409177 3.205884297399584 1.3361218373913313 0.19398202020953687 1.6423898461914939
Ni 3.3946437152370863 5.981632903093844 5.9398027269605596 -0.23245960745944483 1.6287863964754465 -1.3821402131029745
Ni 8.18598294848675 2.5449028093750172 2.9230219439832665 3.892402074731781 1.3919880524313317 1.295152594067821
Ni 4.915064396562348 3.849842354927847 6.4881327904051505 0.032799305918208024 0.22967741672861736 -1.5565553669241776
Ni 4.932072866337573 2.2908884663768005 10.451883270483501 0.34567890649761757 -0.14854779913613772 -0.9549321395816134
Ni 7.573949199648191 8.243628476889313 10.695564430442355 0.6561095313159023 -0.9129797064092277 -2.053240561400754
Ni 8.492995645902765 6.9188005227537985 8.735195694474925 -2.0155271060103805 1.3955783408857512 0.8294419935958878
Ni 0.4741033808625854 5.588624110833002 7.60659349303976 0.10372498639449232 -0.5204866677715488 -0.4825096743071432
Ni 1.2284341581416753 4.535015328935075 11.859515075603886 -0.026665939326960524 -0.41410470337018357 0.9126572900728024
Ni 8.244124050775012 5.409394672322001 11.502053891668757 -0.5950095786807882 0.5383149542022213 1.0978906175554317
Ni 1.6570868683701692 3.140246003761253 1.1349352616763744 -1.816409050125859 -0.5493511574117249 -0.29005231827224887
Ni 3.4556741067834813 8.482672748359143 1.9524863060496094 -4.4680605025794655 -2.3161872817054623 0.0009253400277467934
Ni 6.272992946082303 2.8029191452615225 4.353371604060159 0.5038919966376613 0.461714849048979 0.7519258043862791
Ni 4.610697876686954 8.760745800940457 13.749514189892157 1.592965530122095 -1.564846917509008 -2.8770752361121934
Ni 3.301401021120241 1.2323800483259222 0.2638706530532277 -0.715092951828646 1.1975699731256406 -2.8127385217073364
Ni 2.7702860724107614 6.235170373107709 12.4765457052824 1.4798282492747676 -0.5287941591959796 -1.9344751357333718
Ni 6.82963462513063 7.7791261387783495 12.705966492918995 0.15471664695101095 -0.27401454808309583 1.8581714787746257
Ni 3.5587160732062286 2.9520214317022786 8.514204338120557 -1.0736561704880994 -3.0940411188114134 -1.6251032911969046
Ni 3.377018115717406 6.866783965656726 3.581081416172342 0.691997246351447 2.3526804915354904 3.1826806716276925
Ni 7.011846857406498 0.11324611324281475 7.214687118913331 -0.4012599861970315 -0.8222354485451194 -0.3460213774387009
Ni 4.531630465791242 0.5492969000442375 8.493854952319666 1.2776734634464513 0.8225208409960221 -0.8666276015072494
Ni 1.1432235011534273 6.559303745707032 4.373721924906118 0.14858328035976345 0.827037240809137 -0.17701325356568223
Ni 3.905776750857146 2.6261582257283456 4.329477462408916 -1.8081385825869505 -0.6314472526825319 -0.9993245496540597
Ni 0.9642278239092666 8.51896184742327 9.297634652940866 0.1142251145948678 0.29937051034938117 -1.4220221368995767
Ni 7.188710631897085 3.5232404633507017 10.434393252498587 -0.4232094938849292 -0.5320831143598965 0.2052164554727756
P 4.9479686324826435 7.178855256887141 12.000337537973195 -0.21831854007237242 -0.6556120228541935 -0.3884589777776213
P 6.491830893646547 4.970232055536415 4.8074509948052935 -0.4104794479127705 -1.0673150587614197 1.548548694569617
P 8.731647198444305 4.018094364348075 4.4748021667775495 0.4823919177823563 -1.406922562253977 0.19249875079579104
P 3.654838706130534 4.559045987166151 9.827380695671735 0.37041420446076856 0.3596739352251289 0.6133757398928017
P 8.22751765037875 7.541867803387171 6.605265885992968 -0.2132321266884005 1.6770074362653637 1.3688221558378297
P 6.91636940557867 1.4568843689983506 11.244468611558302 -0.6936391528302441 -0.14551929672245906 -0.9222266789287923
P 6.463405523598892 0.11560055672241981 5.029905696690075 0.43760124383022697 -0.332509458995195 -1.6888177986367303
P 9.198777013194542 7.412850284993245 12.396308553007426 -1.6254619600879041 -0.7538592739635661 1.032340599568764
