# total energy = -340899.09032579313 ev
CRYSTAL
PRIMVEC
9.00775413183310 0.00000000000000 0.00000000000000
0.00000000000000 9.00775413183310 0.00000000000000
0.00000000000000 0.00000000000000 13.18375868968246
PRIMCOORD
 96 1
Ni 6.475106808838756 2.0184034531941673 11.34678657854527 -1.3915239683107195 -0.6740440043071358 -0.10758292668800182
Ni 4.551555004484412 0.38130272756069733 5.954471242776704 -0.1220232704830479 -0.6179327631358649 -0.17082537958741548
Ni 2.764173416228038 1.6335651822175505 4.71742558682689 -0.4847699310962296 -0.23749974098651355 0.685447103937755
Ni 3.3334904876072735 4.223420544471394 4.719627081886381 -0.17230170702262584 0.423177097985097 0.35494541940120805
Ni 4.884328457769275 4.63466054220485 2.545796636251437 1.095373764670849 0.6100384479894526 0.20249957076224478
Ni 7.257538330351077 6.035825673133945 2.644451358798779 0.2214851107258121 -0.11726107320771417 -0.22353685104851823
Ni 5.16001977442565 4.5646612864466105 11.514879373781268 -0.027585108707120234 -0.28019676563440776 -0.44086551640379557
Ni 5.52701368487504 7.7669988768926475 12.26751324530668 -0.4320959977412816 0.2875760888176144 0.797785285922555
Ni 1.7499363551863707 6.485925121303773 0.2881301240526634 1.3304186163589669 0.4216331505367448 0.7612781921354567
Ni 2.7902238405817665 1.6355288725733987 0.37110054546421267 -0.06293057808594968 -0.019787724149888504 0.18919179790974516
Ni 0.5943361079084487 -0.030355229954921247 4.68685236922696 0.223608327716402 0.25724324216202793 -0.046042029860727154
Ni 8.538089636212248 2.327279335313592 1.381934477072671 0.3658031880513184 0.5021017375064579 -0.015524320887844232
Ni 6.745051178490402 0.7400968796113329 4.825585291316851 0.6937592233478761 0.5580173177271551 -0.05983651254165825
Ni 0.8169564407595453 7.39008742937083 2.5611296349841193 0.12415034412837973 -0.3122957030514815 0.03403497809752203
Ni 7.594725583059635 3.7418480040844395 3.964619667201491 0.5389836981344718 0.13075499392909096 -0.8925152679072886
Ni 7.436405300057855 3.849535702268683 12.471690201994479 1.3309752601933853 0.43070503093102597 0.8356854034024382
Ni 7.976951605397738 8.747105558309045 6.847393675495011 -0.22741304617447286 0.4935409924206403 0.2030119916222891
Ni 6.808411719605247 0.6051895506137768 0.42694681825406416 -0.0019208711717966917 0.42152747819681596 -0.9182833780103281
Ni 1.9083557234813349 6.329766699244213 9.165269816485347 -0.24017960181152187 0.5257913678139139 0.5656028433838969
Ni 0.1420621879409058 4.8864632954497145 1.358019791174775 -0.5229423284008929 -0.935044399518751 0.016350673443881518
Ni 6.2251506451487035 2.058974376876462 6.930965814868812 0.6065872562160586 -0.19073703090967797 0.0992741497119903
Ni 3.4888021807977996 4.231527523004712 0.5271733938614775 -1.1679675768781757 0.4696536442800815 -0.5853116346667339
Ni 5.8740193893628385 5.442034534338013 4.623359414129404 0.045280983324986535 0.9515884199203611 0.838976158338568
Ni 5.314277560406844 2.8056270997950716 9.175632336601714 -0.48462440665730083 0.09212853980614456 0.18802168886104392
P 0.172802949763856 5.494189429569028 12.353062586667217 -0.18397657225739283 -0.8121492679537109 -0.14933841335823314
P 3.941829148993548 6.058552236289014 12.554919145943702 -0.11746239058524287 0.9783618313594633 0.20628063507123184
P 2.445163810941965 8.444093723995385 1.4420261042878035 -0.5522374778205844 0.3245776057426281 -0.7915999830474496
P 6.300950894435229 7.794760774492299 5.759548852472386 -0.49490573397865084 -0.04038328891305303 -0.0022682272088864162
P 4.739456751378878 1.080263897318581 12.440959348700847 0.35626208133010256 -0.29189014281193604 0.7657526829670426
P 4.12271385557973 6.169743950750436 8.084227649227566 -0.7022970856155583 -0.19191151083375335 0.28536828253301816
P 4.6621431994327995 1.1656934355519033 3.6946428696357123 0.873972986128727 -1.0918161292265778 0.47396075629586765
P 0.2518054555710422 5.500720051165312 3.6171878959529975 0.06859111880583671 0.2087524936504921 -0.2975157165288295
Ni 1.5984709729222084 1.152830362945705 2.55655459676515 -0.6294001403455161 -0.3435016963406407 0.2927123816029152
Ni 1.9445939175252676 6.448912260422213 4.818571854110138 -0.6547082800930015 0.26116288893140827 -0.13876680848997391
Ni 5.970789689788881 5.507980300829595 9.213350504615672 0.30937390141899623 0.8499725094490715 -0.027189673040914464
Ni 8.654667987521364 2.1645182296263394 10.13125684362288 0.07954864625860493 0.9287464823251812 -0.5254509537553597
Ni 2.4165371689654256 5.297000688376951 7.04648125121467 -0.4414437575047688 -0.9211707268604522 -0.8734718781225924
Ni 0.5438683649877576 9.108820924957852 9.06627279928882 -0.023353330013959783 -0.8972489259375321 0.285045866196593
Ni 1.4164422815874362 1.0131471228166318 11.432453921482235 0.04723784994104123 0.006664556504369167 -0.6778080993352585
Ni 3.9955423856537444 6.850036550496873 1.603474780228051 0.36548411414900284 0.2625548841829285 -0.11851808554326686
Ni 5.598138909874019 7.86264320807795 8.018072002069513 -0.2652134048516981 -0.32343680726996554 -0.7073055945737431
Ni 5.304423077611899 3.0133639208343883 4.839388773432914 0.4041704749756072 -0.6943950571596622 -0.05536844946797562
Ni 0.8337423902004769 7.317133630324892 6.993720134144443 0.26010153754642945 -0.05653367342067037 -0.05826376873789966
Ni 5.200176341427353 4.523306688172761 7.140745594498525 -0.3437930023288143 -0.46384372246652367 -0.8122410563365688
Ni 8.10597867263246 7.161182386605627 9.27476086700556 0.5681983720252151 -0.10415796016685287 -0.3186077613124384
Ni 4.531440689967857 0.25849010975945935 10.33182169098639 -0.37369056121919514 0.11799846559437098 -0.007614064901832049
Ni 8.14614424738809 7.178927661839668 4.746614312648405 -0.22192502647670814 -0.45134841821299043 -0.3196259181643076
Ni 7.335014021867822 6.321191317506747 6.979376186792825 -0.1690765152171088 -1.4094036768046176 0.30467058240605593
Ni 2.309326881739255 5.150840873175149 2.5090936421049275 -0.3184208421126129 0.23633348859255424 0.4944845872808323
Ni 2.3519335578088056 5.099920040231984 11.414563621409988 -0.3586190115980533 -0.17011652644584896 -0.3300072613986316
Ni 1.0712561433926717 3.302224573730443 3.7500018229381724 -0.4218671209244218 0.29485642452911154 0.5359174005043222
Ni 3.7045919338468787 2.7597055702807864 2.689420768723095 -0.6295814031183866 -0.6454363678727723 -0.653733574884558
Ni 1.0726523452511878 3.3381294808791173 8.197792906848468 -0.03880360313075897 0.3068891873239295 -0.4462051834491541
Ni 3.6625707617825127 2.5381328392112734 6.94632493608788 0.11543533285288507 0.7062956652519901 0.23349473359217848
Ni 4.174319277821263 6.813591178112645 5.921564116134572 0.4049832006848896 0.7676283027232006 0.3068295377305877
Ni 0.8265929359094829 7.346318753044838 11.366047858765041 -0.8139169013770952 0.4072241742002664 -0.14551209763360748
P 0.12234421459709068 5.528986382984814 8.177858747410431 0.5701907198648954 0.2332273388634048 -1.2382281129666353
P 8.428510309703563 1.5848962877558632 7.872536424214776 -0.4670871691044859 0.22084336337675514 1.3425233700423007
P 1.9212097883336074 3.1542451922356074 10.29199300622759 -0.8749453773443254 0.19474460940717428 0.5227438392368416
P 3.873027924507454 6.145567139213296 3.826256063022563 0.44566833710907766 0.3201100568895777 -0.8727514550168003
P 6.91643270468475 3.8743790875963406 10.237254687170626 0.14803743515862247 0.006904440429317141 0.9386141191478804
P 6.241130400613266 7.70648478601839 10.124836116624493 -0.5024730048029474 -0.3964000870015689 0.798237028747993
P 2.4190503323107544 8.491528556169223 5.7515202413982225 0.07708681498167369 -0.25709643217151856 0.671696844231198
P 6.916829045857489 3.9774007692469633 1.6294468371226247 0.836230991493263 0.06380089650604497 0.6672897163024379
Ni 5.374728597003621 2.9676495696603995 0.5620424093086718 0.021312131214214908 -1.4239430080713735 -0.7365608918944347
Ni 1.4365295728422138 1.0278117462080119 6.974023779410049 0.15477501099277213 0.5080726103779121 -0.5666081447199597
Ni 6.697940625457897 0.6975847849580047 9.116951323651378 0.7423116783352829 0.36418982081761153 -0.4369672097906539
Ni 2.608483397372624 1.5141944271914023 9.074525703435738 0.8179656175251719 -0.28527777970174095 0.473925532182558
Ni 6.480268251838303 1.9698786827952945 2.693151780399207 -0.5187239194441711 0.016733767814913113 -0.5797169141877758
Ni 4.097591229880369 6.750726063463724 10.261749472421348 0.02977594571085195 0.42297089551156186 0.6497151977537844
Ni 8.227015862134902 7.09582212411923 0.29177736361726403 -0.6443981564162451 0.5270892606897309 0.5412889492288807
Ni 7.582457022212546 3.7960566672105602 8.124504019356484 0.7509696111205969 -0.04417438052436908 0.14552623870099454
Ni 3.038558608565156 8.5200290895908 12.366140944592244 0.5323142565340961 -1.081303916841344 0.19897767365191538
Ni 0.04313272889882338 4.754977111393219 10.218532971411015 -0.1259768558141572 -0.49930334882571425 0.5043144288870605
Ni 8.562491641597536 2.3535729690233205 5.900167097458968 0.48453493226728805 0.5891724031737208 -0.9194632572510422
Ni 3.676694919938338 2.7685601923899554 11.528537831059124 -0.22208186376954658 -0.38348929247717184 -0.5834442424406919
Ni 1.0154260845598868 3.180935167118076 12.47713538924269 -0.20599498551001297 0.8637402526571254 0.31346889742397627
Ni 3.1308700707978736 8.268955964413934 7.969094141648167 -0.31066022433058754 -0.13102547398165823 -0.0175403228766085
Ni 5.5924370016389195 7.991706306328377 3.6375039841574925 -0.29311835879208226 -0.6595483817941222 -0.49932983118827556
Ni 3.1106026244645775 8.379508128346618 3.6239247951141844 0.40460781962334186 -0.24666238132238813 -0.1624772647330363
Ni 3.5044126183513997 4.3450792689947235 9.192454317058347 -0.13066371976686528 -0.21343910049288403 0.2779820173712761
Ni 7.105217211463954 6.107608464169514 11.469711793270582 0.8439324739025789 -0.15026606737882509 -0.614359958182942
Ni 0.4689148445702675 9.178901250501424 0.4810356782529709 0.4788491947364204 -0.433620404805608 -0.1763157132780254
Ni 4.596026285616626 0.3276750645627972 1.4732586894751083 -0.06741766732302583 -0.213203073222678 0.3825672948835347
Ni 5.873361823326247 5.558387691798982 0.5430973012516997 0.335356441525687 1.131331927933013 -0.7375137427260073
Ni 7.768440117520792 8.901246243489203 11.134778280594286 0.9578097182397247 -0.7752896759232002 0.6912940496368353
Ni 0.07338436968359667 4.953012581454332 5.756701501456406 0.6169871113931439 -0.5259204371926104 0.6637426223811278
Ni 7.921905221156506 8.806439633419009 2.47597573402093 0.14237458044589027 0.05403404692726823 0.6099330327598399
P 8.552934414682147 1.555855289098732 3.6303716445989576 -0.3647444077695009 0.7609604037847217 0.19456051842082622
P 1.7996501491034633 3.1310592336303174 1.6490639236224698 -0.5123126166011885 0.7389476469590563 -1.364947503373772
P 4.6618729668150225 0.9653429727318319 8.142842905574243 0.010952128136129525 0.15999177930702124 0.02531122507127899
P 8.39929816372184 1.616441442004397 12.316491105728026 0.4821936857286212 0.1267597567267688 0.9865415389567783
P 6.336801755060347 7.712727159489044 1.4413667367004268 -0.7131494549490299 -0.6661964832382592 -0.3095708479211507
P 1.8561557894806915 3.297756727783192 6.012453254022389 -0.8865798762594602 -0.31492979824021894 0.0395448521721577
P 7.03557826586275 4.133892478201783 6.0385036783761175 -1.0592042567288276 -0.2045065738899446 -0.6666862783904841
P 2.31596559638265 8.318066238817991 10.175475006869776 0.678480957032567 0.6620166408289566 -0.1972023269190475
