# total energy = -340871.0882763931 ev
CRYSTAL
PRIMVEC
9.26055026197310 0.00000000000000 0.00000000000000
0.00000000000000 9.26055026197310 0.00000000000000
0.00000000000000 0.00000000000000 13.55375137916316
PRIMCOORD
 96 1
Ni 2.0174201532467126 1.109867698318875 6.751544063460026 -0.041167989597877486 -1.0092094128679394 0.033883283011006154
Ni 3.6045117925034895 1.3112383655747049 12.714503184111573 -0.318351165216942 -0.6371882689313673 -0.7828271219508259
Ni 1.7074602726433612 7.474014233134161 10.123567887437828 -0.3278097395266806 -1.2227734689744618 -0.6939721106896306
Ni 5.680634574388267 3.6118091061754876 8.588849290658189 -0.873252820133251 1.640610128583252 0.14124098106207933
Ni 7.67853348750735 7.207254819891052 2.309667379204848 -0.008228815667695505 -1.0262188029417423 0.22808281854798784
Ni 8.77806641164101 4.061631078642017 6.570018755593906 -0.3385533511964298 0.43913876352067593 1.0095192307988743
Ni 3.070233600888965 7.528799648976216 2.748876760975807 -0.6429997334068216 -0.7246934510328874 1.0327874572981954
Ni 0.912125314688285 0.4462492521433606 9.999294079970683 0.35399719655532585 -0.4422320577340191 1.3271612857639337
Ni 2.93556667776943 5.461492911020047 1.3775902087978835 0.6724013264973904 -1.1620257574724437 1.1527654152164404
Ni 1.1884434679976847 1.3107197747553752 0.8786058266588895 0.29273192198694103 0.3801556001182485 0.1434189625500046
Ni 0.9058299925636351 6.409662139761821 2.460832898819346 0.22283082612042912 -0.6383084985787394 -1.4731575221228113
Ni 2.748911025012084 5.391520192611904 10.919416805937061 -0.8467426896578643 -0.9486419356975275 -0.672650466393719
Ni 7.73536548497569 6.345773602930459 10.779461182515398 1.177648037390733 1.2812041023075291 -0.5702963922048242
Ni 9.187799461663277 1.8627689624822907 5.99081207792473 -1.484378330539295 -1.3178487501137564 0.04106925923648411
Ni 1.0406173028376566 1.5278611592490379 12.117460686477589 0.6741787301127873 0.4282485989707334 -0.17792985184268068
Ni 7.598948317840916 7.524965781133314 -0.15279722858531797 -1.7723529403469092 -0.07039423345284651 -0.20455696751190577
Ni 5.537883190817395 4.400317186416101 5.974073633175825 -0.4139185555013066 -1.1419153598758138 -0.10252530965943633
Ni 0.4509008265817419 3.481577986671292 4.437661281738054 0.8944788193915627 1.5628116322465344 0.36194447642686056
Ni 3.198168103907557 0.03339539665476998 9.314151336627878 1.163603386372209 0.8762448128820394 -0.22923415854361165
Ni 6.900850990620246 2.555726684261389 7.034491844761536 0.6462259536536032 -1.7294409714747314 -0.848201790701894
Ni 6.076560143845877 6.5157417439658 9.150869312941753 -0.6921168026484468 -0.3298288268392384 -1.4126116422189543
Ni 7.480135456912321 3.052879329542107 4.583878889303125 -1.4484679897959314 0.23618565016078033 -0.4995715148854364
Ni 5.785806644658419 5.071753389193012 10.9429330474836 -0.9988890047785378 -1.001174972599237 -1.1575312120362
Ni 3.7558754878953744 0.3069826136673777 1.8401250647782688 -1.8051866990474783 0.9591873153135415 -1.8123227958716273
P 7.936495377922544 5.3010353551891995 3.831130424220405 0.1296792443664089 -0.34953864656333994 -0.5526992479483515
P 0.12837993549019514 8.395679766788046 8.538524681917403 -0.8402568248232045 0.5313768323214914 0.1516333800399969
P 7.1917341375125385 3.3310292197097824 11.207854241483192 -1.1695454628882567 -0.24411698919271504 -0.3496224645263979
P 1.3805443243579942 1.1134515313024578 4.594220145873582 1.0313728363388561 -0.32122231611715 0.20101193047312477
P 4.873809125564898 2.2936994122446626 4.9851376097045215 0.9826062084581143 1.2794462390761578 1.3059558553309123
P 2.8427296605590517 8.789743965626275 11.465782793917143 -0.24820504321915965 1.0707389968413044 0.47515246261112354
P 7.320659519418064 0.43069523178360464 3.5304134989165723 -0.03555475717615813 1.1369333332801903 -0.9617324503328984
P 1.867917828474208 8.5356807669064 1.161588798051712 0.46563243893583034 -0.8674734944473125 -0.48340698931043197
Ni 7.024257084520048 5.2552604548329995 12.853510527177889 0.0753412930454767 -0.7492405442446323 0.9603006029823784
Ni 7.355145808903495 7.944413148467669 7.720108728282013 -1.6442988902887485 0.9356653209322014 1.1766951865591606
Ni 4.1488839839942555 3.13455738358655 10.376901354790505 -1.0290752985539309 0.45270236113772355 0.012417399827746357
Ni 0.47794996808496354 6.602596445653196 12.122190975593904 -0.013008496444525983 -1.0992689859601972 -1.1876658266380515
Ni 9.255114402122354 7.271995327354169 4.2770222191204414 -1.177363930491411 -1.015230936471671 0.5899874428758484
Ni 7.096757933172423 4.560395059682795 1.7402750327914887 0.6071598408900769 -0.00816428097834723 0.504865159184208
Ni 9.09004509221961 1.4633892077459296 8.293025640156745 -0.6636996849583343 0.5598589989215842 -0.3277529181468162
Ni 5.444999870855289 1.7874436459746375 2.8756592515314594 0.6279973464607184 -0.924895226899891 -0.059307893731697855
Ni 4.765127306713923 6.898813669544308 1.219489463029884 1.4078851832775623 -0.6642861535894237 -0.08822123433193839
Ni 8.992161075071111 8.36546259101174 6.273069022170491 1.604395883446224 1.0217268286086598 -0.5867401395831443
Ni 5.866391953762132 6.276458383596824 3.6797352429573458 0.33791931715685675 -0.19973974862892052 0.1711331406358214
Ni 0.8224479972556796 8.93607918218073 3.0237197086152197 0.7168305033450428 -0.888806965817766 -0.5235930746110143
Ni 5.604318378993679 1.4375430117325465 11.271191775569017 0.761058877035799 0.23978673724847735 0.30299293759331686
Ni 3.7693681097482945 2.3586251307146844 7.460459565593928 1.9100031187339366 0.32159821139933004 0.08658292739756701
Ni 4.265039066973785 7.238286924097733 10.67118034549437 0.44176977338561985 0.33023428980777325 -0.22041707447261394
Ni 1.5203415923687555 4.760830411353763 13.32169802308897 -0.028133267901106387 -0.4651670692636376 -0.4702676237149966
Ni 5.377694190946557 8.499592402211254 2.96153511304737 2.0329576427820024 0.7891180971658603 -0.697348226250715
Ni 2.1166006474435366 2.3145819532730325 9.13768136319519 1.0873267259966564 -0.06717161275049076 -1.2602969198412166
Ni 2.9092204120374077 7.052881445636984 12.860788393694163 -0.3771101284237054 0.46430240727049715 0.6488451364440051
Ni 5.276346727968963 8.553979614388467 12.969272962822785 -0.26452332076320895 1.3110258136546518 -0.6649860078699257
Ni 3.830404397073343 5.317556177004991 4.4874302574581275 -1.9484058868818506 1.7961397583538614 0.21444954403526933
Ni 0.27522818653377273 8.564249564721266 13.163959364839465 1.8567751126477312 2.162254821218644 0.49105936364936714
Ni 9.166000126150735 1.7360568521092614 3.0115893137180754 -1.48505144534692 0.07187904552848912 1.048180651924814
Ni 6.808893725692659 8.23813928431593 4.937305941116659 0.45825183020104304 -0.3496175794303914 -0.5159460995887178
P 5.096469798064284 6.500332188191429 12.62834209764503 1.0511590178268477 -0.33150210077660325 -0.6859119593893155
P 8.83278700363065 5.816431284649912 0.4646647825597755 0.2665274956774313 -0.5801015512207042 0.9105104189331287
P 5.272948105992284 1.576247534802577 9.077232194762026 -0.5469908847096645 -1.176606483500096 0.09038198942868304
P 8.185335626247742 8.517631954283654 11.40893783167832 -0.6264081475967277 -0.13700148905943502 -0.03550796309862272
P 4.998743210271653 4.385231749903811 1.1605247608170512 -0.26649844221170876 0.2991722782956461 0.898654290925491
P 7.383612740664563 0.4168081104859803 6.369951047771641 -0.7224280520374784 2.464702684941768 0.9502380765400539
P 6.876134581748975 5.297321874500784 7.452909438897508 -0.25797549234236217 -1.4853712905801837 1.635074029256371
P 1.5143407557450825 3.3664878669814575 7.243775652287318 0.5360991774978251 -0.41497039380458856 -0.36412091525288903
Ni 7.73590259689571 6.227303382364636 5.817378638950223 1.0892334561010661 -0.548267694539559 -1.5049553833596985
Ni 2.030523831985135 8.190947519756918 5.319793525968386 0.9472964774132264 0.10098624730709059 -1.6336925755278122
Ni 8.113964564737477 1.3182208205349668 10.703112575194602 -0.6985584445087324 0.4233719876047225 -0.30724142845702573
Ni 2.8265422185556854 3.172747893210052 5.221094580389511 -0.2836374158848406 -0.002369014452808823 0.2878504255249236
Ni 5.58366735172394 6.784103232418627 6.434860097251042 -2.167690133301602 1.1795408835380718 -0.053950228964210305
Ni 6.269994519455892 8.704028311631337 10.109566861370958 0.4275294614165218 0.29825208047422186 0.04365218947231192
Ni 0.5082041860626502 3.0587875606623287 10.291851534365382 -0.7289157166443512 1.0200430131483336 1.5185364644782426
Ni 7.346829834693528 0.9599023460291116 13.068987790774525 0.46972254984480394 -0.2677850222336162 -0.9168983247373435
Ni 1.9928611737313087 5.187019459339405 8.527315711779604 -1.1535575721004327 -0.8222899559321387 0.9458219497502293
Ni 5.35082007384486 4.000650354619039 3.5327175238424515 0.4906526151292517 -0.37943209168866265 -1.0664023171391634
Ni 1.00057468314512 5.80332760591149 5.909246076539463 0.37065923059203904 -1.308452910721153 -1.3885273475762407
Ni 3.561978084768101 2.693968179814161 0.9986447844531857 1.1845105688385213 1.28744082724586 -0.7966123486603764
Ni 7.991484525872193 0.11412702245393634 1.5134387781414624 0.6468466179567376 0.4052703929080053 0.5570310425544859
Ni 5.136179037944394 0.3178322744517847 6.14657175656547 0.09283430762391753 -0.2299440401264427 1.242770738031995
Ni 3.5995759191695114 0.6795790046954236 4.434855334983466 -1.104325060326866 -0.39189037205667343 -0.8195301337988143
Ni 1.5070063998717038 7.389076465368216 7.341715232737887 1.0846674339969382 0.950876224344685 2.5053999055508145
Ni 7.946950539262247 3.9052111227616666 9.073233489122979 0.195467860726444 0.48414900968277913 0.3393149119528027
Ni 2.3805263322810233 2.1857028741192326 2.748104431077019 -0.8197059972550463 0.5252506648190954 2.2056373019693365
Ni 4.188537660572295 4.55986720831312 12.619383441241107 -0.61004127620293 -1.054964507615867 1.6297261346808964
Ni 8.775306767638149 3.4903755094992084 12.574289191335277 0.4157278407959034 -0.63176349837137 1.3336432939438516
Ni 0.4396001769955249 4.02207000756743 2.092102787560411 0.1860252272563054 0.9976471619516366 -0.9360371024493235
Ni 6.027682959124044 2.8927921957250673 13.315409183349562 -0.26154675463338833 0.7088019766136116 0.18465842881576586
Ni 8.799208248079044 6.1916039607839854 8.052514330812 0.9624068506921039 -0.9499457421106156 1.5939713456787903
Ni 3.2814667542624063 6.063234211899171 6.883517092484148 1.8423512239129174 -1.6105996982640904 -1.1771315027656308
P 8.550840287821453 2.52457419290022 1.1892130197313688 -1.5132654458872905 -0.7078360131559164 -2.671108275626638
P 2.0110025918575065 4.549097188261682 3.489819876478498 1.488241413039127 0.9327100949586195 -0.27216875312360866
P 4.320972791058642 7.737986220723374 4.560850678759778 -0.5293706005247399 -0.5328307911591985 2.0358840724001777
P 4.232219676550485 5.198196943606032 8.970401559925053 -1.0641587725206252 0.21590710241740238 1.0106255764891756
P 5.531187812917833 0.9494749663404446 0.8181094294189651 -0.053261430427301824 0.43782287292272987 -0.889842606171132
P 0.44740682093650747 5.264122801513332 10.22199549889159 -0.07010292746467282 0.574454637347572 -0.2554918066885599
P 3.6354235095556837 7.918668818508083 7.7611218536507245 0.8626369922906176 0.7146844035363176 -0.43391351056599464
P 2.5110630499466096 3.2914774091855405 11.892047778415618 -0.8285667900797858 -1.1199000319469874 0.06391813881019959
