# total energy = -340866.1947053387 ev
CRYSTAL
PRIMVEC
9.31141605099081 0.00000000000000 0.00000000000000
0.00000000000000 9.31141605099081 0.00000000000000
0.00000000000000 0.00000000000000 13.62819860298559
PRIMCOORD
 96 1
Ni 8.839448178221673 6.209010427390378 5.511788364089319 -0.19756845200921458 -0.36804827533175327 -0.27805426537010824
Ni 4.149679060399868 2.9581437226070255 4.285032595591195 -0.10436082020627833 0.12338698359979396 -0.601213650608971
Ni 4.439934517358243 6.6623925797951085 5.070084589527435 -0.9253616250133484 -1.3250298412432275 1.7370069567474473
Ni 7.129555627756697 4.234841270374887 9.609801170991659 -0.7861266186377042 -0.4929067012707511 -0.5170023087673742
Ni 3.360471381539962 1.5702585573766996 0.5646554348936296 -1.3321744227078087 -0.4354240336732501 -1.1814213883902365
Ni 8.914144356706215 9.091629255496269 0.034531385927439186 0.632263320825924 0.9374157279644049 0.5161057650950337
Ni 4.3188395533603074 1.687405481025914 10.371890282135489 -0.9094315840466531 0.7102353666260285 0.518033835355682
Ni 5.676024980312957 2.8469188594808936 7.610149462036673 1.7304524434583812 0.2955300535573685 0.29012096672665516
Ni 1.1080119370191792 6.884944731622457 3.1279578769648237 -0.1930127143177321 -1.5294644242446565 -1.3144888325025876
Ni 7.644970432999124 3.9657227275476403 7.1759274101639345 1.4305432869967103 0.10412530715670454 1.05311537022227
Ni 6.866889896159789 7.9075151161891135 0.36634927897202646 -0.873596833736231 0.556521449907919 0.036178763913402204
Ni 6.616906313041558 6.525849976791207 4.406419006907327 1.2796550126528543 0.05752766190282351 1.0192698824277349
Ni 0.880804077233432 8.18704382201134 4.878131612685862 -1.2072321788057532 1.0474136918518027 1.9604000831292496
Ni 4.347379043145288 6.617027361448477 10.047812038000943 0.287873308343059 1.5197330558895052 -0.7462251544570762
Ni 6.185284939634381 5.649310528047668 6.533562622595089 -0.2707394768762499 1.0859624986592782 0.7515969602919507
Ni 7.153718752060784 5.817307094018507 1.4721320630207249 0.30600549916739556 -1.8216679845319528 -1.0589139791819182
Ni 2.0256519756194575 6.114304016100642 5.4388231778237115 0.841443646042454 0.4266318893029169 -0.02496129793102798
Ni 7.835025743276854 8.760543239742741 8.822391526545287 -0.9418295407613844 1.5899192870966037 -0.28894520125099915
Ni 5.256163925208694 5.856899234496725 2.7597100002873627 -1.9736587479113685 -0.20654802980000556 0.09447878520587599
Ni 4.525813706358856 5.140888596158755 8.243165588025054 1.616900700781454 -0.027056232786843725 -1.1290752706883525
Ni 3.357370680039669 7.723838125814389 3.420705068822534 0.19251109209096523 0.36893273481923555 -0.7972594953260721
Ni 1.9147343892185797 2.2889601949146243 9.854318952966732 -1.3677860012638314 -1.1454015186522017 1.6340353035792117
Ni 9.323055186692326 2.231722921274077 13.72972839525418 -0.42628684725867233 0.006338283513201987 -0.30228768399617617
Ni 0.440375966652149 2.2131745807678187 3.202953883041885 0.47445800764726037 -0.7315498118330884 0.4521107503003116
P 2.273661538563328 0.17429201427218538 4.102224360321507 1.1777398257735912 0.8329404936674493 -0.3416836692952954
P 2.654302909826045 0.9664691036679582 8.060220474941389 -1.0719612992841796 -0.4760297230097544 0.7230546298778838
P 4.80496995554441 4.169028182674971 10.474974174325565 -0.0954231513970163 -0.10462410116999402 -0.5297812056995972
P 6.247047561410491 0.7090596663560821 7.0343715408304295 1.7409988515156596 0.051644206538852995 1.4077514859131757
P 3.8274482011832145 7.945645364368395 13.489122339105755 1.0226958773901484 0.46006368659880126 0.08082879852260917
P 5.7552278841012265 4.041443161783028 1.1130652424372245 0.676785314497699 1.4562489192929307 -0.8912124899354652
P 1.3689829909192301 3.96953109665761 5.93903244087401 -0.09513030274694584 1.3846871478945444 -2.882466325220778
P 7.2137215162286195 6.178524851678787 8.51499375288409 0.1689135072766833 0.276946119907594 -0.04781763370391119
Ni 9.350896320283546 7.10824179672315 9.255373297817908 0.31930890114452104 -1.2339765367791329 -0.06178926539265488
Ni 8.704563007250963 2.006517015910441 8.773779417468468 -0.10563788714648904 0.4658160157015461 0.7641850813696064
Ni 3.2538929149563107 5.5142391287586205 11.859462535029445 0.9460034696334161 -0.39246758471638216 0.4200683771527863
Ni 4.292739654545527 1.3482557790884415 6.649007419414714 -0.159733383439312 1.0591505206727565 -1.6691398605918286
Ni 5.254450624680002 0.4404318351476498 12.270406978251785 0.022493810227141905 -0.5771239566496189 1.3547314820727185
Ni 0.42174009883627284 0.4259898290606986 7.417882690478703 1.4058516977873015 -1.780136955167702 0.64635168059819
Ni 4.844580718854461 2.45118368301705 2.024237571541696 0.2320747133162003 0.4458308308288709 1.1387032806964195
Ni 0.4127806544411314 7.958457872669906 11.5683643949306 -0.737313196679427 -1.5566510119617774 -0.13378658166656315
Ni 4.680196982259339 5.984530812468252 0.4407223513242538 1.7330988799422928 -0.7770164288063198 -0.406121685164707
Ni 4.642131913991475 9.122235879614779 8.626009109152093 -0.06448069618188895 -0.06043686512981849 0.09358352708511626
Ni 1.2659894194635457 4.4656060910408515 3.8478402020409987 -0.20201723180918757 -0.1407205897822351 0.5559488652339006
Ni 7.981540872727645 3.310320095412097 1.9995427653887605 -0.7924831569833513 0.8099936550632889 0.4051112416223217
Ni 8.906955943618447 1.6510723361185748 5.731338515425093 -0.3794459756457336 0.37723199871355034 0.19508476635541241
Ni 4.656639099989844 0.6842652280528368 3.7620373666509037 -0.9534015618696999 -0.16268398142720372 -0.18782679924141846
Ni 3.4939691515390705 2.8872093561528716 8.35888320933104 1.7425939639169212 -0.13482710711593554 1.1533518838475298
Ni 3.661332541227568 3.781217021156321 6.365118177518652 -0.21285006075863344 1.3944601681209081 -1.2053377899965176
Ni 4.9452836819946135 2.8014977726387613 12.883880304513992 0.8710357578772742 0.5072863670311908 -0.5848282672724121
Ni 0.8175898057158933 4.884861904110522 1.5435571410936944 -1.9527338248332435 -0.9200978055112478 0.480515783805566
Ni 7.841348194684359 0.9612919564182194 11.942008237131844 0.4829279927914844 0.8850187024199274 -2.741604838985304
Ni 8.445733579011774 3.815091952261626 5.02103670618571 -0.14954358739050375 1.414280288170629 -1.070404496320021
Ni 1.3283200376105804 2.945210165898596 7.590729573000602 -1.500557768512635 -1.5036099250753976 2.30859250007734
Ni 2.9921862591988337 8.852986976964697 6.430737587767498 -1.0458954554350632 -2.3824435817305356 -0.815408398320957
Ni 7.41516468817259 8.108399603178077 6.345030659961347 1.766516793281106 -0.5961457491677604 1.6372275852642644
Ni 2.3705002640980095 8.64856415192735 1.206630074135561 -0.3561474101291092 -0.10675014637406131 -0.13111366282009032
P 7.984986096616859 3.225725881808002 11.947392097814937 -0.5010480994309628 -1.4817311227244352 -2.0258601125052724
P 7.031450549657331 1.0002043635345113 0.1795995213447593 -0.979668465986029 -0.5093980140575549 1.3145325412563298
P 5.7333739909445045 8.731594047657422 10.484213892339802 -0.5060452955352381 0.6402584232162587 -0.7275985404948243
P 0.02011638294664679 4.115915866285565 9.337346347841423 1.745997847392148 -1.2943802346781708 -2.200042067269746
P 4.3075913629328175 7.288417694713159 7.385911012786792 0.38112207779657586 -1.4033713545676088 -0.5570685806606407
P 3.0825349278395078 5.315002762386929 2.9071534779050574 0.14584428416204562 0.08742599212415267 1.1285173413023533
P 5.83424455957116 4.166448920466019 5.009712162147702 -0.1685262991405936 0.34388581915293676 0.3083593441115528
P 8.555273075856967 5.516399377251317 3.188753042627179 0.4136254497409199 -0.7652268923705595 0.31575769345815297
Ni 6.4062075936762914 4.835800053644923 11.812772302197853 -0.22696618844504138 0.19362489398043425 1.0488013162279486
Ni 7.878910446492715 7.54697709189076 2.7923223033943505 0.5534906335013952 0.6560812491811282 -0.5880922827356646
Ni 0.1429693422696742 7.045743573089613 0.7034607119653125 -0.579197551349196 0.2809040761140775 1.4603230893623045
Ni 1.2552533569114797 5.378916321239819 7.585659507033906 -1.3048091433209787 0.34936818242374673 1.0308573301550181
Ni 5.325077714408903 7.060809444042989 12.098760337241561 -0.05807145022143547 1.35871746330366 0.5463789621572783
Ni 7.875846990656089 9.24325635228538 4.410193854919997 -0.26245409693900607 0.30035858529426335 0.20988892124778044
Ni 2.5435249946639193 8.835025255661195 10.331755286109322 0.061247019735939684 1.0752921634296255 -0.09884708947690073
Ni 7.151092932772247 0.8212538478791528 2.369384756471178 0.8614452859753616 0.3661415452273436 -0.5214210066603601
Ni 3.1383754890925357 4.125581116007199 0.06020389075163835 -0.38265162706722483 -0.8796260706494463 -0.38559322619405206
Ni 1.5202376310716694 0.5367798490635164 12.282563962872754 0.2644132775479059 1.6961109898640336 0.7038698294193169
Ni 8.387229952806543 4.4309862466622025 13.504045745395604 0.11362784733050109 1.2613371881802729 0.6266822271937207
Ni 2.80836028616944 4.719742565657973 9.552154195050775 -1.9610197189911194 -0.06210191153706724 1.2916137276766273
Ni 6.548532585964523 1.837412391445503 9.817753953803063 0.19061541773014912 -0.7950843420516243 0.22147971140917344
Ni 2.574522698250934 6.193600034048081 1.075436879575859 -0.10673189154161618 2.099835121330842 -0.07775041670760158
Ni 1.1774006084311455 5.596430997056181 13.013770831986935 0.058414178272834884 0.022329773845451862 -2.1600110194897897
Ni 5.208554655626114 9.59802129871532 1.3469633545591901 -1.2844766024112138 -1.5896071551728237 -1.6157969261943141
Ni 2.349847543594555 7.362406205588023 8.465291277003415 0.20273122715707664 -0.22506768587074785 -1.2677286935289134
Ni 0.9570645735919939 3.5771480299238125 11.838297686650566 0.8070991071243133 -1.0285459084130224 -0.19872853375558677
Ni 2.011144789621089 1.622849434474765 5.729594487223877 0.1255935043328095 0.6319887270082987 -1.2501765435777632
Ni 8.854067101211045 5.2458561877887995 10.992177702565609 -0.4134161619435912 1.6668559496536586 1.397367057355058
Ni 5.4502045214988115 8.705307920524307 5.547916657846489 -1.2875670684110794 -0.15562758880105457 -0.5179641584600111
Ni 7.146250996495513 7.200909007927107 10.560654099025557 1.202080973622117 -1.5310369109380988 0.031187224236081775
Ni 2.332081362025308 3.287227783938442 2.065830735300434 1.1558116582419322 -1.4380527079998782 0.6905458586169011
Ni 0.23240828557527798 9.021132525590204 2.3549390258178593 0.9641117491983525 0.8158246599227691 1.057615572085469
P 2.805874138119656 2.3430502099752943 12.091510468808742 0.559868769113597 0.16074279854043286 -0.08219328297030361
P 7.67291399216543 2.162138710127858 3.9635159219753593 -0.20983775629487084 -0.9741722187581482 -0.24734423788076113
P 0.25023499134798455 7.551455882946739 7.079576602823293 0.727633764608134 -0.2468809250910974 0.10812337257250412
P 5.849059022294783 8.281461579407654 3.004281788474752 -0.26586183706897437 -0.50865650790584 0.7099659150147256
P 0.29603970852588907 0.4930655447589327 10.303817313792566 -0.39850736315255886 0.03525085278249413 -0.12258197119999534
P 1.3729775883475357 1.2830386220071999 1.3939878672221948 0.21513757124122948 0.16023834810018855 0.011979283849063238
P 7.954053572941262 6.478659720924883 12.828604946207117 -0.16046383384743332 0.4138488786056357 -0.9321591075511558
P 2.1298001626488245 6.684646863836252 10.540743498370674 -1.4098153104207396 0.6097116607776532 -0.12426115867463114
