# total energy = -340859.8474726339 ev
CRYSTAL
PRIMVEC
9.39987472137506 0.00000000000000 0.00000000000000

0.00000000000000 9.39987472137506 0.00000000000000

0.00000000000000 0.00000000000000 13.75766680862681

PRIMCOORD
 96 1
Ni 6.199565203857502 5.152315756249607 5.290208159123908 1.725764036843776 0.11590250229729071 -2.672546550735062
Ni 8.580121087966699 7.054869208733949 11.512965673992737 0.34166901400727606 0.8679311508100214 -1.2706296692257923
Ni 1.3305052738208927 6.712018176501491 1.0608802060067621 0.4357662475040172 1.695515779482196 -0.6852648127236198
Ni 8.178013245206374 0.5495852979340017 12.984651426881245 -0.7339414519937166 -2.372158911975076 -1.5510575770343997
Ni 2.556634338234832 4.775296179241008 0.9035263024159483 1.7580614634249012 -1.551646359658334 0.3703270440636009
Ni 0.5721111578243856 0.48010800357254524 10.787249282634408 0.13676906133365477 -0.3139028996376014 0.20092245608311202
Ni 2.339168235512402 1.491562728069698 6.801432605242645 0.4419541214822841 1.8736335789659666 -0.4558774164315955
Ni 1.7359218724990169 6.602584834470175 5.3930051895700934 -0.1047832524556776 0.7077578516198133 -0.5896241459991587
Ni 0.13219889872824653 0.3220697890987319 6.692086682046656 0.11766267952150704 -0.426222312569324 0.6547381048896724
Ni 0.45955423740816803 0.4365583837794603 0.8213619970821787 -1.7642575649332841 -1.2954215314584916 1.691522856272719
Ni 4.55128776368111 0.49016492958519825 6.409449367593291 -0.17308357949397288 -0.38774626798131284 1.2647459567515058
Ni 9.299615702217098 6.816695181900973 3.0038766196738695 0.6828232931616627 -0.2554815222759148 -0.4815753354183318
Ni 2.5149458936455096 8.972810256211014 5.253227171817636 0.2078829465613452 -0.1727447080973154 -0.2536508968250793
Ni 3.331926609099033 8.57611674131618 13.588723098899125 -1.3922197088261636 1.9435287612952077 -1.1928465995080424
Ni 9.084828563803113 8.293547105961135 8.868893700680141 0.16141925578216715 -0.4889387177619386 -0.027936835619584145
Ni 8.645224620599315 4.937340620340293 10.07694022600581 -2.6067466215211166 -2.9347921312076877 -0.456268224112111
Ni 1.0372009814825316 1.3095247533421175 4.703540355236157 -0.5390618596705748 -1.3931895289386007 -0.5924163640323152
Ni 6.594613740668202 3.2867508109713484 12.993510808848649 0.2533475066520475 -1.5655976796321036 0.7368133742248729
Ni 2.0172883238839527 4.626176565945627 10.340592613393321 2.042739147648798 3.140961437512036 -1.7163869665042504
Ni 5.534655662376032 8.347539986619775 8.52414013379495 -2.0464505350621143 0.4340184115749751 0.07391073124653723
Ni 4.147591342085251 1.163366100598177 2.4903849608681834 0.6996200530040274 0.7194211468903546 1.034629909823573
Ni 4.888837266545275 7.497960505476111 4.721562735125922 0.541941495211215 1.0948294621316048 0.015878876013785556
Ni 3.0593772402450523 2.3401646222376487 4.413115244538767 0.02025412226334576 -0.6155213254808948 0.8015465527372002
Ni 3.2816748785974514 2.8093969707053805 9.241561135671862 -0.548749519271984 -0.5018202017102971 -0.4167663093627467
P 7.276809651845222 8.178464439195166 7.407320333065409 1.3604115631766314 -0.5869681964335504 -0.4969132513269829
P 1.0502668074079338 8.56211092791413 12.910070940509067 0.16838386002545838 -0.3306271543708177 -0.6621436533251243
P 6.38496833375148 3.923479527902922 3.4295941278851525 1.3957891713449766 0.24420877757557297 0.8707542220811133
P 6.936393187177282 3.6725686707613696 10.843449253888217 -0.21916828966717739 -0.13043669135772376 0.199684727021269
P 0.6359193877141803 6.110952584433929 9.548687943854327 2.0747015594880076 3.405365201978245 -1.7917933084597075
P 5.315281385076007 0.5040955439891162 4.516229050764584 -0.8664545662644949 -0.5407217638715011 -2.2084120365009965
P 2.9515982761726347 2.9007543535607643 11.466644031131018 1.1040034153213891 -0.033803578813006295 0.8272326446493946
P 1.3643448229802073 4.6455309080898015 4.976396160007526 -0.22144705839902507 -0.9456286027925005 2.205706207534059
Ni 5.576438105713019 5.903638346459294 2.6455721933253247 0.0802155904186425 0.6431154330490795 0.8402367702185465
Ni 6.128633748869671 1.2942969562204258 10.694178302609096 -1.002136565181558 -0.3562379129603865 0.899933928968863
Ni 3.1625220660575972 0.7139468081632236 11.033854997132915 -0.009852724424363676 0.7103700924316798 -0.09943432943893843
Ni 7.447520777479199 8.223358241079856 2.85141441091153 -0.696497962435278 0.51490660258061 -0.94947060224641
Ni 2.489237236159197 8.516211339429427 2.4059270860913937 -1.4721609625374967 -0.6232986554334685 0.08765379186424259
Ni 8.753163382542763 8.443230711742505 4.722525282302009 1.585820948657514 0.5060254980408962 1.4203959141500635
Ni 1.5019871891857206 7.6843036228467385 10.847576738898175 0.9326242201130326 -0.3521190056960065 0.10888261933603183
Ni 3.3557834912563504 7.497612710109752 7.11546550141604 1.6770079504859956 1.4612926523644254 -1.0675698550847033
Ni 8.851580071347769 2.2173364586641022 3.0929987123097846 -0.4701969183780611 -0.493780362124956 -0.29308210623750813
Ni 1.6499506178848242 1.49574567234078 2.4977046433488383 0.30966469318653767 -0.3788011429728831 0.610491219256155
Ni 5.755731317008788 3.0440930438747618 1.631054049641777 -0.12632241207903405 0.43141928338923113 -0.8769143281452381
Ni 8.271213003515987 2.0006035461734575 10.316626692688713 0.16473109376421954 0.4617798979589596 -0.9706408085661219
Ni 2.2694211647451477 5.841693171748215 8.087623109464461 -0.11212092376767141 -0.985131288872813 0.6374674907346828
Ni 1.4913277312005362 4.493403334869149 12.571329533524514 -0.5517710797071271 0.4685462701485157 1.244477436310457
Ni 4.326499158515595 6.855817460679047 0.6300736055969087 1.222859600930365 -2.2435091373144456 0.7485185784769433
Ni 6.668054962218682 1.160546138168234 2.84432878531256 -0.3035668078189159 0.03169476000011961 0.44530221201891057
Ni 3.977049414197071 5.475511650345363 5.414109788395786 -2.626420960021593 -0.9604181023968492 0.671168996752186
Ni 6.631179253509796 5.949274738450536 0.471558817472435 1.291735597966472 -1.5580738604512328 -0.10941689457294704
Ni 7.120809330220781 0.48433982719241286 5.739781609505032 0.15645856934278216 -0.4055048775163145 -0.2449610823605652
Ni 2.386806800828904 9.295554956317979 8.564959089968372 -0.19447618623713603 0.0005052217711926782 0.9927643799380387
Ni 8.278338108588976 3.3112750842370855 7.834261704971289 -2.0580176710744236 0.7991536270249914 2.0394473642714037
Ni 9.057719324976595 2.5742873030462747 5.87175867118879 -0.39953580441707315 0.8502877266966452 -0.8582074957643542
Ni 1.9089829668246125 1.3159072683085549 13.209671268966014 1.593863359346016 1.2370564612560373 -1.7508137807235526
Ni 8.88857797842862 2.5181606508156444 12.633197629262506 0.21626859952187916 1.3098374497735055 -0.010508612840807709
P 3.3433944563141345 3.673621456735215 6.813264227611209 -1.3063032113680018 0.01314965000808058 1.3291559475964592
P 3.0092195084911344 2.435836547610845 1.2784064679276976 -1.049884007769166 1.4577064776750637 -0.7123794095522248
P 0.4370518772047004 9.052850189847561 2.9057156074625103 -0.45772295428076654 -0.17902308490685942 0.5065906265157468
P 4.853785133541085 4.579327590109509 0.21692090998597435 0.10374041301346006 1.256941115995106 -0.05388235184075236
P 4.953705802308729 0.520520885156057 12.570558743793663 -3.2734454983170913 -1.9125719079023769 -4.859113723446825
P 7.604949880068145 9.041833536621251 10.510568668820559 0.8506744206121026 -0.45218968316736313 0.2566686006054805
P 9.32204380340991 5.26344107573889 0.43556669699159706 -0.3706607732539358 -0.41396843490263546 0.4868530388775035
P 3.9466408193275195 6.148006890763378 10.211835008817083 0.306752147525433 -0.6430969211063182 0.05197767861887178
Ni 4.993138276954096 3.015009831347284 5.729463366973871 -0.7101122107846027 -1.1670067556268031 -2.212857730977176
Ni 4.273916259071926 3.9964225560907787 3.438398990578911 -0.9953971895751953 0.4284727991663975 -0.7337097955988847
Ni 0.6469322809905839 3.044252841745792 0.7894879617365341 0.24931036046819643 0.6176322011763105 1.0085542957824436
Ni 6.9643954141066144 6.91313789700502 9.592079645751335 0.38527492362268484 -0.2959136621490323 0.24077301242114663
Ni 8.756114943219435 5.425927310952201 4.81189553163176 -0.3683894607212559 -0.8138937614486434 0.6492932797250173
Ni 8.722322393433954 6.0570725022724865 7.368715987386968 0.22271075560279704 0.4361999926073262 0.8274097936572073
Ni 8.54018102008394 7.604996879441977 -0.008064152562160046 0.1967665249332095 -0.2796172389818539 1.2559923789285916
Ni 6.0386487477301936 0.8563849904745929 0.29496713018455073 1.6844957742226085 -0.5036523698230293 4.6106960499962275
Ni 5.367751486022478 6.451124652357941 6.985688950415114 1.4885620296033395 1.2416474230608292 1.247057281222491
Ni 5.631408573347373 5.149007000331807 12.032056838196812 0.32037899428024824 1.0899297108371422 -1.1235461133400069
Ni 4.323425399466958 2.5474318608384516 13.358392327571295 -1.2099392933242712 -0.20922866195596224 -1.163983652529763
Ni 3.5158727584042087 6.130212927830439 12.421907244261652 -1.5387219382871822 -0.31797964081013624 -1.0496145561578631
Ni 6.050135394694827 4.255699301774495 7.282166640474638 0.934934613413764 2.153895907730987 2.1526059852749704
Ni 0.9307859392387297 3.831764949806413 8.061827973130297 2.2056897524738273 -0.3213498428339498 0.07339651061428004
Ni 1.4724903821685178 3.812767802903364 3.210214210660268 -0.02603807593497451 -0.7254362427361829 -2.3831614337331666
Ni 4.250754967647329 8.083516304178987 11.114970276442746 0.8016596812762967 -0.18145586271806816 -0.18914217561873234
Ni 6.377185237444838 7.518170236224035 12.50697141096088 -0.3353870376533063 1.3173450710044603 -0.31468554343989674
Ni 4.660514308467565 8.384838689693153 2.333933445254951 2.192521076302353 -0.2958347292819808 1.3252573838730015
Ni 7.570922333413501 0.9676513080853733 8.10583818678694 -0.26977582741139994 -0.6930848229886708 0.6510408585437434
Ni 5.292308091146739 4.4045369188268815 9.636365275738635 -0.2676037594607456 0.5721642986514984 -0.34205107993704315
Ni 8.3035109732136 4.3715057588974835 2.309636648958563 -0.15025552585586383 0.5062985491966248 -0.31300609885494485
Ni 5.347748552519416 2.3486057097779445 8.20111061748256 0.29757510901185524 -0.9128434379416795 0.23365131377470083
Ni 8.326597065640065 4.837025156832458 12.336197306165966 -0.3059314513963506 0.4772473974669394 0.8368547411201911
Ni 0.952056915847789 2.9244984372208833 10.975137739416644 -1.8232402141150796 -2.337336662089568 -0.9087461279438541
P 1.3013186626709836 7.870703139465963 7.003559992321139 -0.9212386039839101 0.7062010486556547 0.9058153274503046
P 7.8016892589304945 1.9714733342721473 0.8886021212492139 1.146511978107561 1.0658312751270418 0.7370923389178724
P 6.851314920665905 2.453169916680227 6.522069267170444 1.6309432949174494 -0.6644059669967397 -0.02099485708411223
P 7.188450829040344 6.9797642093498045 4.569182305274051 -0.8385074462322656 -0.614563846663632 0.3326809515760529
P 3.1815192129606458 6.305652190471953 2.4153373007201133 0.19523903254508956 0.5088573110627366 0.7704493171117635
P 0.8142697915708722 1.5975463160617187 8.403347983095822 -0.8061259445777665 0.34423728895508454 1.2572673889862735
P 4.599593720106032 0.7219348217397752 9.285310972797474 -2.1134452559151087 -0.4574496460147218 -0.2520755819181594
P 6.347321835311742 8.013205240925744 1.0830892901175158 0.2616115464330527 -0.2706754564075338 -2.0562076144488777
