# total energy = -340872.5923505336 ev
CRYSTAL
PRIMVEC
9.20172358178390 0.00000000000000 0.00000000000000
0.00000000000000 9.20172358178390 0.00000000000000
0.00000000000000 0.00000000000000 13.46765258641674
PRIMCOORD
 96 1
Ni 2.13677817667934 1.4232397449138523 6.123875681909327 -0.42500900898751326 -0.08162584050260781 0.9068072590499286
Ni 6.814777874350778 4.057757538469531 5.807857217843831 -0.8992672419191416 -2.677357084749828 0.20500331102070501
Ni 0.32759975301396493 1.5726021175592846 1.9414025866599869 0.01777377904365326 0.39553413945684784 -0.17420766579608707
Ni 6.237388140568398 4.110133747507098 8.597991795373618 -0.9655880766335629 0.13589308648660467 -0.10568493833434056
Ni 7.100997477673608 6.942414978279116 1.0290857675978986 1.1676896406264408 -2.626107542546232 0.6131754509565375
Ni 1.5992779134130986 4.903432716858257 12.612658583790088 0.3088468252709326 0.6080383868402882 0.23789337688050644
Ni 0.3527195374573339 3.3406856449559004 6.053224850393086 0.9362080808095489 0.35559745116291014 -0.22479951981102575
Ni 1.4712819422759644 8.454681396144212 9.410400903679314 -0.08125225921327298 1.1400366547958622 0.9817978536242059
Ni 6.073735491634255 4.136285045132673 0.6814069341656489 -0.5274679841853883 0.9736297159911167 -0.3256775236750262
Ni 4.323273264361839 7.8529899111200505 7.373257146574285 0.2862015770675909 0.6682245694118814 1.032182476724345
Ni 1.4216110398893178 4.799296814244385 4.375236316023127 0.3974151585296446 0.3065770554001494 -0.6060956612916206
Ni 9.349871047623441 8.776115994545531 3.360704914172719 -1.5479557981806242 -0.7473955206160935 0.022054151586562015
Ni 3.08959822120184 2.825435148634993 4.124751605145377 0.21241940097911802 -0.058116187416441846 0.5668750252281012
Ni 5.87212573407749 8.902262419298872 8.95733565343639 0.5599528441869711 -0.10673446264477747 1.051633643470421
Ni 1.9067811027345039 3.4738437828657114 2.1723998879277997 -0.793628069221072 -0.28692071462180263 -0.6464730366674027
Ni 3.8424464149154107 8.409510136452464 10.009617125135115 -0.049004454923160766 0.03464844331180485 1.0341326584721804
Ni 6.411015457562402 7.1859477872018624 10.789339871925831 -0.9380358780469071 0.5996722742637802 0.7382495924507673
Ni 5.661820347999905 6.217678049254542 5.928352864317135 1.5519338089917658 0.033728759711012885 -0.43664299368201576
Ni 0.9666962432626004 4.91218355571889 10.264694416113118 0.065774475292648 0.6470132254415889 -1.5909484996920664
Ni 7.7348213804699375 5.657127469115653 9.334133340259255 1.6945752699457977 0.03884705477418471 0.318735030918922
Ni 7.0207492487529075 7.315922128849024 3.359586904791471 1.5213394811446768 0.32146297137304636 1.4676131952658142
Ni 2.5405129882978086 3.2143735891831153 10.710904382495714 0.86705260485981 -0.4064412732876549 -0.5726975454471492
Ni 4.818730853859168 1.3841968329415404 13.198326187855354 -0.001732923530706693 0.25176627820785674 0.637873725034166
Ni 3.7969622966313814 7.848278628789194 2.691389044426495 -1.1012659617855678 -0.7192833357609096 1.3419307307636243
P 8.378389908243566 1.5509964712451227 13.372893920970869 0.8361623430388567 0.3893506363539553 -1.4108141839988992
P 0.5357188096348865 5.180008914160115 7.982681759861827 -1.4112764683472985 -1.2195037970842546 1.3007735397990243
P 7.764101264018346 3.289524063394256 10.21179370884731 -0.9269335974861583 0.8810098383708503 -0.4002359158078913
P 1.2829962800611519 1.6331034482729192 4.072927499505956 -1.5952396708682528 -0.8495426210005047 -0.1569697046512458
P 8.860320964486288 3.9075854141734823 2.891666392449065 0.23334252428503038 -0.6207797456663566 1.6825543342255216
P 4.123835113504452 0.7654563949825934 3.8647044634117167 0.8062884382975598 -0.6189640326138566 1.071440136673387
P 5.839947307688809 6.370454261245185 12.833999596624306 0.43293366315122855 -0.3601729863487345 -0.6650109475705901
P 0.0076503127536602005 6.05785331721422 0.30064238442709584 -0.06815583104063101 1.4815676005633773 -1.9019594224938536
Ni 2.2401043276425954 8.790903163892576 4.410764169693901 0.006696952404201369 0.7461382511702247 0.24189015674472533
Ni 2.2356782987341153 6.827338226658628 1.053831962075188 -1.0802667338260816 -0.2147619330693656 -1.7014002632874312
Ni 8.985298770380217 8.57381610774108 0.4784905318999348 -0.9645411234262872 -1.4164911797790185 1.3343485475409922
Ni 8.882101443543196 0.7361930745361294 5.763481907217746 -0.08077814779033185 -0.4849100562185197 -0.29390408791817124
Ni 8.313490153791358 5.24508350135507 4.499300390793122 -0.6283331325335824 0.13793505661729794 0.8876921354870324
Ni 1.6130528931968722 7.691886139540688 12.01858704583269 1.3197436531436237 -0.40364288460691133 2.2384821164135
Ni 3.279356159145045 5.176733100664442 3.0149087533281516 1.7010169118060832 1.030862729471657 -0.3869335422720304
Ni 2.049159367393374 2.594039412748183 13.148240287747768 -0.42155524611095785 -0.6204835545821765 1.0303788478567026
Ni 9.036616781238003 4.07331765257398 0.9124401221543413 -0.7139284992068995 -2.058761234108667 -2.0028219997388863
Ni 7.8289918167472505 5.7379830117743165 6.794403418614485 1.6070528614530968 0.6169413457568731 1.2091018850246402
Ni 4.113934059231012 3.3029033690760246 7.270054298703283 0.09413117205847014 -2.4265647404194657 -0.21067387904292106
Ni 2.913606061319106 0.9766249027059482 11.537239378847344 0.45888689268188065 -0.5902221845944738 -0.163798297537305
Ni 4.568876461027637 6.335386493739533 1.129116781446545 1.104381367486098 -1.5026547602509797 0.6506258824935117
Ni 5.831803782566137 1.8586284846927625 8.221799581944055 0.42516918871446135 -0.22413308987162045 -0.36325933858354215
Ni 1.6081115677834543 3.215661830445459 8.352960945897234 0.14058252154247403 -0.48308817251843245 -0.6295235532972577
Ni 8.589275002889204 4.7884295790241875 12.001712005468319 -1.683580718607507 0.36410677418550197 -0.018835130428632076
Ni 4.170506254094499 3.4237772063770597 12.466264687082028 0.3795339073738496 1.1699470692020495 -0.17499056670869864
Ni 4.0545369353136715 8.287182426869641 -0.14566235970551553 -1.63098906055372 0.15959351542733805 -0.3360616951228277
Ni 5.2215086862541815 0.14061981533577075 1.943449970094783 1.1959131542485082 1.0283170802316677 0.04139990310302547
Ni 4.403696326025287 6.256564531930713 9.41679794171918 0.5959963680740897 -1.227273927947977 1.3598826872563547
Ni 5.427618086505848 2.13130315131438 10.804073671277722 -0.3188607578635089 -0.2586133830366772 -1.041951897406283
Ni 4.413726204424961 0.9223715421146798 6.493266901646048 1.1606653867898076 -0.263449628083056 -1.5636798937841005
Ni 3.7578089639794396 5.937264733335561 12.331426314497188 -0.016544791732558604 0.17289408919098612 -1.301108811651256
Ni 7.037625209289608 3.0903159556194315 12.294578933704843 0.7376806073211748 -2.31636211672043 0.9571571722573903
P 8.665833340765621 7.325721964166138 5.160319066637524 -1.2017318178128142 1.315067587824193 -0.19344208854566686
P 7.3562072734671675 8.973980650718199 1.9879734284660366 1.1824400594627378 -0.16461256590848425 0.4262104854947821
P 6.7610122050945405 1.3763753681344544 6.205624711900658 0.46404992494005887 0.369653415035344 0.8949519023732394
P 6.102196421808745 6.243378462438296 8.02693652791265 -0.1786235354755956 1.2511103682459421 0.3515489921251494
P 4.278488477048795 3.474202650074507 9.340247885393735 -0.6117405182822238 -0.3982965326933334 1.4048656797249481
P 1.0255596672283982 1.323962352203677 9.588173597021072 0.4719398692110969 1.3255268354843044 0.2886245846867868
P 3.16500634366545 4.503258972157838 0.6191131077526963 0.14846295273181528 0.4976323888811946 0.5270985166611115
P 5.173328463042533 0.03176158832308024 11.580968728497595 -0.17588171106440031 -0.3226783318373862 -1.4116942726110073
Ni 4.663387361067141 4.358175400848046 5.1240780794108085 -0.7984362892429926 0.3313259802100552 -1.5360155950996126
Ni 2.2153424902356917 6.541302657801848 8.338523442035683 -0.4366489072192867 -0.14512694638004683 -0.3988354359159389
Ni 5.5141786976120315 2.593928992068554 3.7133950061154852 -0.9795327117391132 -0.25080545695648415 -0.23287766883346991
Ni 7.036198942177728 8.207201047924713 7.030599693548184 -1.2083583219903962 -0.256853462922777 -2.19915323690689
Ni 6.002035663661534 4.800309003807656 11.091473855700256 -0.42626910664685946 0.34969394119428165 0.18621420333865993
Ni 3.9762854803496035 5.530843018512776 7.285070590960557 -0.01869243420318071 -0.25047789841373636 -0.12110667220604948
Ni 0.5830414322347466 0.42101932866979824 12.053238895445071 0.07210967348205646 1.4052865693124508 -0.607127959210877
Ni 8.263083113540516 0.6760699346502256 8.174676636739859 0.47667301302070814 -0.0405907769381688 1.110200031050404
Ni 6.495735724008096 4.504096328978361 3.0309491973889893 0.38302649390814036 1.3218262467042656 0.12457920413568221
Ni 9.01778085363788 7.621180097684631 7.952163324356908 1.2179477654510442 -0.7529622160705935 0.020120939119591154
Ni 7.021973077952134 1.863560608382878 1.5266523920761508 -0.054550838662686695 0.9981032756524488 0.5942127938111056
Ni -0.1415565507679606 6.076578824134714 2.442870741818479 0.5371330180789782 0.7872062248551281 -0.4663418062980291
Ni 8.123805829634572 2.87484840276917 7.786161475463649 -0.11554357629597521 0.9585378546550007 0.532647985724431
Ni 3.217566587169067 6.980068430032759 5.437052613407854 -0.4848000130032167 -1.7418396022494005 -0.522240674348178
Ni 3.4626912942231374 1.089290802821194 8.583796296834922 -0.9310509620886417 0.7667865235481954 0.8665802932090818
Ni 0.34545017604839534 2.6290243647441134 11.352112668242263 -0.4985507869304059 0.3796758322683526 -0.30842362169058496
Ni 0.9672759518306551 6.26157947113055 6.200264708076978 1.1360373038284821 0.17943266164045227 -0.22144937239187026
Ni 6.69152999243771 0.6988441998237992 4.124212384159852 -0.17335328821559176 -2.167451534928235 -0.3268491753856242
Ni 7.951807217665103 2.5497239133235654 4.296545018685201 1.2316802845457884 0.8100065105790953 -0.38889503687377536
Ni 8.872448835798922 6.874009367248674 11.066746984841902 0.2370737091926885 1.2050883929898728 0.06498977460782356
Ni 3.0066170804603107 1.1195552707629652 1.9616979075758794 -0.7108416327514596 0.49600102392535866 -0.566934931931759
Ni 6.426676790623178 8.666302628654046 13.320801125011018 -0.0869261696695987 1.034294123750709 -0.8984478313416397
Ni 7.504051361767695 0.475941654545155 11.391088407634467 -0.9012238514248802 0.9048395938005965 -0.2129433918033881
Ni 5.18047820204854 8.180313612434942 5.04064605422746 -0.12333093355087793 2.7128110546820636 -1.1762179898124259
P 2.7009910426926056 4.281975930180426 6.10352607082595 -2.1011710665334458 -0.20059412620941583 -1.3619861067526027
P 4.9019052307900495 2.4969428284606896 1.5598236844091669 -0.0417238621013475 0.38651316690516013 0.5545949223091674
P 7.982485763155485 8.3533980277541 9.785824773213124 0.615257787406863 -0.22991601510198467 -1.1248990278234758
P 2.2710957317252602 8.396866968634892 6.910899075968213 -0.6593594057117677 0.5511378169985024 -0.25967524864228825
P 2.374293058562281 6.674285962968912 10.476217190183618 1.0022260395715705 -1.6790504348373212 -0.36541160903985453
P 5.1988632452068435 6.444537335553242 3.744626575176344 -1.924524195168247 -1.946250531101745 -0.8891250112788172
P 1.854073631658048 -0.2009757588212266 0.5107499334536777 1.5237167231276016 1.0900538951198322 -0.6849156569143172
P 1.7805242573015336 6.918334068396594 3.070489922591964 0.19092215033729054 0.3009193428937398 2.773045831103405
