# total energy = -381170.65354773216 ev
CRYSTAL
PRIMVEC
9.22911435257550 0.00000000000000 0.00000000000000
0.00000000000000 9.22911435257550 0.00000000000000
0.00000000000000 0.00000000000000 13.50774174816636
PRIMCOORD
 96 1
Ni 8.352135940138636 0.16958127891169764 11.036946127672168 -1.0906318791104892 1.2630698546006633 -0.2147681037169527
Ni 0.19180221679528117 6.581825742459012 1.0184881094325484 0.8913623852497681 -0.8723413640625751 -0.6592606753503742
Ni 1.9860130511144847 7.366826495694037 8.76795551921096 0.9271423710628548 0.3779619349010394 0.4254954617056285
Ni 6.681269446282418 3.0070299377950716 0.30791831513905593 -0.16159743323124426 0.9361006086974072 0.004214809412295967
Ni 3.200232211190818 6.67461525505674 1.042397975186172 0.8447451996118612 -0.5472737060574058 -0.8423399326044784
Ni 5.671290579998378 5.142296221228081 2.809866528651668 0.7040750034515874 0.7668744552763115 -0.10983572727792051
Ni 5.820110043956838 5.380555029386321 12.971578855081255 1.1619725356370052 0.366010418966118 -0.7313425809182889
Ni 1.373246024167386 6.185241482877059 6.49464383955438 -1.043587376127177 1.1894658559612676 1.1122314596581362
Ni 5.754204940569095 7.077438395732393 1.2871974564673485 0.514464629947185 0.36097517053505573 -0.2023638165153289
Ni 8.475556882248187 5.55218886326139 12.361596251841213 -0.07493968673168384 -1.1917651935184055 0.6719691240559782
Ni 4.044446960131731 2.738518093800811 3.004932160172885 -1.286698806873513 1.1304770361318852 1.3086478003407784
Ni 3.831678964962842 6.8594282637865485 7.14532498990537 -1.154999703863598 -0.8402401126526562 -0.9187253506437532
Ni 4.338301951290639 5.959054355888288 11.030758929617114 -0.3376892034239216 0.4683138424227354 -0.44882179513639475
Ni 1.030282917180698 1.4199453412296996 8.780963955455887 -0.2502963785305496 0.4223065224546856 -0.8980079155907438
Ni 1.0902167837820151 1.5653131165357281 1.8032701326647307 -1.8493983605676858 1.6962997088360723 -0.10320870887970612
Ni 1.8279275566559132 0.717175071214737 3.7855850777818105 0.6306630662183397 0.8808902820738507 0.881262834921921
Ni 5.043646221212454 4.557659533886898 5.200291050968768 -0.5504557033298132 -0.3212207734552532 -0.3592265632750652
Ni 1.9074825197146374 4.521656760001505 1.082822417610014 -0.33382277848997993 0.9959648891532074 1.1486969015740216
Ni 1.753965436707814 8.45774469214339 0.8826078633636857 -1.5074087299961973 0.09111861048439146 1.008686964705566
Ni 0.1535807638937266 8.706903083987516 2.801505874239267 -0.702934462089241 -0.9913880684158023 0.14655802239961854
Ni 1.3975831979012439 4.647043503402413 12.22630205451414 0.43392662319211717 -1.1679902025859947 1.5351686737182852
Ni 4.488699593750612 8.339759698205718 8.782651960414523 2.393792945305084 -1.6413133252978636 0.981729976500748
Ni 1.863182772303747 8.018291197827356 4.862530395568647 -0.3084873850489849 -1.7334318378016793 1.0304608660475478
Ni 5.290441959861335 5.564371293799384 8.954822005815544 0.5501268592354848 -0.23925143357029766 0.2202268128386788
P 7.782625770715463 2.123388413658465 12.106610597389745 0.1598763367750795 -0.1320073782789533 0.03713007208307799
Ni 7.2487861270721 3.846907003135336 9.991973229667739 1.1473750974388046 -0.86752080274548 -0.3669370445454455
P 3.7264393775198457 3.7074920063876458 9.439574760593427 -0.4840276536135664 0.5579396704116842 1.7584139616683134
Ni 2.129230442848276 7.184911428774023 12.193248905477189 0.7729687410995074 -1.1987673358678517 -0.5898971971548873
P 7.480889116163035 5.240964679471796 0.9148386983393217 0.40279262079147404 -0.3644014226077853 0.1136854400413139
P 6.673452386687204 5.577439719285597 10.834518431878106 -0.9208138577416657 2.2536701370078474 0.8527259038244928
P 3.6584484943581725 5.272454416589705 12.897704411716575 -1.8981888997078278 -0.3505678591588027 1.1331892928567258
Ni 7.277239485669554 7.420733750824663 12.009502782330859 -2.737949244510588 0.8670047823410101 0.16843836741247764
Ni 1.726222719891744 9.4009601474336 10.696253382740288 -1.0474617714809187 -0.48707878173506436 0.20662387734326348
Ni 8.854522763120267 6.387442142465642 4.873268469758766 0.17130283344446626 -0.9248602598968975 0.6913567845539706
Ni 7.3195457444469545 4.52520996890842 4.498375396914274 -0.3840963299335514 0.6871823414613067 0.06924135079532592
Ni 2.573686116976123 4.880503172257806 5.265276934597736 0.5934491761722038 -1.1804397412032575 -0.9830484382018553
Ni 6.66382642073938 0.5835070437822057 5.274867829912193 -1.3155015900378182 -0.2970472615328433 -0.18460340720811433
Ni 3.144469904137359 0.995498386349105 1.7282346667533217 1.9395934307965432 -1.3367000784923042 -0.048939406013180226
Ni 6.40727550854606 2.979610239970539 2.9133904237938975 1.2402361445355996 0.20241343880634172 1.3111816225062258
Ni 4.462793470629284 7.784665404919172 12.691198370426495 1.5874502567308209 -0.51209535838406 -0.0811509577487183
Ni 3.338207466147654 0.9046276065611115 8.984228731893737 -0.6726712923293253 1.2078947520904164 3.629676726409259
Ni 6.579564609518249 7.331792778783257 4.536898641845065 -0.13059558553309122 -1.200143904500404 0.19195187715338555
Ni 6.34541275710956 0.2986541304617535 13.390670155082153 -1.002250722161919 0.9106703415497608 -1.315477164557786
Ni 1.230803878013285 5.934246497338188 3.2476800094020946 -0.241165619873875 0.27079424137358526 -0.26060573087635763
Ni 5.633155880768836 3.0788601323990217 11.661489504139329 -0.1499390230567095 -0.17253336341745767 -0.05784570736387457
Ni 0.4645797573006482 0.9889180280357789 13.059014558622097 0.06789692095228952 0.8555888271945845 -0.2206425602198587
Ni 6.905130836532118 7.417152854575616 9.372981165298006 -0.04876328544663215 0.09829584495912104 0.0879561535960098
Ni 3.191722968042309 -0.021926529145582012 7.053013545415118 -2.279286294914055 0.08854545044057653 -1.7849747428759777
Ni 7.663404075495904 2.64940176859257 6.136958449844806 -1.3329812348798202 -0.5192157714789251 0.09748466191173534
Ni 0.12443614465438263 8.056352064144546 12.64558255135294 0.4572143900754642 -0.5925009533263215 0.6687961256446352
Ni 7.4365524522959685 4.61976224228854 7.501889042258606 0.819649432985498 0.802547997418521 -0.044737709227006824
Ni 8.137282165195817 0.26712286233064775 7.230383273668493 -1.7412438776469301 0.9081681439531972 -0.07737426431510545
Ni 5.267452236777891 8.382527412685317 6.417676720073575 1.6792332402720886 -2.3562890348223546 -0.33449460774602396
Ni 7.5083365013296985 7.158506933494324 6.826529240954132 0.12488696518408815 -0.5082901257053568 0.6312323084582484
Ni 3.1103775568590613 2.594017855214913 7.640357131905388 -1.04207428191676 0.15449424652755975 -0.6930359720286065
Ni 3.45749376516552 5.321350262794474 2.9302880086969387 -0.4786329649605564 -0.8610853315327816 0.24729718669290957
P 1.0562444149862884 8.505865292768469 7.093022677706983 -0.3280740489316608 -0.7189830309116715 -0.25954000861600457
Ni 8.014950258543452 2.357411058470538 8.40323385295429 -0.4767524601083918 -1.0273670576135725 0.9181620219411154
P 2.6242708910509336 7.771652354117224 2.8117169660174772 -0.5477593874445728 0.002900975696878875 0.9249055113125362
Ni 1.9568951963058683 5.350163556839641 10.263289801419951 0.9742408672125543 0.6091691580106219 -1.617270425416047
P 6.634837773527377 0.5123358079209925 9.139702387077874 1.0629287567682661 -0.5586711492610701 -1.432352058070675
P 6.912071130293157 -0.30302411596155693 3.2574591786430487 1.0613621836120946 0.9051900351614798 -1.9088466365319898
P 4.507933067418174 1.6071117740407121 13.002254584340488 1.875425637869383 0.6228147738185145 1.002974744812137
Ni 9.015109347484744 8.461113318769426 8.96287256199607 0.6396765825708596 0.7130664083169204 -0.9645814897459195
Ni 3.0390826508696596 4.930672636200639 7.93882391135205 -1.547948856202089 0.3226114831551928 -0.5172712461580445
Ni 3.139209309132316 2.212689321147585 11.464722023988411 -0.2831167674946802 0.7830888602526449 -2.5254557957604247
Ni 8.610772632105885 8.649350328809536 5.13806098079332 1.4876492879810832 -1.0865530810554256 -0.06459793848604359
Ni 2.945111811674308 0.22380970721105395 12.80463617987472 -0.6274769551808742 0.5407410471452107 -0.5722072360742919
Ni 2.7032167325827583 2.638539101362858 0.21068313830636448 -1.0359360302295062 -0.2580240861921105 -0.7867269712258644
Ni 3.0844622046236907 2.3664002155493313 5.359142561892986 0.5100667579898054 -0.10756544318650507 -0.4778914588088415
Ni 4.641755221055239 8.656705932702552 2.836355931780572 0.7019515293506814 -1.5404517764940953 -0.9363919146855808
Ni 0.10445418983785784 3.7859763922172736 5.1648604821541 2.4318946372728116 0.34838962056056133 -2.081029301478248
Ni 0.8156580242661685 1.2785553140766073 6.347449622579056 0.9027744837414516 0.808324494890982 -1.214356191445044
Ni 3.9465537474677075 0.007492194780866856 4.7993811056344216 -0.3809333588245375 1.5169189834794778 0.6916069528915637
Ni 0.4701587567402073 3.610964702602124 7.329786369390105 1.3269951924997148 0.5234917731464598 1.5104344041963986
Ni 0.49659278518484734 2.279157400492009 10.89682971825714 -0.5637189960976227 1.532077693497787 0.5548021532239671
Ni 8.023699458657102 1.628569464192862 1.435683749408823 -0.4405158463738607 -2.0214383292884928 1.5710090804556622
Ni 7.897998925378701 6.351144036930844 2.7195679539343987 -0.487642110437702 0.13900617819428962 0.34343716165129246
Ni 9.269629854588397 6.021793873158961 8.506567628347213 -0.5249632154856636 -0.5923723981682573 -0.3640702645206117
Ni 5.252537988482891 2.331218832813849 9.367523990163827 1.2008954379544479 -0.41229079008989644 0.4070637373630022
Ni 4.607422916811798 3.879227360517198 0.9154745842969488 -0.7822015725516851 0.1270006690929813 0.5066160804370436
Ni 7.981891572038075 8.51219646500261 0.9104391796745777 0.0011757654756560396 -0.9865268836687591 1.1395849119704247
Ni -0.058240324174255106 7.111604575923042 10.611384295815068 1.1333530721280998 -1.6459665077991588 0.8755277322103565
Ni 8.816692624654173 3.649440879051291 2.602279758107044 0.717118724009423 0.571129429629081 0.2844611973377165
Ni 9.113021018376855 3.2416063294497808 0.25752089207933726 0.6092239225079573 1.0776290390929182 -1.2783026123900179
Ni 8.450702878127867 1.4785317571806025 4.212091970917012 1.1678243664320918 1.4136758218174106 -2.0130657889540813
Ni 5.267858317795825 1.1552912669058046 7.245539324751444 0.672634525554119 1.8574968213051044 0.5054223172392586
Ni 5.463247891219983 1.303963065039562 1.9010525959602276 1.0555838863674207 -0.7725509368357986 -1.7370933458136664
P 1.7297482414565273 2.834417817831345 3.675780770532683 -0.6562879658752955 1.5328886194348568 -0.07912595689888953
Ni 5.564740458361142 0.5742253237882198 10.951468842131451 -0.6589583136186071 -1.084911945907577 1.0675875956965162
P 5.561178020340183 2.359063069884402 5.142140249200739 -0.928624097814704 1.3125491922777137 -0.038913646346062016
Ni 5.317141786790439 3.6668654463662413 7.4939999955738505 -0.4003724413857557 -0.2640849476742097 -1.1628693364196618
P 3.477880878088574 8.22330673719934 10.656338387411672 0.4738609974932097 -0.5902216703738417 0.6105940633826065
P 0.38862876327608087 4.129548620730861 9.531385987102496 -0.9522106268853923 -1.3842150933541322 -0.267902521648087
P 5.703426355099362 5.899360446252112 6.83606568449573 0.6391019410143123 0.14113119495709242 -0.7553826525866281
Ni 4.286554308846292 6.767829306900489 4.581622928501977 -0.6778520651993165 0.24762397390470905 0.3009882484584623
