# total energy = -340895.220007808 ev
CRYSTAL
PRIMVEC
9.04487456000230 0.00000000000000 0.00000000000000

0.00000000000000 9.04487456000230 0.00000000000000

0.00000000000000 0.00000000000000 13.23808818850067

PRIMCOORD
 96 1
Ni 6.326528021794204 1.9394382016772946 11.408783390737703 0.5494840834451634 0.3223289189177675 0.6140755941733037
Ni 4.749762158906665 0.37206905906231125 6.156915818918999 -0.3532199520696691 0.27343322165832906 -0.6236041024890292
Ni 2.802038852051142 1.5740162209943285 4.970094400862037 0.14829377414380265 -0.6575161818554418 -0.09627187255055678
Ni 3.431706845596485 4.263446383668898 5.059809608015233 0.3271975598639784 -0.6189632612829082 -0.945875942916616
Ni 5.02709610538574 4.156165125460421 2.7973011467101427 -0.0832230097863986 0.9189379808751916 -0.5384247403072082
Ni 7.0637124402888904 5.942889663568715 2.617712447097398 0.5550309814053215 0.06627172664404071 -0.6365295523014457
Ni 5.0928252094579936 4.543050593684802 11.45363330617085 0.36007297043576053 0.3175428103830338 0.6715181525614886
Ni 5.648415679630314 7.933060567150684 12.553824723817295 -0.6155416371958689 0.06755753533499978 -0.3335967785221029
Ni 1.6415000307484338 6.486956963438564 0.3717470615248168 1.355798232774336 0.6072732265394896 1.0711274905289745
Ni 2.733134996977188 1.493534926370011 0.34730419227411385 0.49586192724433314 0.16465344644874869 -0.7564584021493101
Ni 0.5181881045249298 0.09483370171690716 4.849548833981212 0.4630541366856928 0.1570769196530714 -0.32559242016038764
Ni 8.558631232480156 2.2767034875787933 1.3951357350665783 0.22684637503772542 0.40868764611967034 -0.24310088922337483
Ni 6.869446622583666 0.7784028167563712 4.8599540577771005 0.2813943854869347 -0.7986738591750955 0.22300797512824175
Ni 0.8384571664740174 7.459109135557718 2.569645269751701 0.08040199539783573 0.6929002177816905 -0.46512516028210865
Ni 7.678076505928598 3.931517573810144 3.6512105770340346 0.7459238211665734 -1.1366391990785392 0.49873822035086374
Ni 7.481196719449893 3.9572140626871595 12.58260461046206 0.9851441443886193 -0.5154889574466412 0.16222066863753995
Ni 7.803058583824622 8.92718273979158 7.0148104210131175 0.5494432029048989 -0.7317740120287526 -0.3445944151841872
Ni 7.098571387185061 0.5737236348680751 0.4765219849681329 -0.9119762048453778 -0.18528294977364218 -0.43171676002499204
Ni 2.163624464720487 6.533908907740074 9.158850923144193 -1.3559075046586906 0.2654975117510202 -0.1479140222068807
Ni 0.12309350806937022 4.6695883900204045 1.441429212493661 -0.25675036168600945 0.5029620286242241 -0.00873275188730754
Ni 6.558004453804266 2.1299865759018943 7.126367191468044 -1.8822182353111843 0.2730077040851363 -0.9434729899020784
Ni 3.372833756507962 4.243737601809335 0.24490716637594645 -0.4116657549113878 0.12205463794161561 0.43107115602119306
Ni 5.936901956551262 5.444227634435443 4.791300745730915 -0.1045305130149232 0.7897449321165819 -0.19649090267431968
Ni 5.489180661439585 3.0617443378398606 9.322261959960237 -0.5393436525770517 -0.2612958149648468 -0.27496791313530067
P 0.2105393561732023 5.65324564269273 12.375679586198483 -0.7995076679303005 -2.015703740797561 -0.5281760659960065
P 4.036338626114169 6.0948435576672235 12.619313234223892 -0.02043358526400352 0.8934719753936032 0.10720754562645408
P 2.52617017526516 8.46005114368375 1.4860014502750918 -1.0097560294000285 -0.1322359493499916 -1.0921819972064286
P 6.3289972725733055 7.689265015869065 5.774904633642813 -0.7248708571510162 0.6314886474434285 0.04459321322934256
P 4.652945820666758 0.9837929257920568 12.452420825155555 0.5080911223206734 0.10430502726767843 1.7243954386310238
P 4.04976122009287 6.299293904226906 8.063544642295524 0.34788465589968476 -1.211105288607914 1.4641005541268655
P 4.838854174196564 0.8438252995780332 3.917044869884726 -0.16622593314219114 0.2217936431051664 -0.1386624217016257
P 0.12416170776538413 5.692301411425907 3.4693588497841796 -0.37513706385773454 -1.407728345984724 0.09062058780205037
Ni 1.5327263682229182 1.1680551121357956 2.4073992127904136 -1.1589010958005332 -1.4794700946044004 1.061223086931069
Ni 1.5701902390179194 6.524936392088543 4.841896870028394 1.4296603701711248 0.6357399665206148 -0.8140899366198496
Ni 5.973768865619448 5.787770063343154 9.334917548568725 -0.41218126109522557 0.502749912613418 -1.2015636676660661
Ni 8.51866193140746 2.438489160420461 10.248637116994749 0.18519090428046817 0.4616531425731082 0.013850789840163242
Ni 2.346222394128861 5.365030712011245 6.914160864897083 -1.5690421865372783 -1.0459985566718308 1.3991789137528161
Ni 0.49426893351638784 9.102580948979574 9.173571456634988 0.7021147944014231 0.6056817136826537 0.21568650176616402
Ni 1.4495406560786335 1.2851591042127828 11.354347717151844 0.6284292917918144 -0.39798954297587585 -0.5684976484331886
Ni 3.862722257231974 6.4995293392002855 1.604165501660909 1.021459433879886 1.2724721217511696 -0.7387167618951729
Ni 5.536412996855205 7.912962855681227 7.837133340088746 0.49162449212421777 -0.11067596379102876 1.0853351494879242
Ni 5.600396440120256 2.85218363710365 4.770451405178149 -0.5905332880769893 0.2741209917539731 0.7928333412339184
Ni 0.8822379777236853 7.572911748387922 6.899612184024615 -0.4461601891438316 0.846696152690645 0.3328583576941816
Ni 5.123288347274885 4.367118736892534 7.040981765809191 1.2378049093862875 1.4623851140976556 0.22764367412804018
Ni 8.101693210101434 7.366001195923786 9.290543393542103 -0.23947331977311656 -1.1078878379774597 -1.1101246977277783
Ni 4.549065435326201 0.4957957083570919 10.36751480899035 -0.28007618089614345 -1.2620601823892263 -0.8141313313807462
Ni 8.05399958607873 7.2894091973984185 4.625573316517335 0.7463120577439276 -0.5403854635780048 0.008287693930088953
Ni 7.237952905521847 6.1103916971883745 6.868515904982313 0.9490893076475913 0.1893244668328675 1.2064665042843221
Ni 2.3235288036352206 5.148017034564488 2.6879142416834436 -0.8566126404734087 -0.6403263003397166 0.0028158721822403115
Ni 2.2727327876080055 5.388927270833165 11.454229363410201 -0.21853399851728814 -0.6933352484365801 -0.3178711402567299
Ni 1.259118910099116 3.156371816414777 3.7443139942306414 -0.6289648525803103 0.5506991867991871 0.6427711623357834
Ni 3.644107636972394 2.212068813339035 2.6992329978188527 0.4268499188509939 0.7612051728056761 0.04503904251750953
Ni 0.9208677328609066 3.3205453361637067 8.214551538018311 0.6135739719465368 0.39946818440393134 -0.03320528310737507
Ni 3.544451208092789 2.849090289973788 7.211462276650673 -0.7889250073184477 -0.5841091297182005 0.021353268864795483
Ni 4.03540700402535 6.526519245152069 5.9631764129183304 1.0376476136039743 2.1563356275207313 -1.2327454925855095
Ni 0.7108213223560597 7.520143949687285 11.37706482431957 0.28989085299372014 -0.46827090499994195 -0.8966799408079396
P 0.27057199819169153 5.889425409520126 7.948307512346033 -0.5034235416416749 -1.3445879658808135 0.30028222353037315
P 8.410340512614379 1.742540325449293 7.984327821147097 1.4076787236937112 -0.3644908969977981 1.6147535725314641
P 1.9459505114243736 3.2982949445278544 10.284101166004918 -0.9469272669992659 0.2654401761505235 0.1441617542533001
P 4.012469201916195 6.0082750624043175 3.77871979290691 0.4805229828944176 -0.9105163324703995 -0.23009547810264244
P 6.979314714941677 4.173187579549313 10.44947222715734 0.8527469868704153 -0.3062690372414274 -0.15723452827685822
P 6.215294153364238 7.925001583838674 10.231493461585565 -1.07867624941051 -1.0402580546436277 -0.3305749609766436
P 2.5673967139140292 8.368444653241506 5.712844130728081 -0.6853576295477422 1.3362398510264342 0.006993657709013761
P 6.777315529411798 3.8153180691980286 1.476695178749023 0.6759885296280164 0.3525393810628767 0.5920088441812513
Ni 5.123342616522778 2.7573571712864617 0.542720518034655 0.3434577304765827 -0.8040659767249443 -0.3334602529442386
Ni 1.3463929055846222 1.0494134913685258 7.06770937039616 0.23873361339361468 0.376717520970977 -0.48144832292216433
Ni 6.8321636492816396 0.7250507191534271 9.176431445998912 -0.48249424768817556 0.11438298032897076 0.215032670232249
Ni 2.6741624142675287 1.5307003163016046 9.095599210238223 -0.31760348841764013 0.03937618780477734 0.8300963393504349
Ni 6.427984380728905 1.8074101664299183 2.626754608283724 -0.30558615224178987 0.6362022508690139 -0.3962761598291949
Ni 4.095076042082961 6.918442708555787 10.54608324674272 0.8943206965471437 0.6469898284028212 -0.03762243833846424
Ni 8.124721460957076 7.078654573208577 0.3018862587130276 0.47728416424214576 0.692849052828781 0.571385511503945
Ni 7.5776693524531495 4.06496565437737 8.270191084419917 0.6657411408683953 0.07823121299876204 0.11932001261927193
Ni 3.1441431458897067 8.340034701969874 12.415790891803166 -0.1684874754828582 -0.44861739243507254 0.39319957778640025
Ni 0.23738997105539464 5.0827673088486165 9.976527490112774 -0.30216864191980863 -0.4745575093396021 0.7666363711235764
Ni 8.662692515313688 2.3453902656611785 5.839902911843451 0.29383158280902294 0.7504484485098044 -0.6989081145386673
Ni 3.7004752957832214 2.657212319175826 11.418857572121448 -0.3762778623303971 0.24583191500129276 -0.0608443849808823
Ni 0.9967090067904301 3.384809170542868 12.655679057236538 0.061361690936933035 0.1365698008386551 -0.39104319356502976
Ni 3.1016865042886117 8.473880757021643 7.85924082270515 0.2764853782210916 -0.17492963156377617 0.2988424057600531
Ni 5.751011692770754 7.76424702670696 3.556888815222245 -0.9182319559471025 0.5444074402532044 0.42910683320597065
Ni 3.196711957348072 8.017404023250005 3.560198334856212 0.11785602647923575 0.8102669633293336 0.5207928861580579
Ni 3.668365990780263 4.608092287283752 9.527663827332967 -0.49146714061074714 -0.449386152280297 -0.8915544466559161
Ni 7.263387093034049 6.233438171909571 11.37229907986716 0.37339385591438273 -0.4159582116391546 0.36982670738841467
Ni 0.743809789174874 -0.11425576105010518 0.019223976578391047 -0.09186217351863535 0.010987866470071399 1.4961899784622426
Ni 4.555234039836629 0.2516546428638921 1.5629018790259803 1.1091569344978705 -0.8516295854365203 -0.19706760111339608
Ni 6.0135934486977645 5.652567277094077 0.37553415054023614 -0.6907348346992556 -0.14288211620992813 0.0911548630389656
Ni 7.7917886700123145 8.816808134453241 11.304533070024014 0.7350848215695405 0.6811708451599042 0.7943909155290254
Ni 0.2397859583498408 4.8119908964898634 5.6440985609604795 -1.2480019045239474 -0.08002661433628798 0.4299966920100917
Ni 7.911208149999375 8.868988016301712 2.750186394664956 0.4028432715237513 -0.34876525873242514 -0.6159041627416103
P 8.54439459978307 1.7148901436481536 3.6290632969691767 0.12824585435399205 -0.24329963549774228 -0.07967180210003054
P 1.9420702602000723 3.150745904383273 1.5364790867146723 -0.9162432076518479 0.886587332458628 0.07508855360472229
P 4.714143442540003 1.3222611800218356 8.250665009028259 0.2642692957708739 -1.2299327057270624 -0.5527840943526738
P 8.600698944471356 1.515468747393159 12.424263225886623 -0.5380969246541443 1.2890763059667543 -0.016041112623262698
P 6.378246615035589 7.672531997768932 1.4329306482737227 -0.40165670741481796 0.39143528679712586 0.006175275572776461
P 1.7332331494357593 3.2859848701309455 6.106108044554739 0.2301193893620424 -0.8284883714333667 -0.7089379879708435
P 7.14233953561022 4.1237573395940545 6.034754837425911 -0.5867002874841444 -1.2284692338076584 -0.6067322664343551
P 2.37818698113744 8.389220730309617 10.29634702179182 0.0810170032740153 1.4847768515292945 -0.6381382915494622
