# total energy = -381173.7085303422 ev
CRYSTAL
PRIMVEC
9.17779681215257 0.00000000000000 0.00000000000000

0.00000000000000 9.17779681215257 0.00000000000000

0.00000000000000 0.00000000000000 13.43263334050463

PRIMCOORD
 96 1
Ni 0.14591319852932136 6.937606549466702 11.606103856477143 1.405778935567837 0.2872526440399246 0.197125450934525
Ni 2.780936600734288 5.144742348044815 1.5574739109391162 -0.09285693333173685 -1.4123069664943417 1.3589781731642143
Ni 6.934366787282794 2.2266986445757078 13.538885401938982 0.9004342656440493 0.7296083718360015 -1.5167598321937943
Ni 9.295823018675248 3.952665886908358 13.340847825655318 0.13648649709622945 -1.098936542321443 -1.4157113641902006
Ni 4.633217857053103 6.1858807670381 5.885307012082907 0.44568813460341955 0.4425770997782636 -0.6809790408640725
Ni 8.82038562373771 4.100566078391832 5.16678190869194 1.9067288188580387 2.228501865272336 1.7367331342607704
Ni 0.9367501609769628 2.793840582690587 7.200079599803558 0.08822843342078998 -0.33931953993849306 1.3942308257189215
Ni 7.900540964015018 3.596117668544009 1.8166291878213476 -0.044020114334691926 1.992624490380594 -0.9151553739043078
Ni 8.67143916344697 0.4618386537820259 7.648916986985802 -0.48703455876069024 -0.9761234289472478 1.7663507000168868
Ni 2.617195532396921 3.166248033501939 5.373187799874434 0.03985107055866685 -0.34386756432049165 0.7699608075111192
Ni 4.4377307904320675 4.095600890455589 6.841682973213036 -0.4761667628082509 -1.0604137036558963 0.02120311644017639
Ni 3.6190162709486793 -0.10981233578031449 13.720762714048643 -0.34681816230838336 -0.09852698713332063 -0.3083061222761142
Ni 1.518420551038373 9.1349729562527 8.584298738496418 1.3828069001526957 -0.6433740860271049 -0.24063288729885654
Ni 2.973679506185386 7.0976856769786325 3.8686523372440873 1.1708348711236416 0.8590842419423528 1.5048054880453956
Ni 4.681777578625494 1.5966153776867875 12.446637669490336 -0.19831484325693588 0.9907697181055132 -0.8835958539304718
Ni 6.785998528175017 3.755095460469342 6.118564382646302 -0.5143322181343787 -0.1343609661127944 -0.6433296059424145
Ni 6.568154349146053 5.469452790159945 1.028747475864409 0.3777482762283365 -0.7700276561933126 -0.4586302965863843
Ni 3.3888279555532708 6.023461301404651 10.347533341520212 0.09602067577169915 -0.9347032141292483 -0.6422258313552746
Ni 2.886683172640747 2.582558528198433 3.1422416710530823 0.32532116877687195 0.7926322809667059 -1.3623851419632342
Ni 1.088881316672282 6.717009031471245 2.6950159049458926 0.8268451794029889 0.6321787315319177 -2.358310436127758
Ni 8.582240158729135 1.9103032861393883 6.0287541366779065 -1.7433802072636426 -0.15297626722113652 -2.154934633408147
Ni 4.802428892137238 3.9445343591606474 1.7383040364618523 0.577763904226463 -0.9520594460195088 0.013568996933686309
Ni 0.7672573675385913 8.81837568629217 4.009547116617147 -0.15934257575879654 0.20986012489237402 0.6315984335484155
Ni 7.774125994266748 6.302190982779339 9.7674984348049 -0.07718528823275095 0.8782366465010876 -0.6666348563272584
P 5.615242088435774 0.997360329426039 10.373740539582954 -3.1848715086314243 1.6120770541405656 1.2788194041254364
Ni 7.596746720248683 1.6633012474552593 10.622566206442555 -0.27385231147361866 0.6788398830338825 0.4089442422151667
P 1.151987845784312 3.292571225284659 1.6692328573687416 0.6705403620292516 -0.09840563106410795 0.41468551557431804
Ni 6.793487610163879 8.049643446847194 3.5042378294524665 -0.07993482595343007 -0.18502172569245554 0.20754458938531997
P 7.297293574252854 7.476480874192249 0.328154869162213 0.6075660751895601 -1.146564428612051 -0.1779311373942613
P 2.0966492673916663 6.141717210015545 5.618655310974571 0.3737671800934015 0.45382670455015395 -0.42718390515164495
P 7.852256576339277 0.7284573148227654 3.8547360443277743 1.2068035759087667 -0.08118438208981503 0.8644527053431177
Ni 8.926765463606463 6.041578271804178 0.9505856892835924 -0.24896866085806155 0.37413407651451697 -0.8777375953774819
Ni 8.997205052165922 1.6158428614694667 1.702761183743388 0.9341486271773589 -1.1578482290559864 -0.06344248472536171
Ni 0.9112625021641327 6.125187998420029 9.250812351030667 1.7665918694934155 1.0855611494558013 1.2100143695365806
Ni 3.9272709238407337 8.93861399895894 8.408116249149122 0.841035354860442 -0.5138776470954635 0.9424651174628542
Ni 7.584696273371997 2.964786221323612 3.8612908266273394 -2.0453830130295483 -0.8358630666308831 0.5531353070445054
Ni 1.4356735372986893 0.39495270804865557 6.293510622797641 -0.6648399692103648 1.01927219642058 -0.5913483277791171
Ni 0.08928619378510567 6.731519127824666 4.641565980799513 1.8267618541150927 -0.32023989759922267 2.8342260021571506
Ni 4.714413823174996 8.459707396923621 11.21686616234327 -0.8298374292620934 0.023564417583501356 -0.2675767628775521
Ni 1.405441875446591 -0.199798795442565 11.53922249964205 0.6518255592285678 1.1202466166531286 0.7258820720243498
Ni 1.77043366664152 4.843618843075979 7.21028806291166 0.08497701636302785 -0.8648473696783752 -1.6780518183694777
Ni 5.536707683314826 6.874343997813237 8.795714788818273 -0.2877090148510529 0.5918147258925742 -0.9649555852558865
Ni 4.82835616740505 8.421169829189267 4.795006808063227 2.548388236186882 -0.43325402260512474 -1.1621062330013923
Ni 7.657980978863498 5.681680157697261 12.177809912818812 -1.2894655709853726 -1.0237556861132304 0.9308234194588679
Ni 5.670088600648325 6.256311177801003 10.960934127611148 -0.3091304179496224 -1.0639718533207998 1.239667159406007
Ni 4.424358740851464 9.003629509754406 2.5004713980310527 0.28226933189272035 0.27627634753407904 0.3092227205531126
Ni 6.0450383011054045 0.049781286293857405 0.21720999328701424 -0.5893642074695528 -0.4999121860543068 -0.025756540138813705
Ni 6.441041866859605 1.5057001250131732 6.764807913709228 -1.4303792506150204 -0.02229095018771645 -0.35543804276691043
Ni 8.927123397672107 8.722183200599444 9.989714916112655 -0.6444300380954451 -0.7781351157917953 -0.36151793041240315
Ni 1.8685167784245722 2.833057307370009 11.54522753192797 -0.7277695188550499 0.9865631362233332 1.4544229218277855
Ni 2.2174107144620696 3.849856209899492 9.236480303930415 1.1014251130712516 -0.5092265214766971 0.37235615867848776
Ni 1.192535350964206 4.49580788703197 3.4802608359525857 0.16548879786585047 -0.13981273325598503 0.1496096647417488
Ni 2.962179727101998 7.232094507526289 12.303472303249574 0.7844294334409394 1.5982630310756087 -0.8482508987722747
Ni 4.091342392854079 3.6479263300968614 10.993871403887654 1.0980538826061734 -0.6965902650387681 -1.7577429037432177
Ni 1.6339598318689939 1.2560365253281003 0.19409663044295705 -0.6175854070987752 1.5772239510171224 -1.8742326460025465
Ni 5.145531638548543 6.5702468867605885 2.462981016883622 -0.6557637179407094 0.5401003282374182 0.39301137303499406
P 3.192221197752527 7.173586054488302 1.7146354169262188 -0.4429938756007081 1.921289233170717 -1.4247590762147655
Ni 3.2034089317530454 6.290535181154517 7.853670874788399 1.384928317371073 1.412663578502812 1.227016303411216
P 2.5880468505383107 7.949935865073911 10.007620797191416 0.2450554418465844 0.6008781216464232 -0.03980453359144758
Ni 6.8033904526467 1.2274201556696782 2.0931672113787076 -1.303024026396098 -0.9878278618683697 0.9270953198750035
P 4.648737511027572 4.653161208967071 8.923042949323763 -1.2814357587023608 0.5656426954828967 1.185037902096901
P 5.949616750323296 3.7984146602088393 12.568323320673825 0.31258186683333267 1.0245280455028807 -1.0159055939411925
P 1.571890393767676 4.964398645739493 11.1033469145344 -0.5194579693967184 -0.16992575059128154 -0.7735472393107968
Ni 4.151759827575501 4.87077594308216 12.822751114550588 -0.09907874587173258 1.1811614498606304 1.3473256765269506
Ni 3.0633741119171876 1.3665371958500383 10.372303296642443 1.5006726968239448 -1.2298632859417078 -0.8058968592860959
Ni 5.3161560543021436 2.079358298682087 3.7068964263015625 -1.2845899880606264 0.4020559997357656 0.9353292777490213
Ni 8.03282054576192 8.46411273927001 5.650558249579331 0.19312044354018998 1.5748227977747975 -0.27941309339084786
Ni 7.748850342554338 2.682633221833916 8.399586405030925 0.2244817314602908 -0.19186394542526958 -0.49513019128463115
Ni 8.073331339755592 5.816446922310561 3.1655477676247936 -2.3776754709179304 -1.4913071964486444 -0.9789891805308172
Ni 1.4048086074842974 8.130040944668803 0.48886818241609226 -0.037416235864929114 -1.328211581405319 0.35002792749493267
Ni 5.8638502415170235 8.50242086209049 6.810237088876714 -0.5548533181768767 -1.243826175879703 0.7129393958207528
Ni 3.220910989783389 8.128590852813117 6.246402828640249 -1.087121809074702 -0.8384549957277754 1.1360761274862177
Ni 8.82779210555758 4.931459533903677 7.805501209569597 -1.5759222014865635 -0.26769143407854545 -1.233556675632895
Ni 3.8252872485218155 4.788983420184194 3.9418599492445265 0.14501098962747283 -0.40970863118501694 0.4145705872630086
Ni 8.718787415874102 8.353364268241087 2.0115499843949416 -0.9357550524325304 0.063087158268472 -0.44034409668268676
Ni 0.656328093917536 7.148796825993307 7.057424519051254 -0.06499054593877195 0.6733153536712275 -0.1605913605642331
Ni 6.8774093818626 4.095766090793579 10.452724656735095 -1.4430257357344374 -0.5113494813569709 0.6179361055699745
Ni 3.0797564787678238 0.5322112444266325 4.5144663474282405 -1.4180420692059061 1.2090257803710662 -0.7078653237319551
Ni 1.8546399500334454 5.604586666635444 13.03982252310962 -2.04574219614118 -0.880714932838251 0.4988770599215731
Ni 2.9645108874269623 1.8609542740632703 7.9094030443685055 0.4058902858801913 0.22903618360019265 -1.2368852257854954
Ni 0.6485379802016705 1.8238392647949384 9.712801520676194 0.22739864799676965 -0.5463792192675945 -0.5802920699649554
Ni 1.9737769271136176 9.841351245903153 2.31078928773104 0.4635539591402469 -1.043845771994886 0.31033575111163325
Ni 9.101730977130568 3.971774059335823 9.905868402345684 0.11504298251047285 0.808492387927414 1.1325254340204818
Ni 7.188086973045168 6.292031161992979 5.560479094171874 -1.0201024056313595 -1.0541695225183976 0.5840492230145425
Ni 6.581884332792301 4.798895440463571 8.114653450964727 -0.48727701378879945 0.4385008728263609 -0.1943319473497879
Ni 5.112151992478087 7.030632695347961 13.339115057665738 -0.17624063706571583 0.1897690105694538 0.07114730956878715
Ni 5.224671778242121 2.493038300601176 8.672981033268204 0.2808254003573422 -0.24048427753613422 0.8288760937900886
Ni 0.5746925113406601 2.0341851840384844 4.080766817883777 1.6365362156241945 0.19756870911953073 -0.6546244621299435
P 4.63477808246745 1.765018766674083 1.2855055122864798 -0.005237851360171624 -0.618942949567934 0.7078501542233036
Ni 7.081211532162446 8.219368438538407 11.494586286096911 -0.15426567545652142 -0.5692854344418067 -0.18574780522520268
P 4.334939469016311 1.5946972182067969 5.864915783697057 0.2562160864490942 0.7620063285507328 0.7188274791704137
Ni 8.3676724530703 9.327945306617671 13.153852056406949 1.2519002111370892 0.07088120039159405 0.26752636925559087
P 5.962933733124569 4.882321611148322 3.462006198604734 1.3545659030291315 -1.0510240349108801 0.6678206491052433
P -0.037327934148407446 1.7745636750912601 11.998874084505024 1.6555343539932519 0.7788208290049102 0.6443343930578451
P 7.5648722328132445 7.372946151255539 7.674009082767112 0.1320395170684694 -0.4186511850902854 0.35175519459868454
Ni 6.806923904320367 9.278476983186339 9.07197013624174 -0.07697908575921582 -1.703311107156899 -2.432568009190753
