# total energy = -340862.59163470834 ev
CRYSTAL
PRIMVEC
9.36176603997304 0.00000000000000 0.00000000000000
0.00000000000000 9.36176603997304 0.00000000000000
0.00000000000000 0.00000000000000 13.70189090131677
PRIMCOORD
 96 1
Ni 8.394367972992239 0.47899008007913924 5.87602855961975 0.7512287783192546 0.45278257955635576 -0.8275000393781683
Ni 6.572643189934457 4.519083631923733 11.60065114894557 -0.7158995068903412 1.1780427017259905 -0.6090645141119575
Ni 4.802005564319665 9.255697260245729 11.720679287903296 -0.79098497517127 0.5147104274094039 -1.6511480520000983
Ni 1.1973698803295627 4.469166695239471 7.039004247585413 3.022433838887072 0.28067859036683274 1.7755683619604132
Ni 4.795592754561841 8.888584965583934 3.566698063168777 2.3618647291379196 -2.7138924606717003 -1.2442596638726957
Ni 7.14721222070339 1.2511625881667297 7.745610690826434 -0.7525302707394975 0.8092323514172323 -1.553803772320969
Ni 1.921324612274562 5.61563665344744 0.8966091026875948 -2.485746907206577 -3.865190804424311 0.6402915904470392
Ni 7.202100255170726 2.319049881984657 11.651745795801416 0.4933700140604149 -0.4454739617100844 0.9218687813687415
Ni 7.127393361933588 7.76898327599634 10.105226977544822 0.7736919924187772 -0.8809812991257602 1.777138020440378
Ni 1.4057440695115442 6.557851599544147 5.685928537806052 -0.524249991468723 -0.5039300489644483 1.7319534534839398
Ni 5.068591214923766 6.420130658891073 3.4463272835728946 -0.47037072495176413 0.869647876390812 0.1282481683468372
Ni 1.361902919006592 5.648150067007913 12.278606843306523 0.286499567923984 0.06789486406976049 -0.4206299060832111
Ni 1.550121225840258 7.643835187175029 0.2433534919252446 -0.19938596483392756 2.3465234707951588 -0.8429400280823224
Ni 3.5057005401642796 4.826945309129657 10.878054809257298 0.16647121638377782 -1.7326229687471388 0.511203699807726
Ni 1.2852019695965833 3.22877013805303 1.8942045121469098 -0.5955148004519808 1.7152669939671943 0.4384404519020707
Ni 4.965134338086223 2.8587931429738718 4.71714958048624 -0.11236157902356776 -0.9139922068341421 -0.5611671762100464
Ni 6.541187655939873 8.066940204700398 7.377906732549029 0.16055845044376865 3.618869351381109 -0.2437413510208512
Ni 5.698600624358155 6.964470547020567 0.994640836087681 1.2177657313472254 -0.7784673023202334 0.4502325594409924
Ni 4.180178338430298 8.28503190706285 -0.05143447896418022 -1.32847383392777 1.4391235724665539 0.5978653029620284
Ni 8.426572448272408 3.3133162474295452 2.846595697961508 -0.7852282751931509 -0.07139259281037381 -1.9201312083068738
Ni 0.5697617638920824 0.8795538372616026 1.7176004122994588 1.3560779687982838 -0.891448260095355 0.39448024427103673
Ni 0.6987631556277294 1.3683157287644168 7.365725202538983 1.5965619892241019 -0.49464630966967715 -0.658986081532749
Ni 3.76776445775666 0.5247194988003732 9.4927521559592 0.032715487955150106 0.25958140337690133 -0.3034220547109355
Ni 2.725144570561168 1.0496880205782033 12.03661829687426 0.913152741651982 -0.8912348585329685 0.10972748383483039
P 0.3632430767451389 0.46663722975001604 4.09346778873844 0.43547699839837256 -0.21698336620071662 -0.39167825604586737
P 6.1818830741803055 0.42345421139977235 5.866272663198394 -0.515052641240171 -0.2175407813660834 -0.5306391828245184
P 3.6557415649652323 7.462900334343681 4.987529554878438 -0.6680178527177141 0.5366388520513791 0.3184992607590321
P 2.526375553366819 1.9362472673898499 0.9075614328126733 1.392961986308827 -2.1072054456529834 -0.16761021508422747
P 9.082223734972024 4.696732504864576 0.929852734001514 -0.0905208289993925 0.09288418702524649 1.6531900221307914
P 3.066409029104198 5.907995246041747 8.160736675130499 -1.0617375646736424 -0.41627240044546376 0.28294038981781594
P 9.17236818045829 9.067741082862018 -0.0343464473569437 -0.4757175910859743 -0.03441190182096654 0.5126684572787106
P 6.726438282929406 8.179281397538197 2.5491817516894995 -0.7795808470993864 -1.5889872622006376 -0.380450505650848
Ni 2.242648509088882 8.192415955334152 8.586865543096417 -0.48673373969081973 -0.4932653701617504 -2.2176194140318777
Ni 5.188403097085282 6.326138527550111 8.35601562593402 -0.16370548071318258 -0.8147357977339647 0.5221103194179009
Ni 0.8373818896468991 1.6762335765667593 13.220255402556006 -1.480199002350625 -0.7331559799779438 -0.10427391691942688
Ni 5.832033876151254 4.52177045878577 2.403462118106374 -0.05916262640308521 -2.0482703618796725 -0.049690939467224096
Ni 8.029296543333665 1.8569156617142226 0.3232702079802353 -1.3891235863993432 -0.13805307025240093 0.40366088232904035
Ni 3.501197530684698 3.409901587971844 8.347712675606699 -0.2570020726854993 0.5325448844876635 0.6946372550774553
Ni 2.2605669293465116 1.5014962128736298 3.481143691586543 -1.8316904017649616 0.8756940825848918 0.7900169548310458
Ni 4.044741668698259 7.047219197311678 10.884315958404793 2.0803240478811076 0.8427150565557099 -0.8502638154372454
Ni 7.707485834683713 5.792171476225973 3.0215549355104923 -1.119141299404092 0.5121902320907114 -1.2628232858074961
Ni 6.807539262392229 9.403987634791626 12.543272395689705 1.767769948961917 -0.863847467658951 1.2288291882502385
Ni 7.279381634077063 8.020899039169038 4.731605083474644 -0.7712730985646394 -0.11130691250680831 -0.44322347511301086
Ni 2.3545496989214016 2.644923597108908 6.176922274339909 1.2575039304771118 0.1530909384221299 -0.548951350870145
Ni 8.836280778551869 4.920581693359964 5.942072074535879 -2.0425486289045467 2.451474616287268 -1.9368096974038191
Ni 3.8889244342322282 4.823986991051595 5.250345222286224 -1.4991194934042116 0.8886038486680244 0.2097490532358065
Ni 0.03340933457335505 7.742995013386529 2.367947322343917 -0.23773011182976478 0.22610461177569446 0.4319728418998561
Ni 7.22232166988153 1.9594644472429954 4.349350132194921 -0.6175324423736526 0.2498569770002858 2.379655220352121
Ni 6.9691888771197545 3.6148680943044127 6.36363801771937 -2.8888148931466247 -0.07972502393546914 0.17430613904716433
Ni 8.317573405921532 6.693288269276186 0.20227031770446077 -0.1547125331859529 -0.11620332136716117 0.15409212599313463
Ni 7.897099044661782 2.645756794289122 9.451140041955473 -2.395799434212151 1.5165616001400593 -1.014943487138239
Ni 3.807505154723032 3.717435603365325 1.3535082233717874 -0.5264362004867643 -0.0995410302201318 0.2932651687825917
Ni 0.14762568915494034 2.092429610732603 10.829357710691934 1.6828397266764241 -1.3138612262209177 3.09926071533914
Ni 6.4253545243580295 0.8480524306132762 9.889230438428795 -1.2584745219204971 -0.6042066717990239 0.4464301549757666
Ni 7.266649632222113 4.967858612012539 9.089040036847457 0.6156498806389591 1.0997101872626738 -0.013622475879441057
Ni 4.99331325395637 1.9926331844283562 6.857494582317378 -0.036916927631007394 0.17429919706862887 0.8754079188030408
P 3.0567476865201475 1.109434811635774 7.4296173836122685 -0.48406339194750825 -1.6207750961351957 0.4830925433938067
P 5.71472158553038 3.6001982068730096 8.386914134847451 0.14652896893389603 -0.34821015755990353 -0.015091604225799816
P 8.281811459534833 0.20826746504878535 10.891441198560532 0.47457242173793757 -0.06683119869193652 2.356448700328671
P 2.425474438666334 3.6424478571460925 4.249668855613333 -0.9463785935846476 -0.18116892760526865 -1.227438478550299
P 8.96848763898982 6.633195092874032 4.416201567522875 1.803583102005784 0.9962595375754907 0.8585689928688311
P 3.436376662417286 6.575826190398194 1.6652868635013227 2.9427887762599187 2.1514610730372494 1.1081107526215432
P 2.544041205940563 8.058861000582146 11.93884120351127 0.127268063821755 -0.2769468912385424 1.6820581113153934
P 4.45180998094603 4.007987375108157 13.081880074454652 1.1132213343752313 0.332047431757112 -1.8324434778809022
Ni 9.063706161685927 4.058568997183378 12.640679699292935 -0.8998231144226116 -0.9958137082873237 -1.161286051092942
Ni 8.82749008021231 0.44252974594363087 8.988687521638663 0.8427101714597035 -1.0915222521352426 -0.7605176598203482
Ni 0.3473327553094853 2.610865492146915 4.796306121136362 -0.290780454687525 0.06518389289650064 0.5158373419249955
Ni 7.9217204894254 0.547711060091236 2.6946823199465912 0.3629428357843878 -1.002238895087377 0.18281854739354966
Ni 3.9314830227856152 6.115835814557749 13.098377378622883 -0.380906362241344 -1.5252416444125603 -0.22003320877063395
Ni 4.675902575359234 2.6283345476331927 11.153106304918337 1.207967514309881 0.3255649093565619 -0.3273708522170491
Ni 6.638559384832037 4.218655196977244 0.2057060858520835 0.4866159831660329 -0.3412836056433994 0.2859051288730947
Ni 9.32925265625628 7.603635763671236 11.876072434366362 -0.3917456189486931 0.9988200992138153 -0.49245058756993904
Ni 4.369098777719199 1.6007590185118967 2.848143197892848 1.3144065572014265 2.077860159721647 -1.593169161492469
Ni 1.8773711205767722 8.828828812760294 5.947456026202632 0.42457397833262367 0.8662550486591791 -0.024983409418215037
Ni 3.0407952371371794 9.193993860079567 2.0027092532493 -0.4227783198847816 -0.6205786853991441 -1.2231257101075579
Ni 9.391630103579468 8.237670732515646 7.1852303527129155 -0.3948414842651974 -1.092386914128383 0.06650595414203385
Ni 2.0843972154447 6.578325781938836 3.5916902338687597 1.5332915113002303 0.6853164918971616 -2.169218654130987
Ni 0.642997923679652 3.1519287621519743 9.021612852906209 1.8487399010480805 1.6950609513329644 -1.4804725677269859
Ni 5.347843335020331 1.9884859220594275 13.265471796496614 0.1452956107474272 0.28126711588045106 0.6623159172369304
Ni -0.17971595088905823 7.27339010379238 9.289457661046702 0.7563337036459877 -0.7896670276907949 -0.1096133268544693
Ni 1.9835148242763547 6.38549212443275 10.111968385291696 -1.136904279814468 -0.012491704709107519 -0.8518432441092234
Ni 0.5222573543240113 4.83343301301604 3.6202726418565176 1.3768455403629385 -0.006303573620524628 0.24446588789170157
Ni 3.727209287142214 0.5826061069398711 5.024359678773704 -0.17569993407089743 1.460138227045008 2.7805907333301985
Ni 1.4939131823570782 9.087737815187147 10.50062210368014 -1.6684500336136556 0.7919002878966878 -0.2110999108367461
Ni 4.37926565567102 8.54806944832649 7.237242452643604 -1.852691943717293 0.6497951590621002 -0.46523623193867614
Ni 5.712587102866461 0.464645982106966 1.2576119088122266 0.6922646410802207 -1.027405367050676 0.40491480934079943
Ni 5.334334306581585 6.481291076625185 5.938166345731552 0.970513024739006 0.2409285641624044 -0.0750615570215288
Ni 2.2892981894147795 3.2489353821674154 12.678647277765684 1.3055465357076352 2.1681539603118978 -0.5597800660545327
P 6.626847815478696 2.239559126285843 2.364233509744021 -2.2310588273662346 0.7835187487012119 -1.911179655540541
P 6.082695162670597 4.6331286661862405 4.589023513878121 0.27949742557453805 1.5978591107689708 0.04738645970376355
P -0.06780071840743387 5.2726964387779125 10.238463632250454 0.5777667324399405 -0.5770892467569416 0.8038806001870155
P 5.325983611247309 8.288364695783702 9.397030906425146 -2.7213049510856875 0.8776445214430434 -0.5861161328459003
P 8.806847386028364 3.02288617864562 6.934472640003053 1.9138718576607234 -1.29821760614639 1.2610633656935957
P 2.8151298660242468 2.363639973775194 10.294094054767127 -2.215709341493358 0.8533727933798723 -0.6083353492554169
P 7.82518195771345 6.654942475454217 7.471038517588172 3.020412180471353 -3.8511073297480514 0.3526129146132895
P 6.665193609300665 6.9751523221062275 12.326961301233734 -0.2518508675018631 -0.6970054981993157 0.6109745866504769
