# total energy = -340892.5142173222 ev
CRYSTAL
PRIMVEC
9.03910222176017 0.00000000000000 0.00000000000000

0.00000000000000 9.03910222176017 0.00000000000000

0.00000000000000 0.00000000000000 13.22963978800320

PRIMCOORD
 96 1
Ni 6.231511987832932 1.8510816207549443 11.448017745535166 1.1559206730159706 0.6752634785365339 0.29344668866577844
Ni 4.628354867258989 0.3798917793425356 6.276987711925488 -0.27173732201314493 0.2112883726984684 -0.8494611170302918
Ni 2.794619283978427 1.8548690046537282 4.756399175985983 -0.591180177632369 -1.250398429780582 0.4493910373763034
Ni 3.445064052409399 4.462170969934077 4.664929787234285 0.08708172141085649 -0.7161021098194505 0.8838861314773808
Ni 5.153201308068005 4.814930979561602 2.516608131513173 -1.1074528073225702 -0.7746571845455239 0.9458643729523903
Ni 7.2281272602536895 6.240216643428466 2.740983058253838 -0.7553039768298927 -0.7699186414192741 0.16486736223176768
Ni 5.0127336570248096 4.523889961010199 11.668965948562159 0.8809435039092893 0.8075948158138091 0.22680163784271906
Ni 5.59731952548791 7.881708597211817 12.449686780098668 -0.38299384089799204 0.1303163637297756 0.4045229732190195
Ni 1.7740051947288613 6.433011658171086 0.5061499614385044 1.8469820378167097 -0.35930163948737476 -0.96781773729503
Ni 2.6747607863701406 1.490358161927351 0.36766729727877645 -0.33214667633913764 -0.5075766445781 -0.2246118292802519
Ni 0.588300035632576 9.113042241230943 4.599747012124717 -0.04767493747845983 -0.5638580927786482 0.9764191058107959
Ni 8.860191430250808 1.9697740741557295 1.2298105552674674 -0.6535790515845648 1.0033159302016397 -0.2916690279400654
Ni 6.897341308521016 0.7804812953233409 4.84190275716442 -0.5551849904846825 0.2520370153707401 0.017446991831853824
Ni 1.0198728828540995 7.3356925786201 2.6202495755348063 -0.1881880392355791 0.018797335212161176 0.9400721917506455
Ni 7.210040016383841 3.6863900078502763 3.902994922181885 0.6589984228279232 -0.18725318612613556 -0.8145439934381328
Ni 7.602508802783102 4.003183429092932 12.824654056462547 0.5699438939614119 -1.0627490366572923 -1.3718378027357019
Ni 8.112729975935238 8.792859156594387 6.806437767578539 -0.901453708047499 0.8503761726453934 0.4226003995460206
Ni 7.011450937013249 0.6737900581574368 0.2125617238353653 -0.631609489292009 -0.5557629744753397 0.6433974830658725
Ni 1.6179360529713447 6.619271401890268 8.961930143220664 1.5184354201240042 -0.6545817818174662 1.3247472770058024
Ni 0.07316520642464205 4.768632697152127 1.4310372447136328 0.44680450759604984 -1.7156948255332323 0.9972447843068954
Ni 6.44927300335942 1.9732902849830012 6.9403348950989985 0.22423413422585897 0.04072447430255567 1.1989028330044516
Ni 3.2344620059708267 3.933754083683487 0.3365528990534941 0.5909009558290533 1.7785097039769242 -0.4016950168519211
Ni 5.809548610355554 5.657013757630077 4.876471900320765 0.6130553804389055 0.588905008444947 -0.5080114181226734
Ni 5.187441427897582 2.9262647710951004 9.57063866421523 0.41672131505742427 0.1134434992338369 -1.2941154110525583
P 9.31479500643584 5.556833385911175 12.408965623859956 -0.04314645348048698 -0.9370395755719088 -0.08484794698433129
P 3.981299762221917 6.066304313565462 12.803553175857962 -0.5159581837735759 0.11745956237176546 0.3001392701946056
P 2.297992920811423 8.433618110557726 1.2840406500186679 0.5989325678842782 0.9295674355645798 0.05923693128444637
P 6.232117607692643 7.850044621561603 5.8645407014377025 0.7350192584389277 -0.44038240611978996 0.49839446385819974
P 4.506833174812097 0.92601988280381 12.418385272454042 0.2727886460957947 0.9071906105312764 1.2440154090723734
P 4.0141478602844 6.372549102326303 8.388623266711985 -0.434372195369968 -0.711046292563098 -0.4928179982116867
P 4.678187438700504 1.26648671318946 3.6660520274868795 0.7167384578518688 -1.273258879318523 1.0904896971056703
P 0.01216934353921841 5.598331904954888 3.5694095604409704 1.3931710169958393 -0.49317203911699586 0.25279446236205494
Ni 1.448525196095439 1.0133556900354288 2.6511533626745476 0.4972847757337887 0.7108449751855693 -0.795311884681398
Ni 1.9106493054637383 6.317853493802341 4.741661823459547 -0.5921273720369866 1.3718563146784633 -0.08029503750632623
Ni 6.086344003550196 5.631514449805569 9.291400905556506 -0.276992142654181 -0.062233809129241195 0.3024794882920081
Ni 8.58907259335315 2.1540180980433394 10.102444309949481 0.712582012481334 1.750314729599947 -0.18937588889609322
Ni 2.4874615458768297 5.309704326739942 6.873829699310692 -0.5854191067788757 0.3377213422134377 0.47151409452758797
Ni 0.5646727259117389 0.13688364694804578 9.060265634143047 -0.5710332703708488 -0.23303836278105028 -0.41375631889182934
Ni 1.61140982105029 1.2016492317909504 11.399768824831282 -0.45301603572340043 -0.031095178742907736 -0.770898231723724
Ni 4.258447680409525 7.086430291286306 1.641930350248961 -0.1999058418931396 -1.2043962520188547 -0.5891757456078305
Ni 5.754184108255196 7.755703509982593 8.130539719361908 -0.5765434015558006 0.7631013613871245 -0.7478691178184023
Ni 4.981711457643842 2.8780411598778897 5.240829078306619 0.6088667962788546 -0.7419897762194898 -0.8031421793590942
Ni 0.7576738321887082 7.271288974136009 6.950521963485466 0.16597525058396578 -0.18255372376793721 -1.1003876729456725
Ni 4.886348927495469 4.6607600493046695 7.132138320310124 0.7006731768588901 0.6051775203527255 0.3769224378929315
Ni 8.247864556572033 7.233939403086429 9.194560482168392 -0.35414657764899654 -0.6665129860374134 -0.5186120764566552
Ni 4.674852009920907 0.2284723518512104 10.38510879232188 -0.6392078704645573 -0.13140625435984465 -1.413684820678475
Ni 8.186181721905445 7.102881457624699 4.934456838202167 -0.2476309158832445 0.7893649230693438 -0.4675605091964786
Ni 7.296896751189122 5.931269163054889 6.940838373101774 -0.6282716831680276 1.0295542950728784 1.119261369921724
Ni 2.514569813925642 5.129591172641698 2.6203815464296087 -0.5555431451550497 0.14735249327645591 -1.5724614966314727
Ni 2.433796395024612 5.202871175666613 11.185237480586501 -0.9582971993991044 0.3262300537443865 1.7887493794270612
Ni 1.022855786640731 3.521534858575772 3.7578133792455732 -0.9067434956915287 -0.18039502555372158 -0.7198685188404184
Ni 3.6827743668967834 2.7947367923094153 2.636310252650221 -0.3100701561550725 0.6119153532971913 -0.6556778430951224
Ni 1.4266867247363426 3.572533474224788 8.066085495904467 -2.3173990426253765 -1.4070110082027252 0.8635091104829258
Ni 3.424165647698211 2.8848295257680725 7.165331712083665 0.8822038586789516 -1.0769687798011 -0.7338247239101943
Ni 4.056848579945149 6.869708772533947 5.9630750526125285 0.1422776498567098 1.4593429848372224 0.36478940207482335
Ni 0.9478041195486042 7.294049433938247 11.239822812061382 -0.8284575181954313 -0.5861672977988098 0.43760947136034306
P 0.1864007537163681 5.284801599672759 8.007755264312005 -1.0644076553066377 1.826378245523429 -0.01825303267291695
P 8.720916940722264 1.7456404914487103 7.830584338039667 -1.6725386018607324 -0.19065681249104585 0.9019465885235177
P 1.7897874674908574 3.256029304258411 10.383071378644587 -1.0014606221604558 -0.1799563953544062 -0.4791399865039619
P 4.036754655346113 6.313749741320127 3.7388149938554456 -0.397551941217825 0.9724313248076414 -0.25205964107855944
P 6.783846338990877 3.9398373995877383 10.626932802304102 1.4401085620876424 0.146161044071516 -0.5668264313783528
P 6.421595271860434 7.818787405518658 10.239092940235551 -0.683405390917378 -0.4938505532412591 0.2779892164601277
P 2.3827616229660618 8.551885726146475 5.751995741568095 0.16900966653491536 -0.521451088567347 -0.6017659235680153
P 6.894051075253338 3.8974892049199537 1.6453832873595469 0.5440911945643663 -1.1784386516128287 0.6365460073616779
Ni 5.2587328283980765 2.7224962860586293 0.668752566398983 0.14912912556090446 0.05003855261462995 -1.0859928376765813
Ni 1.5502874107314941 1.1320029479242952 6.968448311332883 -0.019261676443089407 0.6591269779859874 -0.8615679275961549
Ni 7.013068936339937 0.7067258355130411 9.189903536620292 -0.9316898812242213 -0.3155442918957662 -0.4852155032740805
Ni 2.709145531837857 1.6192557619193693 9.128663617970508 0.05334550550067587 -0.49374410957038195 0.774997341493762
Ni 6.404646954890935 1.5999663174324852 2.4246488234122756 1.085442621600066 0.5870445581974406 0.6078208715128436
Ni 4.291792929103112 6.750600520423511 10.65117025143584 0.12257374366987922 0.009265741572642107 -0.9219590270897026
Ni 8.422888696028236 6.816974649227254 0.7367148654915487 -0.894159488378931 1.6316400638741575 -1.1929026495569586
Ni 7.471613561164278 3.8368549061298793 8.357295545670446 0.5950005798197237 -0.6103456948172262 -0.21862141602477186
Ni 3.026418025506851 8.254969291045647 12.205639150930049 0.033636714217838835 -0.024287926013087203 0.7894484839220856
Ni -0.19473119047321552 4.912336346848698 10.274892305226322 0.6796220126155457 -0.8462906897221103 -0.25790298723321387
Ni 8.572621427014758 2.4420129390914247 5.811939452936051 0.5777088826188116 0.1586298659624881 -1.0211033360920478
Ni 3.635481783225098 2.840429454859181 11.317374694872848 -0.6748166208071024 -2.0160914631542823 0.9831703084917004
Ni 1.067888594716484 3.2599522746929512 12.581004147798811 -0.8282104351816317 0.8941710583431568 -0.2829812703580804
Ni 2.971397009297074 8.414744464780492 7.894787274450838 0.7489047581717683 -0.49931697567246913 0.8211082769192116
Ni 5.768402616304806 8.044810160623877 3.7177936573518378 -1.0387488170879529 -0.1917698430495665 -0.9308182772525452
Ni 3.216311488384293 8.587933666452798 3.5055898819708684 -0.1542204240408828 -0.7203953378781658 0.8547146521197473
Ni 3.337372186609616 4.37866774211316 9.207075119418668 0.8768389948226125 0.7681975449631092 -0.5123275289995242
Ni 7.299427699856568 6.220213109853267 11.563711024765029 -0.2824194843173394 -0.3357045688937251 0.21523733004388734
Ni 0.5002420041204971 8.902883110809173 -0.10162482027982231 0.8472129444260635 9.333104475467797e-05 1.6172359726336858
Ni 4.514986445162223 0.3449448017065509 1.4466351197870007 0.6182361533088965 0.48899759602433207 -0.17741048900410092
Ni 6.104548755751032 5.528929676852594 0.5047561318509329 -0.9747406896671085 1.9931510523080254 -0.754103014543256
Ni 8.002922960177663 8.609157478849802 11.454447259060714 -0.44581746109243225 0.7497321391690701 -0.9649905522588802
Ni -0.09845571098408584 4.878566260343076 5.676269757438141 0.8571687700871948 -0.5076422077087128 -0.01984068887501099
Ni 8.11750262199385 -0.3324238370846053 2.4280095616785475 -0.4890844993111834 0.27034275565846344 0.09972203588268631
P 8.404213910503445 1.602976338526268 3.494463650846733 0.5472657356376058 0.46412165871825867 0.15168660187543553
P 1.7331936474663114 3.0939130030061777 1.5825298889342663 -0.46478268934102535 0.17386339508279092 0.6517414841551937
P 4.7110897713772895 1.2950231594149022 8.27685928528833 0.5184804359747974 -0.8827234786278475 -0.6236892060036677
P 8.468084207946896 1.669323350022861 12.14441279093384 0.1624350986411912 -0.38769638857998395 1.6525171644334828
P 6.440098314439932 7.7163653364085905 1.312340271761656 -0.2565858110836871 0.8156817065870016 -0.05524837895034356
P 1.7360319256148034 3.4863637112006707 5.802070560953493 0.2373552449888493 -0.5515147407219468 0.4418793023802906
P 6.664213818942184 4.041771357169084 6.007076499106296 1.1838911900869677 -1.0282386615852486 0.8316230604076064
P 2.23392376311553 8.531150025278194 10.116745073830783 2.2026954457321937 0.4655470783108756 -0.21084948538883685
