# total energy = -381172.44809672853 ev
CRYSTAL
PRIMVEC
9.26108741993265 0.00000000000000 0.00000000000000

0.00000000000000 9.26108741993265 0.00000000000000

0.00000000000000 0.00000000000000 13.55453756413148

PRIMCOORD
 96 1
Ni 1.0857976770776396 4.247255103311989 2.1723177189771627 -1.7984162130928638 -0.56525728711902 0.7892859902022923
Ni 7.104411717784297 2.6548944643450025 5.399599250442503 1.3265920435240248 -0.38119278313351124 -0.9151587163384175
Ni 7.887408879268421 2.626750019553937 10.979961962582571 -0.5575174952726011 -0.8908731043181753 1.4795765382752777
Ni 5.222595790253715 4.984437665131289 8.322567004623357 0.034137565113657335 0.9185410025470891 -0.995146249906654
Ni 5.085781745206522 1.0257950914240312 11.235762459316376 -1.2314180320233372 1.4499988246181608 1.0457077649042894
Ni 1.2477926189286848 2.5087267209631685 11.510865840643147 -1.465794911110153 0.06477534460417232 -1.982410783072386
Ni 7.507444982957842 5.4651436708322 9.252978451861438 0.258824984826851 0.5996810160145285 0.2807261557753165
Ni 8.81150796929374 8.457465856783813 4.029588060303651 0.5804897877980583 -1.2015261295599113 2.3661715840433892
Ni 9.27044115837609 4.112339581194106 13.402170678385287 -0.1904200138898914 0.735078136701321 -0.34928153624721137
Ni 0.22938046642779866 2.7094515305721067 6.572527090561705 -0.6355430200184604 -0.5030250206516756 0.25125540000970925
Ni 2.718666312594848 0.9415006733627339 9.931517955666262 0.4757592429571871 0.10658199622731321 1.7443435996181762
Ni 7.698325256596755 7.894447305738053 8.650628062372881 2.1207045085806837 0.8630499114583201 -0.09528636870883589
Ni 3.435909753112678 6.208188501013706 6.242583253731554 0.49452058272509025 0.35477058438624065 0.05617500452967099
Ni 9.227219663200078 4.593119675594697 10.767710803520865 0.8493173923635758 0.5613474105416525 -0.1867867880126783
Ni 6.549811495239715 0.5679139618771378 13.499018500498671 0.7175457842445127 -0.062233037798292826 -1.891579621921426
Ni 1.1087096074537823 6.378694382240529 3.6960240643853703 -1.2544576874516205 -1.7926651695416995 -0.5211250726864961
Ni 8.111045619253503 7.748122123869399 10.968277248534237 -0.9503812869861374 -1.0405709578983562 -0.032477146692098904
Ni 7.1444751821364365 5.4865182606899765 11.943255826956275 0.025624899656955868 -0.34210815842722375 -1.4989649701042185
Ni 4.197569369088867 5.996137381441137 11.13444245806854 1.0804068589483715 -1.3158322339043595 0.007625891976373963
Ni 0.5759257286388196 6.793868933074188 9.337233047246658 -0.8414726995081766 -0.4076090683435109 -0.4496658883042449
Ni 7.017403801097208 7.049484208058792 4.276036710920306 -2.07082690702395 -1.2109214547318825 -1.1658299617098824
Ni 2.4357215685156617 0.9649034413742587 3.747151749926021 0.8818495606633264 -0.5803766592589618 0.9192927931114492
Ni 2.7934125494848425 2.7869112660878934 2.3906543386088623 0.9478343521945675 -0.3420569934743142 0.11891532098168553
Ni 0.7565669439819123 1.5718936356802953 1.5652238004915735 0.2305006839608611 0.25582964964395294 0.9081491177898037
P 7.7207833936873556 7.409073711957281 2.339120091328715 -0.11072455764077707 1.2539018149481505 -1.0932101813606268
Ni 8.596428474121735 4.882537919808453 5.269936617131955 0.5038670569369967 -0.09352130638861313 -0.7494734861910447
P 1.7516235600173198 8.597845420503122 0.3189453693626055 -0.7010688696354119 -0.7604361558501355 -0.5305450804488153
Ni 1.1857896383837072 8.968779756540162 8.577988722880047 0.585859536750404 -0.7614172888164822 0.6130831483530473
P 6.094490130266777 7.068219387990456 7.696348014424037 -1.230847761342164 -1.374784801179168 -1.641896451494843
P 4.324381439679215 2.484425627468019 9.471992056986467 0.09360975233736137 -0.3820034519602647 0.4046476717223418
P 3.1610869827359482 2.1065547369234086 5.517564204182273 -1.3091638207452485 -0.27421149458525035 1.0247203640193447
Ni 2.2601961778854958 4.532811474054908 12.114558161704661 -0.20988429326209015 0.8408558918597842 0.5118017384030412
Ni 0.00799417069550778 0.5284228327300291 10.477033977521291 -0.6884768919030143 1.3434651651302798 -0.10066280252940082
Ni 1.0008735050690596 6.418683757892988 1.1318484344726958 -0.050926868756854225 0.4595489517459118 1.2356279563396269
Ni 4.602991994827102 1.8150805312935239 0.06264847834094239 -0.14851694589820227 1.0236852378866113 -0.197373305279273
Ni 6.9794148203361175 2.248564252035684 1.9644729853289444 -0.4904664672603747 0.02205106626276847 -0.8316243459591871
Ni 3.1478621498430086 6.8375349604482825 8.7666815276609 0.25358739057699553 -0.40941141165957234 0.7269454802918577
Ni 8.114342566389277 0.23529644909727312 1.6674930632040654 0.2639211684028358 -1.4403263345254032 0.24355983113766444
Ni 0.5314947354405248 4.679377444197524 7.788180031569062 0.4762012155906122 1.3892248878638975 0.23691712901016618
Ni 1.2450235537781325 2.7382164682229955 9.038463883024498 -0.44096424676518897 -0.291004397772873 0.3443205926975102
Ni 4.830101642609699 9.214957983402984 8.411228025422064 0.3013780276977132 0.36694552918587775 0.6130867478974731
Ni 3.1819799960458015 4.346598788495854 9.54780239282562 -0.4408151227818344 -0.04522956126176081 0.851720859598746
Ni 4.123073181560294 8.68022279346019 13.12667462695021 1.6793373699501208 -0.34850326332029014 -0.1811067069087655
Ni 0.9957150793538165 7.192873625202613 6.587925500681516 0.2465986179639882 -0.7848994310988224 0.12932237524762244
Ni 1.6695981083837326 8.38521085242057 10.980897332416037 -0.15173828104897738 -2.2575761569304733 0.3551205115264916
Ni 5.53442586612077 8.657292340909128 1.5294259930235292 0.4249005084341069 -0.8923962258309212 1.4581803319876887
Ni 7.906042187238025 7.081564615020374 6.247489777867885 -0.09826113506644368 0.2581138176924393 1.7851611478551708
Ni 5.147247582678817 3.1109937606645843 6.497733622125664 -0.05139120998778245 0.4853797967660866 0.6669752703858126
Ni 0.9866299525555159 8.620720306529424 2.4501318206034863 2.4328364323607907 -0.2577746891854657 -1.54030470939327
Ni 3.332843110769877 0.48714246148564033 1.3936371503581637 -2.078259194932279 -0.2810326312721418 1.5151582920346294
Ni 2.5014104618697353 0.7838825214453045 12.302044246789471 0.29998089023987046 -0.08445791063476421 0.9678077099927008
Ni 0.20474319545785039 1.4472949649928977 3.9950099380540944 -1.5749585520217135 -1.252692368021081 -0.03889333463108786
Ni 5.196562873403538 7.820015945821701 5.792328629708005 0.7439098760603381 0.14934586955740087 1.6059033212296858
Ni 0.609075791202038 6.4408548012723275 12.525667095143362 -0.7164759482191014 0.3242384772356545 -2.237506896984424
Ni 7.764745775860173 6.568389236684559 0.23950098280413193 0.6732454196652405 0.7419589229815544 1.527906078618601
Ni 3.0495186621048287 8.490111190080459 7.224352061479294 -0.146462891582651 -0.10812388679313636 -1.8186402534492228
P 2.6867896495573853 4.827073267010265 0.9946620937096099 1.2886988680226772 0.23600438738790971 -1.18961112328988
Ni 1.2817622877321169 3.2887325511976995 4.593456779178243 0.699175252157125 1.248941128508765 -0.8982056334238467
P 8.410984458821865 3.202474782594874 9.076714952560707 0.12015202160226403 1.0050722507711143 -1.6790051834216826
Ni 3.3680259820305745 6.860974772809648 2.086843438373456 0.11735851801752692 -0.3241497741765901 0.17834971298891864
P 8.424181508452424 3.1816280747223202 3.4035172475036912 -0.11842963959451862 1.5415084998933837 0.1482246114687641
P 4.890696937860749 1.5173180472782712 2.4603792138780216 0.5455459247330218 0.05097854793039608 0.5754961912382088
P 4.536728914050506 6.265218277592641 4.070901771462896 0.36320405986557447 -0.14390695793001668 0.09351539285134217
Ni 7.4812083221835435 4.168183938578156 7.251487973845962 -0.5399049243971605 0.04023185093685329 0.02941701970953644
Ni 2.2288659190081757 7.925092244143331 4.623425658198937 1.4985330247731223 1.5948133819641115 0.9564182372088367
Ni 5.850803135930707 5.305065774085383 5.696036472842224 -0.2086879589611438 -0.02844899936931229 0.1293956516877191
Ni 2.9812829696992433 6.76289985660781 13.052071010807103 -1.2986467232640087 -0.9789912374133461 0.363652974477535
Ni 8.502826663163097 0.6856325706904707 7.921312794350887 -0.15883092622970063 1.4077851673645883 1.492965557987674
Ni 5.8562208720948306 5.90296158050566 2.150210577101298 -0.7793440484982319 1.479064888746182 0.43051579773835535
Ni 5.725787716307607 7.425012043476012 9.761802045199781 1.201405544821647 -1.8182754139106365 -0.0043968435161150085
Ni 5.33772962955695 6.3737397004494065 13.430866157880224 -0.03499939889332037 0.5638421519390483 -0.7240820427011336
Ni 4.11111711764938 8.28682105924509 10.814366309927061 -2.3147088973877237 0.8585178279159216 0.3128058099186807
Ni 1.0834546219502492 0.4514770875682747 6.408395615833628 1.193947031661073 -0.15952846651735753 -1.552899515339145
Ni 5.908620104943746 4.031555115280164 10.405655998140512 0.09593094427137026 0.16257573798411357 -0.01205795960579859
Ni 3.06761482700175 3.790896496543527 7.272877381443673 -0.8716319967003764 0.8416562762738925 -0.17170263998604623
Ni 4.756911268412991 3.711427105048911 1.5075494522254194 -0.17366053504336545 0.8543145884678512 -0.1431695655433599
Ni 6.935378349463621 0.4187743355293763 3.765626693300058 -1.8127123180005618 0.8859378718000871 0.5130497518775293
Ni 8.184439737374332 5.354964513320088 2.533912248310751 0.7781052909951244 -0.5885108583303219 -0.151495568910552
Ni 6.421017551932919 0.7310952490318142 6.8290879225759795 1.2893167041123343 -0.9317587867889436 1.4408541820044154
Ni 8.54582589224007 8.698782012730113 12.943105981860999 1.6884933254177759 -0.03298982466245931 0.505457284242252
Ni 1.9494403881638052 2.626370314968075 -0.010721560952489988 1.6189053899163088 1.030279089054045 1.9352158705541382
Ni 4.977649288023078 1.1138217277317253 5.405224434965732 -1.6170678224869375 -1.1372020135605447 -3.0443123841277187
Ni 6.858853983781298 4.361786971930322 0.512992934912854 0.05773412148667476 -0.060737941310005074 0.32327662754301745
Ni 6.32310933530536 2.473080795329469 8.524543913256894 -0.05550111839109796 -0.3339973563946313 0.1602820568539304
Ni 2.819889998533101 1.536516281582937 7.871784498614586 1.0722888578269274 0.11694714151172117 -2.963610598101277
Ni 8.675934909966191 1.7765451463722914 13.185949291129461 -0.22412563367245272 0.4174983024327648 -0.3172574179321311
Ni 6.347169640526548 4.025859546492239 3.403720991427812 -0.18813353184855988 -0.10925234397062474 1.2306230469258677
Ni 4.53321896190315 8.447408315802209 3.7430176004838587 -0.5985859831781368 0.7198572059865086 -1.0880083254447133
P 2.1128430153087767 6.143916554041018 10.597818932392641 -0.3349558636531586 -0.1771271534357272 0.9816811255406834
Ni 4.253543381697358 3.3206647807599228 11.789058720746585 -0.3003182189746312 -0.4770409378830882 0.02737479246852705
P 1.720172907003019 5.021926547169537 5.906416892237002 -1.8202016843990716 0.4417810862395295 0.08563264766915575
Ni 6.769086263031117 0.5897580888691376 9.94794619871163 1.7368853435679183 -1.0378743849027998 -0.9482269596472961
P 6.570167365476887 2.6619977184268544 12.859420017245828 -0.339909351003692 0.22759225206481448 -0.7845083663079909
P 8.3204017623752 0.6772864786714814 5.800989598700636 -0.7033594654418016 -0.10310792163578371 -1.246167679528686
P 6.0551768139989015 8.140190261490254 12.02115361190892 0.5287720477087926 -0.49907991996099854 0.19116331981381915
Ni 3.4738987338737686 4.100957704705714 4.830376696907262 1.2315720411026982 1.3844616621472994 -0.9268909171736811
