# total energy = -381171.18597777793 ev
CRYSTAL
PRIMVEC
9.21612045172591 0.00000000000000 0.00000000000000

0.00000000000000 9.21612045172591 0.00000000000000

0.00000000000000 0.00000000000000 13.48872386083050

PRIMCOORD
 96 1
Ni 1.312790302679057 4.168801572068093 12.946409963287756 0.3854327893567878 0.6745070599864836 -1.2569801967631578
Ni 8.148350107065635 3.8162020130088194 13.317875842882072 -0.6905252897916108 0.013193872982454698 -0.540153807183173
Ni 8.161741130336319 0.5048213018394312 10.6951955506852 1.4793027157886007 -1.284267828834517 0.8075853027321123
Ni 4.89399967194671 5.110053187799882 6.059566134061501 -0.031217563253384952 -0.7030730445496343 0.11960926172491661
Ni 1.7709420912766303 1.3569816010843792 9.718599190737716 -0.5570680664400084 1.7322648140767714 -0.302239347256744
Ni 1.865941862697289 8.087754113944676 6.634806891997955 1.2520601337537212 -0.6608686432674424 -0.7514270103729896
Ni 5.114089848634404 1.6822922269678104 11.453814990404705 1.0476499762323248 -0.008912214887965297 0.48302749448382615
Ni 3.9809862498153175 7.625906660975772 2.439044480648334 -0.22271332670595836 -0.045039299627825664 -1.370308510575369
Ni 7.712952920295536 1.0022623342809516 6.871318352418413 -0.1917402753632117 0.690467697080798 0.10232784893664956
Ni 8.629754168004528 4.458104814662766 5.328531464989956 -1.2658664435091942 0.3989809603548677 -0.20423763649927407
Ni 0.47161285438502104 6.383536736005801 7.452857407191195 -1.7024171345877197 -0.16274465946181005 0.7043297997748709
Ni 6.582835344559521 0.9841342250081115 9.11420968648294 -0.5480578925215981 -0.47102892736105334 2.22972159661205
Ni 3.992285213703727 1.4446822049686427 9.389864776041444 0.8030501338659202 0.34133862725105085 -0.596296930033644
Ni 3.1037958885601475 3.6557954335000344 9.112563687339001 -0.26874738614688554 0.9363428066152004 -0.2347077800636732
Ni 7.722611414712382 8.271680233292958 8.357600282672133 0.644653981180793 -0.2125548981157178 -1.520502587065678
Ni 9.002232899255725 8.478010741884898 6.158749102634647 -1.1175485009956754 -0.19433863221800723 0.027171161098153204
Ni 7.693497689652442 3.5678736427207283 10.05082559353947 -0.5370445721302299 -0.6035297003366573 0.3391061383761063
Ni 8.213185515674903 3.725856382504676 7.683460412677836 -1.7232212158172642 0.5339937011190481 -0.2661338597834384
Ni 1.43990825448398 6.433220842304673 2.9590078686775345 0.43482033865098024 1.2616228377414918 -1.8233163187686534
Ni 1.1461720578678343 6.5464961809282 9.930452920421274 -0.3815270265444784 0.2811748132769609 0.3567652462187662
Ni 0.4614050791788199 1.7459295398955994 12.398444314346204 -2.349519834419321 0.3797635068861524 -0.6119564909477719
Ni 2.241959584269163 0.46507125196414567 4.674396106428109 -1.0093438815632745 -0.5821540628743587 0.5064936959265665
Ni 3.0563697318148324 2.5500544968218035 7.114101382925382 -0.18474276099945602 -0.044726653483413294 -0.8967236495616814
Ni 0.1985364353778866 7.253639900498991 11.898120479372631 -1.6611036205509133 1.773447458962668 0.6414143911975728
P 5.816478049961786 8.6024007219843 7.31409857342261 0.39013893658320553 1.2460499230038993 -1.6874566566231455
Ni 1.892963528374954 2.2195551950255052 0.6051664232236116 1.1778233866263328 -0.8497848189182977 1.8642732207969894
P 4.332258687504336 1.5072873123862343 0.08201794390580225 -0.548735635314913 -0.5823337829853326 -0.6400871877457169
Ni 2.6674217930036126 1.5459489384154992 11.949081018378308 2.78582061427057 1.2768507104348397 0.5406325465918044
P 2.05470644537462 3.3982232942233006 10.93572708292305 -1.1147015184651834 0.2295043814858628 0.22862712108723204
P 7.460421999001642 2.1314859463161713 11.800057269455637 -0.13808443771096865 0.8943448649168597 -0.2581680679691425
P 2.692047267318319 5.528815276838675 6.034153603045268 -0.5460586027033822 0.370776987116826 -0.10278833351283588
Ni 6.235258571241834 8.590991164648369 5.14372244128563 0.6163816165986611 -0.5875778049930913 0.2354495433257042
Ni 6.471569120232628 2.116141105472613 0.1944186726818495 -0.2277555171155561 -1.3043190910584375 -0.19400490302767232
Ni 5.391531943982435 1.6882089764101915 7.521689847316289 -0.6842813657644279 1.4800146542539607 -1.544969718969107
Ni 8.801238524506681 5.037181322004078 11.441850622607042 -0.030375784078379944 0.914132074846116 -0.0999871166186149
Ni 5.580508497434183 9.038277147026989 0.6026476574563175 -0.7986743733957277 -0.6583553899272855 0.19342511926480238
Ni 7.809620809549639 3.17072335655169 3.1031618194610266 1.5718768277725963 -1.2925069289148579 -0.6686207764090356
Ni 1.0347860239727933 1.6887527275271703 3.0498677587126517 0.6518787810640064 0.3954801462904608 -0.5430115883469423
Ni 8.217231392630051 5.27170394359328 2.3269128625945883 0.8350940496753424 -0.006051348400402482 -0.6917949005326537
Ni 3.0390710733984005 8.661429974598708 8.573338607199869 0.5316681383096649 0.16418550567339463 -0.48815735951122385
Ni 3.59812095061776 0.7143433530044176 1.931437145543433 -1.6047895193402169 -0.44365413489252625 -1.0330898190299629
Ni 0.5899985318960872 6.504452238628913 5.0200310431297375 1.3587840548755372 -0.20256847632696723 1.3527404197846185
Ni 6.158340828490881 3.9194317801491767 1.476732186060269 0.6377821937616241 -0.22377519231156945 2.119111195951634
Ni 4.102086074850965 7.124651076206836 6.924261278970907 2.2951548865151956 1.4675435183701435 -1.3065338393215693
Ni 6.065617438865033 8.513280835523513 11.366367829837678 -0.42355582148075444 0.3313465490353455 0.8775599321490369
Ni 4.8318461544398295 2.624815667346093 5.403312910979625 -0.1902130400854079 0.007079018333968453 -1.126757421188453
Ni 2.2926113832338446 6.466159257424718 12.030040030024098 0.03152763829463603 -0.4676520404690204 0.7325574271619963
Ni 7.694400869473865 7.297029396409785 10.328599469230063 1.053950721639372 0.5018950208122904 1.5336596932729265
Ni 0.6665024708308981 4.385463351882631 9.31775416180941 0.4245999464745527 -0.7848395243951646 0.5405096478606949
Ni 4.994390873934024 5.443990102589962 8.645989286100631 -0.6428277266053316 -1.7009156103415288 -1.1083444658989041
Ni 8.627007764057753 7.783714294467812 2.008646117706191 0.3921755073972601 0.48492239751369387 0.3357181957404799
Ni 6.1964587034031675 5.535155967829888 10.687129601912657 -0.12664045754008513 -0.23833586373456372 0.020040463590642904
Ni 5.441667640192017 3.298034846889775 9.536298795067996 0.17771413628744878 -0.04261886311179112 -0.2832779756628928
Ni 7.344621443326382 1.546842902116295 4.62342174324149 -0.35774792184700965 -0.964756324760887 0.9844391479017949
Ni 2.705548884036525 6.328166283280217 8.29649648130464 -0.9445870489018636 -2.014298890030234 1.33700321155502
Ni 3.4187107303765916 8.456435803497648 12.984070718616955 0.40315771744037665 0.9583725327217302 1.0550146441275121
P 2.4616719000111593 2.6397273505201935 4.596795449138713 0.432560596082526 0.27457684834446905 0.3163405625448165
Ni 8.73228350997725 1.8637484259881196 8.881367163683997 1.1122882810380006 -0.8533049162564144 -0.07719351576286707
P 3.8062762510937973 6.655043649670198 10.556828402043251 1.0989005468771849 -0.13141525322090916 -1.5547077721924774
Ni 3.2732895630069203 7.321323090381928 4.575145860174388 -0.365684403085267 0.3468397595749382 1.566881945661166
P 2.8725265575521917 6.46718224681429 0.626919232738957 -0.26333804220585616 0.4537135760110573 0.38548575408191027
P 5.54957919661077 6.447607206603048 3.529486657086141 -0.1317960335990956 -0.004636984551379111 0.06095905618187565
P 7.321092687366259 6.574264352376632 12.638084647719447 -0.2534354383801635 0.13018935123360806 -0.029648418994052163
Ni 8.895344332226543 1.4225450832231612 1.2239542727335768 -1.2328092559439092 -0.639675297019279 -0.38310902631961763
Ni 3.903073166036675 3.5739194178518843 0.06898266289131064 0.5027303722293922 -0.05872476753471821 -0.16967943890843035
Ni 0.7589733387515734 8.593479517217594 8.887531826771237 -1.021497743316989 -0.2739276447962444 0.37712735481488596
Ni 7.738794922532976 8.885197383416479 13.47684009951277 0.8459911562038205 -0.7027783961273509 -0.9065370361076774
Ni 6.561278838413525 6.828914981414683 1.4995549871803813 -0.48180879158537665 0.28352608711795685 -0.6132458991831568
Ni 3.704502631012469 8.813698719594063 10.7091294034608 0.41658504658987616 -0.5326865522718504 0.7959369198599066
Ni 1.4097070271900825 9.101444437802813 11.38465814283355 -0.9741670765518253 -2.6967174915543106 -0.7203572855513788
Ni 7.771760986014902 6.640675717613077 4.11678578725065 -1.68997273817678 0.7171215522229005 -0.011371475061735253
Ni 4.561012017581186 5.462800204789183 1.5361899882838213 -0.36257491092200783 -0.0005039362196120352 -0.20326884482810156
Ni 4.388458591086328 0.24354981174311563 3.9867140687848495 1.427331207817316 0.649612610737649 0.38593312603197405
Ni 3.948444127882222 2.938228281500375 2.6976506686593904 -0.32599248381228374 0.5598631126866422 0.3729706523340351
Ni 6.900561103167127 6.5558597594849894 6.488143391567797 0.4253057142923256 -0.003310552430471718 0.687866254902209
Ni 8.878432750876435 8.912864177538017 3.8966900808905796 0.738620859747257 0.7291720556295314 1.1153414660420276
Ni 4.894921284009386 6.5982907788506004 12.670080253699375 -0.5535597961764337 1.032516463024996 0.11228213193588403
Ni 1.133066734336579 4.199721656770878 3.6311238785821933 -0.534711296011363 -0.7168474726259074 0.5647230118821048
Ni 6.2529074422420825 4.428345961158953 4.197515317492831 -0.40361126003802744 0.5666443972745339 -0.033054616462123716
Ni 1.029422241768018 4.099735964091141 7.044202637643771 3.019567830193187 -0.13141628166217367 -1.6104156072777427
Ni 3.9632820820913084 0.30012481143461717 6.3884351041189245 -0.3896676533737418 -0.5462671191697624 -0.15626419394378893
Ni 5.946093570456561 4.631091398827081 12.845919227197673 0.8858766795448485 -0.576824166021013 -0.48972547532929217
Ni 0.21905151989305793 2.2275363554882808 5.237266987259323 0.893847613565467 0.020788397500260968 1.1635671338176348
Ni 1.330586631609334 1.0241321885282568 7.440555729378594 -0.20934127627442656 0.7564085227479812 -1.6565355415642569
Ni 1.2876302933679982 8.762798085372458 0.30091094652407985 -1.049547964585986 0.6278093988196285 0.4774433155278293
Ni 0.34758506782625137 6.494268425336341 0.5299868408228664 1.2152326805127265 -2.2525424511613075 -0.494905991088967
Ni 2.310748708627311 4.476500191433782 1.588162457334318 -0.5854728428349466 0.7189753176021876 0.5308451281877374
Ni 3.8989166956340053 4.600198962486177 11.340429058333656 0.3913427270833196 -0.4570619236579999 -0.3735275532787696
P 6.153262746025535 3.7365010018285854 7.191836595575928 -1.2850620426010384 0.10005807906586639 -0.0794422025877277
Ni 5.551062992031678 7.529976061371811 9.033574160671153 -0.8097609702271925 0.9772179475630073 1.788973065402093
P 5.775530826017085 2.003722866067375 3.3069357761911014 -0.19211797041760462 0.49195385043917855 -0.3024152107129759
Ni 3.62174186778415 5.128605238621553 3.783883842806955 -0.1291305709517905 -0.528564816793993 0.5143425025470238
P 0.17640945136509464 3.511913358275032 1.4280507936855886 1.468326162172439 0.3236543225974103 1.8235960547926016
P 1.5015180208738816 8.761618421932232 2.468328703939869 0.4118549881040584 0.11976558479712276 0.8037463886019964
P 7.891386231750268 5.741772176161256 9.034208229770273 0.5561985193508615 -1.5120254028326026 -1.3839243015865907
Ni 7.032821650281783 0.2736699371754979 2.5827127418747957 -1.1585655668379853 0.3368111716943425 -0.7113124017402911
