# total energy = -340888.9515260725 ev
CRYSTAL
PRIMVEC
9.13862602815141 0.00000000000000 0.00000000000000
0.00000000000000 9.13862602815141 0.00000000000000
0.00000000000000 0.00000000000000 13.37530293867562
PRIMCOORD
 96 1
Ni 6.654920941203685 1.9280489939609804 11.299028010029176 -1.0510615730170352 0.6337342489444957 0.4193512964811036
Ni 4.641115082738682 0.37797264921141893 6.078419871257841 0.5783069212141266 0.7252518946395188 -0.6885833355738915
Ni 2.673011491897785 1.4631214064032023 4.413689413363146 1.3137907779942986 0.34423780317571684 2.1938678201382347
Ni 3.2491196009342445 4.515239650974144 4.924598910494501 0.49163220543370173 -0.154558781216908 -1.306553379705595
Ni 3.9255332667477885 2.8716029691502287 2.805135002121551 -1.265826591410194 -0.12125116820371377 -0.9786999314251725
Ni 5.483815183602866 4.424027026867723 2.8484173616339077 0.7901257124947683 1.9448397667971475 -0.4293752563760089
Ni 5.410212691412393 4.399983302388813 11.38912389406288 -0.0955301092885258 0.8274049085612009 0.6084793310324488
Ni 5.767322771785764 8.040802682348149 12.343491605160866 0.13599027418610127 0.06904106185906174 0.6142056919932648
Ni 1.881222675363515 6.8111091947457005 0.3165839304021929 0.6487075824248764 -0.5620367232991933 -0.672208493760294
Ni 3.0501077468950166 1.5767602182219929 0.003952455658353591 0.3581839809431638 0.6423397312253195 1.7967228845508412
Ni 8.312832156526673 0.22969022084869173 6.756266473596772 0.24042925592848272 -0.9128935744533246 0.5398172497793607
Ni 8.70409328151338 2.4520577973135698 1.3108810392066417 0.8496542068777044 0.21470999678550765 0.46042261260011674
Ni 7.082078588331463 0.9567501508439596 4.661252958550816 -0.45833590527441714 0.6695425168923567 -0.7420391414001867
Ni 0.9130136016293597 7.609130554075339 2.342470138311769 -0.919164752174017 -0.19719769893335715 0.8931680709999392
Ni 7.885857281914888 3.7788491840374223 3.9162749249501516 0.07650574566722308 0.6473456690803432 -0.5254280709372241
Ni 8.199293869591678 3.6882671251111776 12.48488168194549 -1.4837358118592898 1.2860187500873528 -0.21246465239475668
Ni 8.254683080563426 7.387957532471932 9.013656919576272 -0.27893409687190024 0.7499915634780439 0.7458135208409542
Ni 6.989842438135479 1.170255865401451 0.19168450387305952 0.14339376573902402 -0.7517620251149053 -0.10409239703624008
Ni 1.7538302317162338 6.568012609848905 9.008747649796694 0.9805974055582016 0.6979166971596755 0.3853122046185235
Ni 0.327274294862637 4.858742317531821 1.10927015998999 -1.2053935829351177 0.9166887798296988 0.7696502182492359
Ni 6.604567113047551 1.95883702428004 6.896359779380423 -0.23943295345348442 0.07507595519923199 1.152898598360195
Ni 3.444750163427598 4.747808538949729 0.2570777685076972 0.3072224022936322 -0.13875369586385136 0.0953475609640745
Ni 6.402813671268424 5.88434287515043 4.718672772175249 -0.17515048932533062 -0.6189092681165212 -0.7907998557436574
Ni 5.600314385296951 2.981504083016958 9.242935902263978 -0.03514055245687496 -0.05396976934823609 -0.37479253603412227
P 0.42953368983568907 5.860637279826108 12.379471288796715 -0.2719782343793574 -1.1642590176783367 -0.4495195925343678
P 4.366270911813863 6.13593838204091 12.261233920475535 -0.1624196720222235 0.9123212468896222 0.20417001648613226
P 2.696388096693319 8.59309553255069 1.2226119664702915 0.6890258224279489 1.0298260606770264 0.0865711003230251
P 6.654061910378518 8.365616859145517 5.7567036886065575 -0.48057131963384975 -1.5320077594918002 0.5070675661521654
P 4.974620092671528 1.1178549850661919 12.542542755291032 0.2852651812962506 0.8506412533813221 -0.30530487355594516
P 3.8389904804249944 6.201069368115098 8.025221325359727 0.5256322165282302 0.29142451602942715 0.15589164109571862
P 4.858861119667217 1.1081223485895524 3.555516705157555 0.10408571216802075 -1.2007280591386482 -0.06339311954466502
P 0.17173122830207865 5.6360738280510265 3.2321683639384524 0.06893616085008128 0.2917407617182653 1.2092242695351174
Ni 0.6327712444446806 -0.07351658910795678 4.755495037109825 1.200513629134997 1.2664621681116641 -0.3348517339751265
Ni 1.6205982061829691 6.660294453173886 4.679576817141717 0.3534150987996107 0.25943407916575967 -0.08565604470792344
Ni 5.862510698115038 5.629311244959276 9.031017567007888 0.43064538133768415 -0.2598369710311331 0.03488755590580443
Ni 8.6792362193383 2.4771433251336408 10.220042342076685 1.4427346868565798 1.078054556666111 0.09866376982150105
Ni 2.154175150747804 5.416253323065969 6.772678531670383 -0.6008112729642298 0.022193248267587583 0.546640186238465
Ni 0.4405676666262003 0.3286971788996442 9.30906391241291 1.3636789210739935 -1.1844267508754633 0.14168475346771728
Ni 1.7661765151715765 0.9804009144134835 11.593257947862817 -1.3081153248760762 1.3132819566786802 -0.7571937376534379
Ni 4.171663875410071 7.006657509606856 1.5888926578336235 0.48570786952946676 -0.5714580166130933 0.059183966559323876
Ni 6.019685923243416 8.077037333643807 7.943203986532924 -0.6929948343780258 1.237962003789442 1.1838865621012773
Ni 5.213439800694081 2.700655834941761 4.961461385382595 0.022836538278541315 0.7337905282381492 -0.4497527915910964
Ni 1.0094160513274089 7.854466102293052 6.961095976820064 -0.03032847578021228 -0.7482110745388533 -0.16766857912598868
Ni 4.963946177737523 4.924467314282985 6.5444020562329 0.3683845756252494 -1.5830153608879187 0.7299359303787494
Ni 0.8367398891176451 7.8578565324647265 11.510076348109138 1.3692795550902224 -1.436156776528746 -0.22365820711773096
Ni 4.529249164325026 0.34713801190078114 10.44504170630241 0.8183829075682486 1.2471341572070136 -0.6117006661832239
Ni 8.121368807397964 7.700452841691357 4.256516015959928 0.07188907283081812 -1.2113960803754558 0.6088174310981579
Ni 7.172267686348322 6.3219825260704186 6.861958336420177 0.3871839677199396 0.09513081696757811 0.9898631471308436
Ni 2.334663010291118 5.4120495551981245 2.4666594936162687 0.7222043660624465 0.5631852350813398 0.8496917449838592
Ni 2.384148668996285 5.460950341852113 11.354789163070972 -0.2366559049289795 0.35053597747960274 0.4902859758184524
Ni 1.2919458065497431 3.4374118469104697 3.6933354069796698 -0.7408206956120531 0.026677766401502444 0.017110691538357627
Ni 1.818394622990842 1.2303240527826258 2.335915915888252 -0.34375906376708537 0.987682594539757 -0.04135747990086426
Ni 1.233339799296514 3.6693501697058784 8.267608752894468 -0.05543298415732389 -0.7088742246124436 -0.7174280277197257
Ni 4.002754654754928 2.6045083529035225 6.990281092173864 -1.0785849752482843 0.6765508298893896 0.5174039150811669
Ni 4.8722766223411185 7.11913571594909 6.094014936184963 -1.5985461095336664 0.6105642385859357 -0.8597110768930741
Ni 0.8212581431504385 0.17831834977847466 0.5511103120240656 -1.343793495003976 0.08197319653969753 -1.8186579940610355
P -0.002032430377844714 5.918594444647561 7.831105947023957 0.9304079291880041 -1.1975360345639117 -1.1415379219317374
P 8.95835726713736 1.881268368492513 7.992973856500461 -0.5907340912338859 0.699559374969421 -0.026749757290018446
P 1.904114932991667 3.4048143686830774 10.362783107754497 -1.4685472770443095 -0.5552153295019857 1.301248936773546
P 4.357260226775397 6.174055590251298 3.745780152718767 -0.21457501386954012 0.15448473344586297 -0.1375136528091632
P 7.276274386574269 4.317571174927466 10.479455943338776 -0.20000714335769423 -0.788883355447235 -1.666885260229697
P 6.42317452955007 7.984399083912638 10.20368420189529 0.34445043340715514 -0.21155628164787435 -0.7501599707351081
P 2.754783915553156 8.519483901734418 5.628608484635283 -1.125217844615475 -0.32072892142049925 0.36484545212373937
P 7.127598083439577 4.176543901587091 1.113667666724787 0.765361875286527 -0.7759864448799088 1.6607315819234754
Ni 5.358661703276502 3.2586329103916922 0.39500065066392825 -0.37313186050224767 -0.9700404559779617 -0.5063294024345603
Ni 1.9123396962113623 1.080596807680972 6.814208102754365 -0.7271100308941799 0.7484722986200399 0.6053793519508864
Ni 7.270553606823681 0.8296638511609673 9.25934704647501 -1.6724905222316162 -0.5618783433444582 -0.8907607471100273
Ni 2.611252658743673 1.551894017421114 9.35226585201823 0.5596646235225909 -0.04979609758652069 -1.1627333250624297
Ni 6.612791876267246 2.3505733578083294 2.6289157946892585 -0.7065885139020605 -1.2543581857592783 -1.1004828037626402
Ni 4.354162232629311 7.166958144758718 10.174405872558335 -0.9908550787304677 -1.1716969620136208 -0.04601529038784978
Ni 8.471661472924788 7.388112889110526 0.1504839233178657 -0.2879267872888138 0.3093029389717447 0.7180957432107117
Ni 7.915110023099605 4.0034400516899025 7.926137602852057 -0.48004372926515393 -0.16490130079349663 0.09770346279076077
Ni 3.3619267978052663 8.458383049637881 12.290913435485095 -0.09566380665291266 -1.2885379169647808 0.8552314438551659
Ni 0.1359087290299856 5.074112311752443 10.054803193542687 0.017625426391247066 -0.197357364439673 0.6466162471134864
Ni -0.12387590043957133 2.344852578057741 5.635550184792705 0.004379102904302136 0.382368034388535 0.629786062930025
Ni 3.804126622999286 2.784822578556643 11.200277847363195 -0.22324940171508648 -0.8891172979693333 0.8166134743726516
Ni 1.3699165618724551 3.529419531461462 12.899382332340736 1.2538925589767695 -0.9501601721142668 -1.3745518592327552
Ni 3.2618862611763717 8.522600173132101 7.930497641221075 0.45985748412526606 -0.9370308338211604 1.0840439414803267
Ni 5.92994461789074 8.19572980552981 3.367700581585492 -1.4107265093810994 0.22828413592551655 0.09159169346606806
Ni 2.9373736590303925 8.38469830981521 3.4770972433080796 1.4977308405868013 -0.7891060129810022 -0.542439003672924
Ni 3.376987253123108 4.459950964886192 9.389301960796518 2.076317497824876 0.6550756907347492 -1.3985204542332108
Ni 7.530136272663065 6.372893810400333 11.470967598999486 0.0059096806162156285 -0.8955139455242963 -0.6658036186752146
Ni 8.024663869185947 0.029509536569686894 2.210268949768706 0.6167086609207766 0.3411756193106253 0.27246442998715653
Ni 4.967519380425191 0.3014713849172928 1.2991963922591945 -0.7857260407651758 0.18210146672186703 0.2586213534564772
Ni 6.190075601278104 5.852165773709821 0.22953760579783736 -0.5875734341177171 0.4851206295674291 -0.5435180956697155
Ni 8.037430529428073 -0.29215729750227776 11.402565898751602 -1.0692552132069262 1.668744939146255 0.3671627874030064
Ni 8.870635598086409 5.358387544502512 5.494346535974397 0.5450522729260548 -0.5938502682653642 0.25865092114283195
Ni 7.287578866688451 6.355704055271169 2.512162539197943 0.624519158104131 -1.2450114544370559 -1.383420879587611
P 8.841081282250304 1.6698097061141461 3.4854170482360916 0.5335527569268875 0.2747856219211654 -0.4882082673538173
P 2.162628379612491 3.4335736240746124 1.6165662444801583 -0.28652373629370004 -1.2189836629147266 -1.0491111341588835
P 4.7752335549745135 1.0399847546272765 8.282830048026383 0.7660781846272614 0.640097215048046 0.09395479438160594
P 8.964224264900743 1.6736022358210056 12.474248890827583 -0.28838855741658076 -0.909073429376286 -0.08227581538178089
P 6.591992363947217 7.977928936846478 1.1124202443031332 -0.5570837501692921 -0.4214377466964871 0.06665224991191102
P 1.8921890263231087 3.1546627646689434 6.029666216479226 1.07008645085897 0.6180649178383548 -0.26571399863720047
P 6.861225418631043 3.8623488079689294 5.8694039635557225 0.46652923971848687 1.154174379748825 0.2500644650254016
P 2.411637655401667 8.47565505239924 10.176144039185433 0.13147104615950905 0.5569425966057376 -0.6118737014259785
