# total energy = -340860.8615941069 ev
CRYSTAL
PRIMVEC
9.38644396821270 0.00000000000000 0.00000000000000
0.00000000000000 9.38644396821270 0.00000000000000
0.00000000000000 0.00000000000000 13.73800954377766
PRIMCOORD
 96 1
Ni 4.794792567366983 7.153089619735851 2.3604099408501837 1.3589457772643823 -1.2160009261373186 -2.9324488277864917
Ni 1.6249905232070323 1.3523706518105811 1.1288052739379209 2.896696609887547 0.6007174276988428 0.3535061158515202
Ni 0.4309175515081939 3.794169507510355 9.783220898161826 0.03459496436605009 -0.5573884258939046 0.011020262369903602
Ni 5.356176993357858 4.793347055034141 11.179154035275774 -0.12756142669245774 0.3658810924771054 -0.17419789560407417
Ni 1.584872862748816 7.927471226615318 12.817246156626833 -1.2151434632330298 -2.1947301681385296 3.398684190413644
Ni 5.0800090462353396 2.6328786905027477 13.43788907910924 -1.566767788680805 0.834854937081343 0.5003423316131899
Ni 0.5729654202523035 0.8028384883046362 13.04320977086989 -1.5560437173950814 0.5021475031427287 -1.1685548168402133
Ni 8.860427413696259 6.455132437622598 12.451760565644653 -0.130267255659395 0.2633652958993658 -0.025241548175608145
Ni 4.264158131002013 8.19471266576035 4.164773526252916 -0.5318591712745486 1.2875349296215632 1.498910205606883
Ni 1.3836181229536324 9.098073395792918 11.161569471611191 0.27029878979440547 1.8919154079942901 -3.6909090908571787
Ni 5.592828012420222 2.9749676318690765 3.182492516069054 -0.1444538315724222 0.7243625500560298 -0.37151540794474724
Ni 5.19693597565228 7.607609383977359 8.296837173431243 -3.505350004604015 0.7442366632721376 2.171714938190279
Ni 7.999380771952331 5.296620007956037 10.33095555769544 -0.2323253958744257 0.18012917348684462 0.6957693117993695
Ni 4.918731170242576 0.9885520932330278 8.254097879242101 0.22625939218600388 0.7288627519192286 1.624166895425564
Ni 5.048245320687703 0.3974032542068226 12.840875590046936 0.679676520002565 -0.516450292918646 -0.46485673711207043
Ni 4.476413782836745 0.045390025895600455 6.339789001261179 0.30033236004201824 0.024318522140706504 -1.3240044853025068
Ni 6.001213405779153 3.10155321187364 7.374412576203863 -1.8391440298295292 -0.4755070177370649 -0.6546769126344337
Ni 1.1581181990303318 2.1835590160819813 3.240879011939022 0.13489575557034186 1.8686793202844851 1.1803613225568381
Ni 8.693480125696766 4.4730065037664755 7.791690686342886 -0.6221843393233671 -1.6821606983315287 0.5789538107695062
Ni 1.3009235537826251 5.545801929384269 6.242551076190791 0.46919084571105 0.15749369547551584 -1.755607088347138
Ni 3.4263429374644683 3.7079737948318807 4.568354937716079 -1.6496660681379332 -0.2435937696993934 -0.7518787531984277
Ni 0.7389130519956432 9.392826501480544 3.6481558662946507 0.228828952685393 -1.3700637415544146 -0.5726003577476526
Ni 4.242287717134992 4.731452845146102 6.458595096710813 -1.1252175875051589 0.07520888123267047 0.674320140786658
Ni 4.501203380700607 2.2948446928233506 10.983620332927776 1.7226720281820136 -1.5083063021098024 -0.09877972657407504
P 6.729732848643916 4.346467855980511 8.874204835788111 1.383183052545192 2.1169602110469024 0.6850002462083234
P 0.6676943489164037 8.077185003945347 1.402156349300141 1.1379679451922917 -0.2538815247786466 -0.34572647190610134
P 1.0551395249809423 2.42724048149044 11.331727862007211 0.4923492861053843 -1.2113166332877718 0.6906661862448492
P 7.057958012636173 4.349837589275901 12.5371969150262 -0.27643781281260776 1.4079520319597558 0.7481090017433503
P 0.9641942717802736 9.395266976847678 7.734705586520277 0.4170355038637334 -0.14973719145854858 0.5000232577108743
P 8.021973941985772 0.018627397561846084 3.2743444997330506 -1.4165248612304313 -0.004654210942559726 0.3338099229741735
P 7.010058990334284 1.2947003415964302 11.383163696302704 -1.3582029855610869 -1.6776242439137556 0.03434325336656021
P 6.687062075493928 5.193096920170902 2.2890269750058487 -1.2297234179297336 1.430852590707013 0.8232975712610466
Ni 4.081798302414688 1.309521536229917 3.7117077221435975 -1.2044960108215126 0.17859165379639566 1.1407053987281128
Ni 7.764062627898171 8.199950301355972 5.741238012717579 0.1903163984324916 -1.4046620483545744 0.8464169308873294
Ni 8.637837287326082 6.373460990817043 2.0753183016832994 1.7456355789567226 -1.4274006276026707 0.8527498150838926
Ni 8.008401144367012 7.859654170740116 10.455614100804338 0.5987533619939366 -0.17504918786077592 0.8918637503662188
Ni 1.5630963133189935 5.446859426134372 12.047560587540358 -0.5725147400123817 -0.04312691309646121 -0.5124280591331304
Ni 9.200385632338206 0.7490222518818151 9.553123494104593 -0.6556248783699999 -0.6415473172310113 1.073043733715081
Ni 5.027238459642899 6.010121140869198 4.58103508453709 0.7516267850886217 -0.38094107213402134 -0.6640874073150563
Ni 5.137050464720267 4.9509736044199215 0.042772146742161864 -0.41402474206186757 0.05586081572336186 0.6322175551896531
Ni 6.595929093418865 2.4333698292394375 9.533216724263744 0.6837545467266806 -2.154951088468379 1.5277986065064593
Ni 8.039479659523108 4.851580551871477 3.9999860589533376 -0.23108329593720847 0.44782729243360936 0.4380761265841165
Ni 3.9160712520987624 4.6055243162019215 2.5513546108635934 -0.3740664565013751 2.0920169108380033 -1.2605766558651643
Ni 3.721274385582768 7.766728377914579 13.381397706226291 0.9950122954319509 -0.8186248483757256 1.2101287836272578
Ni 2.80740083858408 3.7912409370697926 13.558467335133164 0.9556772452777541 -0.8838838174845359 -0.37514760538069586
Ni 6.264700267436287 7.421795344101166 12.3066461457373 0.07540017130787015 0.5168447001435873 0.45953198246504723
Ni 2.9657689170237207 1.3142710767521113 12.517744449061388 -1.680043137767894 0.4429720212238371 0.36030051306553434
Ni 1.9294679845883187 5.736468760663573 9.459566932261088 -2.0597372248686914 -0.4060851754998168 6.051824311597636
Ni 4.798753646616718 5.24897441963458 8.655453764899312 -0.8459474474500787 -0.36093943220111385 1.1913538170126
Ni 3.0124007694234445 7.707950467341498 6.528549445821002 -1.0913834125645334 -1.5577151915602334 -0.8360397014180634
Ni 0.46198386428745414 6.938806496057653 4.131486380889563 -0.9112125872064758 0.745447138640471 0.9394702965005886
Ni 3.1218936354143407 8.659275924781992 8.626466549403975 -1.3064302238641694 0.8868773528952208 1.2587234047065097
Ni 7.798970812091924 2.7389642774233747 5.8134995496940824 -0.371790773093321 1.7334480357515953 0.8126804578668326
Ni 7.109865046406397 3.4310079999931844 1.1350819888533186 0.002603241950801968 0.9600342366948692 -0.16325168100521562
Ni 8.34526183658144 2.818777208372418 11.893035319159583 0.3648719344863007 -0.02038242031109393 -1.0503421783525073
Ni 6.628772259994274 0.6793907964355855 5.028591984827288 -0.8921388584044765 0.8039423066628864 -0.6036410291035411
P 2.9120784589467443 5.870619814306257 4.512853834645562 -1.5787555571703002 0.3297262398231031 -0.47368204871318426
P 3.525792308675231 9.416761932965908 10.82086690798227 -0.5346994689368211 1.08868529690708 -0.37655425592023534
P 1.0264357800859434 2.8645924401685234 5.4499231613645 0.35055140409857044 0.45233186517218227 0.2969377325381725
P 7.055536310156478 1.204909620973291 7.509841124836803 1.1115388044664858 -0.768235083069264 -0.6193355570206625
P 5.925596215172838 6.990338072079086 10.340970893144414 0.18811064903042443 -1.420492330518612 -2.064991788399411
P 5.683679401183693 8.24228316253205 0.49470406845013454 0.37409422441551704 0.2332229679880306 1.6647880113810363
P 3.597307623376015 5.572487588879522 12.466226952705533 0.13577841528561133 0.036247926588440796 0.18207601280057029
P 5.26970907381151 7.367410289188928 6.338058141039258 1.2398304244567486 -0.6388245189832095 -3.3737789425315317
Ni 8.76648788494899 1.288186149654923 1.3887065140941095 -0.792184651906326 -1.2425002579794278 1.1286826632356237
Ni 9.133112990198748 1.0091553371978814 5.780377605740197 1.2525751257169266 -1.9226138655194116 -0.631015821572068
Ni 3.1831964993480355 2.055049215114869 6.24369152910274 -0.6299482995395022 -0.5806440539877354 0.34506004196669604
Ni 7.1470541364240505 6.128315240188303 0.20644544317220595 0.04628371355788803 -0.8577683513444065 1.3361956280520602
Ni 5.6169323998925424 9.153293844196213 10.47509472610031 0.3795763305760108 0.4371230186422278 0.08925584624403983
Ni 1.085166758440426 4.830310870402521 3.58677415623371 0.5467450872474454 -1.5767105017158136 -0.668119668402901
Ni 9.52451830686865 2.0784402328644886 7.798971750736297 -1.1175904099772043 1.033684515191168 -0.8247417599067408
Ni 6.92572179351232 7.384193250559843 3.581389153471689 0.35310708064088864 0.217303982764929 -0.3304217232282309
Ni 2.2588664540455445 1.6889966829320149 8.864779907649108 0.3127736711291646 -0.7342425281739032 0.8357535376362123
Ni 3.391293956614917 9.200864340967913 1.9657578532976205 -0.7442983697480086 -0.07728144749098304 -0.788311542104165
Ni 2.733013272105052 3.68875974453755 10.665599171903262 0.1080056160477172 0.6467645997658926 0.34282703887111926
Ni 1.549157444395163 5.394379819297244 0.870351423403318 -0.8864988865098797 1.2675389461156106 0.7771102740717069
Ni 7.061327745931564 8.618229006395522 8.567791889711811 2.2974621944921334 2.7980842621292714 -1.1595652117470934
Ni 2.396941041163083 7.1446042746131955 2.6563269655590576 -0.5341605657142154 -0.32430841124164145 -0.02420616493255831
Ni 1.819946959266263 3.6531945092834133 7.599317399595331 0.6050101415369258 0.6159352730898617 -0.16560295484621157
Ni 5.61779595271476 0.44759256877633175 2.203713588037031 1.9658377092050532 -0.4981381248730195 -0.6789926065616628
Ni 0.44239341759996165 3.5755498468336318 13.476121941668533 -0.08695985112101152 -0.09602041866138301 0.40760675435066573
Ni 6.991013896026908 6.350060586623703 7.968113589277468 1.415622146910504 -0.5705013091267788 0.06420327415078621
Ni 3.6941944954512858 7.251975804323429 11.051610099367423 0.2992429836325814 -0.4569565084283872 -1.1363082981016819
Ni 7.910688265244403 8.279059249026036 1.13992539381271 -1.49220605411383 1.826868554896286 -0.5300190327420162
Ni 7.748743951747536 2.509803640449371 3.52364844492964 1.4402800546685004 -1.2452809060483585 -1.3220244787580007
Ni 6.5795591355716185 5.019044094275556 6.081487211114837 0.4954567213861145 -0.5206707587578968 -0.6762698083138611
Ni 0.09060734122675748 6.674700129115015 8.193870701758689 0.17834251390006706 1.463965314100582 0.6602384658826114
Ni 7.007871948947582 1.5820757025203303 13.627926080014952 1.1501128080849417 -2.3338744145725805 -1.300212782199548
P 2.7228477535565614 5.832285578154793 7.822147818924734 2.9457242047391587 1.0511723875632863 -5.620905621993907
P 4.097135751452762 2.998949995573041 8.949749750777784 -0.21231090042571177 0.12956148784162203 -0.48207027277687947
P 8.544770697844749 5.868780071337185 6.296239656979023 -0.16896647200180578 2.3055367439701517 -2.4404070456191973
P 0.6849334914520985 7.113469440794781 10.645789082432728 -0.6919730779817308 -0.29371614027708126 0.11757834733781687
P 9.186212102321381 3.281707226186823 1.8167555684015475 1.472627103540638 1.492511758279707 1.1717103317500595
P 3.6676965648304285 2.7650679774080023 1.5883749449006552 0.16312158318525455 -1.669378973185828 -0.2131465089531297
P 5.1623938627635955 2.778800344569998 5.3745706684710814 0.7531365368649288 -0.596186886818341 -0.515420566102551
P 2.5485133343496242 0.06129910935620661 4.812699086051152 0.9103926624083417 0.2654689725059299 0.6027082328766266
