# total energy = -381163.1861439884 ev
CRYSTAL
PRIMVEC
9.30337466607670 0.00000000000000 0.00000000000000

0.00000000000000 9.30337466607670 0.00000000000000

0.00000000000000 0.00000000000000 13.61642922333543

PRIMCOORD
 96 1
Ni 0.9510095522215616 0.48155755158646457 13.236789196526631 -2.111019162972119 0.049763444576372357 -1.4503914320708893
Ni 6.855107799382596 6.4301017402746 10.785069973679269 -1.7394687880243784 0.3189656588724894 -0.3504318478015707
Ni 4.465256947563274 9.784079902416797 8.627301103133243 -0.230144586173023 -3.0323626679650095 -0.4173396653677135
Ni 8.59451322024214 8.354560584108054 12.788877298963854 -1.3879691610799259 0.42502880648185504 -0.8176205754809275
Ni 3.4462862443274633 8.775324304425839 6.553110958441662 1.5901853962737968 -0.876626107480858 -1.021167870781396
Ni 2.625086677061659 8.655654997718614 11.813178451388206 0.035146980214778176 0.3829617021084759 -0.24610008106101489
Ni 4.838052468753137 5.160935385536231 3.6900662887472797 1.0197619915728051 -1.9309087585383518 1.2495329964564932
Ni 2.5938459453565472 0.10627430804462193 0.8406510627539069 0.4463291106215281 2.579138629995861 2.450967851854179
Ni 4.300131352853911 4.812393761771987 9.70105193633512 1.7573947763751798 -0.20505730418709203 -1.070150728438002
Ni 2.924376236011471 3.569332675992686 4.861256015193197 -0.8741115685891203 1.186307255727628 -1.0679159255702124
Ni 8.14915137764076 1.5234834011621183 0.9213559762129627 1.1767008429861154 0.7130761785089331 1.0487599214670518
Ni 4.0403160120770565 5.779405118202242 1.6109323308251753 1.195470924504767 0.9020846567632786 -0.6410397814669734
Ni 6.832677363366805 8.119092174502219 3.878980612155265 -0.5219658234202366 -0.660433612612553 -0.6155143835023593
Ni 9.385151202144247 7.034672231377943 3.7538995324781577 -0.1048992092082516 0.4708147544677182 0.8675400860191896
Ni 4.2301327628154155 4.086851491525827 6.928692840306237 -0.010815859668581373 -0.04336114059445435 -0.05190697328193641
Ni 4.2765845118933274 8.302173282073662 0.26213374171220644 2.092891600133473 -1.7208599146739394 -1.093316625031504
Ni 1.0090998228489358 1.3435375308106337 8.786491144886126 0.6345240918356426 0.5027483699515213 0.8583085401185927
Ni 1.6138749881921575 5.7876199979210075 5.572333398704661 0.3402201973758915 0.00999439220855053 2.913369185447221
Ni 5.9581322464889945 8.810807374921163 6.976173542608265 -1.422120353040338 -0.021997844427329858 -2.2894053856259284
Ni 2.7315637986712518 7.926493714776418 8.538671575241068 1.38846564110037 -1.0993656594390615 1.9584321607696016
Ni 0.8696096766843725 3.499343389328731 6.332552136873531 1.1001048515979313 0.8890936438202495 0.712515935130089
Ni 3.7513904123647364 6.069642493724695 12.910471473863394 0.38100766370589867 0.3669766395341293 -1.4340199326914012
Ni 5.998769386479445 2.3421524505530593 2.122337898948124 -0.651578219104452 0.3330984987294457 -0.018150188546465516
Ni 8.149263018135239 2.7163992981711527 3.0224114755635236 0.11451770613462214 0.5384337391682728 0.33526079648808715
P 7.109499272802665 4.980701110574009 4.111970602783661 0.4634284893059761 -0.5309299745920598 -0.0977613126118897
Ni 1.1494226210348235 3.5076326960438156 2.720521623429799 0.18909486732056466 0.8568599805975244 -1.2614474885058922
P 3.138679468538947 1.7871782491221262 12.756864387171927 0.002269512760467059 0.024743268382950934 -1.3514690092713626
Ni 0.7382106753571934 3.9800580551818774 8.597835455290351 1.2820409963865274 0.3865273079725472 0.47042883188320916
P 1.2118947810705083 8.65025904048545 9.782928144648752 0.06821110975859866 -0.08747355753263644 0.7330883599648019
P 0.5897985930088295 6.195107802770301 1.6809206871516762 -0.695240435879093 -1.235318652629324 0.9957229483457304
P 3.353317622549861 2.550910871854732 8.420535464658025 -0.4719133868485357 -0.07161370768224441 -0.4638948874194333
Ni 0.7329291496308705 2.0494124672793643 4.554246516050145 -0.18891077633421657 -1.0762825523673527 -0.48091661878841047
Ni 1.5695258017602722 2.434758240723604 0.5354278115225227 0.09329890596516191 1.5152230838342937 0.019124122423960613
Ni 1.965858860536179 4.919270928486797 0.7035081579857699 0.07038060660609169 -1.7745427489093761 -0.7000242304209814
Ni 4.370790482484741 3.7787702436357744 13.390859591270187 -1.0292588753196468 -1.2221985703075984 2.3349583916653787
Ni 8.249832496911969 8.911172179458015 5.674932873806006 0.6966175187322777 0.04380259900724714 -0.3729511119500093
Ni 2.7227535029819308 5.530763130247855 8.050482578282535 -1.2602794363397198 -0.5166330983534134 -1.0217661664870274
Ni 0.053433001332681 8.192821417731228 1.3537619394300258 0.19866014241149657 0.966056274519233 0.15831721981807573
Ni 6.88000362965147 9.011918422351005 1.1148205801084312 -0.2274251303593309 -0.7902650662861099 0.13660502495196472
Ni 0.503612131270842 6.4679757780266875 8.392881183838059 0.203381716256882 0.0882428315984932 -0.2602637741559066
Ni 7.959213683033381 8.309783442447332 7.840380749697296 2.40656232915561 -0.43251277356372614 0.586531366006448
Ni 4.213256441399968 7.175804423148805 10.788474078423432 0.7859360998934529 -0.612268622871552 -0.5932663707374363
Ni 8.775342911174919 2.558558245726561 12.532084624575027 1.7750320298409688 1.0518709562922077 -0.44695928800635926
Ni 5.224570467389409 9.223626013381839 11.072525640214277 0.8321349670470186 0.28008620819847246 0.271123599688546
Ni 9.175964825613736 5.852436608340757 10.608491924911242 -0.7384455105116573 -2.1966368982429394 -1.4698893928945007
Ni 4.473006658555042 7.308582184582803 3.9536522872251707 -0.6891993718913356 2.7053345437993603 0.6730836972763956
Ni 3.235778788612282 4.107784084240689 11.484177635507647 -1.2458979708070672 -0.6429709370514152 0.4860189730119823
Ni 1.3878029868716597 2.7940173519578573 10.884550957634827 -0.34173200603472753 -0.7520579590887693 -0.3878766229115901
Ni 1.5727726794747108 -0.14193228198129704 5.0502112734491575 -0.14231750195570975 -0.6206049106513892 -2.4363966389082234
Ni 8.092168208583637 3.365988818673257 9.409606052459928 -0.15316755729633622 -1.0682198299638765 0.7920393845777134
Ni 7.48054575957902 4.230002515571857 11.44824428168459 0.5033525791944234 0.3580186590098931 -0.02394391241010715
Ni 8.614338711386749 9.487860457065164 3.391035363609679 1.1398988436664177 0.7692601818996687 -0.8236557259314137
Ni 5.404190719631996 2.4075179600706647 9.169616202827683 1.6719153664544368 1.6935805101326964 0.6939299445977856
Ni 5.192110993619564 2.975851807340949 4.734173779652549 0.4886890636449778 -0.17620926960714814 -0.22854176046227737
Ni 1.1310391529439057 6.67994386354464 12.249312276783423 1.7312232601861346 0.6119894010682364 1.345977390029172
Ni 6.239847730932863 5.3029793080120085 0.23023991311439032 -0.27120253255559745 2.0982528644453864 1.5077427162968484
P 0.6341468491032609 4.450576222539251 11.963816831263976 0.20357891986935261 -0.14003950455481043 1.4766925318592632
Ni 6.644004927696858 3.295552970031385 13.450921246962574 1.3268093017411535 -3.0419307712694192 1.128896579018643
P 0.13294057048844676 1.6586335231038003 6.924131395769305 -0.6063355452165687 -1.3349221606562753 -1.1686018680280648
Ni 4.801964678912716 6.380607787722128 7.779950680373127 0.8631668966521586 1.1351207055514838 -0.03706348051120068
P 4.220968938893577 0.4962596743719289 4.671660684768888 0.017498156784763415 0.5044121308071893 -0.16171338998381826
P 9.217392752440082 6.833514667075399 6.330904509242509 -0.7876875353669208 1.4788381174473564 -0.32893871092480126
P 5.470133038371077 4.997475094869517 11.850854327262594 -0.7859204161641691 0.6437798061059558 -1.0274783863804562
Ni 7.697202745865101 2.6407535597869156 5.737296184359574 1.179032833553402 2.0040643567864196 -0.3113186838501929
Ni 3.6040342630266555 1.4896935448330626 10.38518209549165 -1.9260164634430572 1.093384245044646 2.2791052892515005
Ni 6.193944880952809 6.420714635363802 5.52971370959975 0.6981727790345394 -0.13541614685018613 0.706767462682086
Ni 8.295902807633743 6.157429135883551 12.894581310149178 -0.6667269018204325 -1.2093404833980075 0.7772984788231129
Ni 9.314910724367712 4.4112787684825525 4.382624374899543 -0.868018568317505 0.9878160347938278 -0.7465753387076433
Ni 8.536115938254948 7.852131842078692 10.096840747700439 -0.40014592719724634 2.202688503753658 -0.010778835783058856
Ni 8.239347593805459 4.8738239438591995 6.347352875429119 -0.6590259336317489 1.2355413101630914 0.40750468155516273
Ni 2.570978250737379 7.991170774578068 2.765523906754388 -0.2537257159270727 2.5050348089019114 1.5855980340134306
Ni 7.100363359004446 1.113027819834585 12.433460481414595 -1.1047341228398266 -1.616379023950029 0.4084580466073675
Ni 7.668297161169513 6.49335538377164 2.1106147166903475 -0.671412994442192 -0.4867435098828327 -0.19798419939039452
Ni 2.397861057298209 7.170147971428523 0.8008828579454871 -2.4805255109066375 -0.10852575021724535 -1.8672173910269778
Ni 7.327691315887836 1.3686845521920867 7.508494027034448 0.9010680425733063 -0.6601459061688051 2.014614107277808
Ni 2.233079687446824 6.000639364761973 3.588405524137013 0.9734805920077623 -1.9406496399751998 -2.3868023729198637
Ni 2.676078472915061 1.6154565618639471 6.1661724472761845 0.183013179902859 0.8377793098169893 0.867322570691745
Ni 1.1682154376054985 8.621037141055503 7.1461331707285805 -2.1399412453231084 0.6274075353955194 0.3967291882062135
Ni 9.375196591386512 0.6224692533807304 11.173573312442361 0.3266874529967793 0.1337055919169826 -1.0849474271312023
Ni 6.768558506037551 1.286600878626212 4.402123317597799 -1.8475157988329922 -2.4389967955352314 -1.1484978981893383
Ni 4.914572724344128 1.2135321749895376 13.859754319770342 0.7572626432181604 1.4647734118241742 -2.0404629500201117
Ni 2.2689721064219053 5.913420228450052 10.254096617886468 -0.6346760440324747 0.2528679959124677 0.17930770602681378
Ni 5.167550084834128 1.9101502537910293 6.96096345557292 -0.6270403818640878 -0.34377551882731766 -2.377352026140241
Ni 6.689712406811575 3.7659874070178994 7.756067987591652 -1.1506578819551345 -0.4842819357162175 -1.2784177978116433
Ni 7.326323719830466 0.9495210122951715 10.130051003795655 -0.6988178688177061 0.13623632875863634 -1.048591771320304
Ni 8.783092622166686 4.160329543642259 0.8083627710755974 0.20655471466822492 0.638211825099875 0.3255415123177942
Ni 2.8960195504137394 2.0948315417833423 2.716218812705078 0.39592700401989234 -3.5807753727228655 0.8851523997843143
Ni 4.739083170397275 0.24328510489429164 2.2144943361283893 -0.4836196195418703 -0.18369143691680623 3.357565565996463
P 6.20866281947499 7.850429324537883 8.8215667275766 -1.4194240371550975 -0.6580612557256345 2.4938618230042273
Ni 7.162100552451477 5.887417296610925 8.23189373012406 0.8908558779269947 1.2016719111091563 0.857367516361562
P 0.8395467521960163 0.9675602555281116 2.0343214634381304 -0.11628405400642554 0.3508439956383248 0.3919163401986025
Ni 6.185646270863184 7.477764050591579 13.06372503232234 0.9363019260749359 0.24680482043752336 -1.2931551040218179
P 5.518361731986118 7.49876176692822 2.0222307978860266 0.6510161759533949 -0.8316078908989549 -0.308319749122869
P 4.044651384612668 6.030400859915234 5.729602293615046 -1.1725217719077614 -0.5664369092494181 0.29910800071661386
P 3.6596870495245657 3.881386464811293 2.3919301560289985 0.42063324851732076 1.1275884017301807 -0.06852067057921749
Ni 5.597747426935409 2.778778424461438 11.442035209516634 -0.7960531337227967 -0.767473265202575 -0.5399524898056444
