# total energy = -381172.441500281 ev
CRYSTAL
PRIMVEC
9.23097008755256 0.00000000000000 0.00000000000000

0.00000000000000 9.23097008755256 0.00000000000000

0.00000000000000 0.00000000000000 13.51045780388834

PRIMCOORD
 96 1
Ni 3.1839553579801954 8.748227068167097 3.5435090191304734 0.11091456216439607 0.33159080383566764 -2.5023629184967033
Ni 6.913350263544719 7.136785889209467 10.479873013654114 0.8199337969951362 1.2298591721766496 0.0327270579193759
Ni 4.032512263133345 1.16985927336273 10.535144368838177 1.5954070496840524 -0.5233537049066986 0.2585917857701224
Ni 7.786489241457431 7.807895860582263 12.809061793050683 -1.3749385531482128 0.8077195143171315 -0.08451858866937056
Ni 5.379135378506167 3.5824286342896436 5.391551032979172 -1.1116239079811243 -1.1242662793354832 1.4933903042299184
Ni 5.536366488274712 3.9336947306920673 12.999762553368093 -1.4294292279969254 1.78804284027834 -1.8834904171553883
Ni 4.180503172063617 7.371991001456431 5.070880063108589 1.904144088849998 -1.2919957936063942 0.04658247574522946
Ni 4.377870538819989 3.3825135198495917 11.232107517521413 -0.23275785542615396 -0.7711725684310331 -2.4583129793653407
Ni 5.981650012786843 8.29308486783551 8.476190386145195 -1.4655781671136565 0.813438933299412 0.1370022603903834
Ni 7.8110990071266 5.068670168922093 3.2544799677748117 1.312645608646262 2.099893742482919 -1.0301618467498903
Ni 3.6023213743560567 5.378479979645509 12.031238117611176 0.8861111641531577 -0.009581473040848016 -0.2464309820378724
Ni 3.2997024891601288 4.917688425754458 9.81491548369861 -0.00470100502009513 2.0893851296421113 -0.3352911355053903
Ni 7.622593371443897 1.8590527147077316 8.587935891887174 0.3182357226850003 -0.3898604861108383 1.037814735309458
Ni 0.8843841454064038 8.945040576731365 12.415678473526674 -0.21440789216405653 -0.5195009068195117 2.378061907723072
Ni 8.156798828698376 7.885389852627524 3.6003616394529945 -0.17811857081471905 -0.9046015096478613 -0.014215629378749713
Ni 2.1376433853362014 7.2198553870552455 9.060072307746497 0.7058984298135714 1.5385275628881891 2.7038574450332016
Ni 5.119809741993058 1.090722168680892 3.345270248818524 0.12261693820298883 0.6568857473602945 -0.49500806388447
Ni 5.0523036593454105 8.778273875088756 12.563198602993657 -0.4324999180479197 -1.6547144291951181 0.3297005287914902
Ni 7.36720012809473 4.558391385566522 5.45654998421056 1.0380749309493797 2.106671427526385 1.0833877959535665
Ni 1.8417354152346035 1.51981457204384 2.4826278067431753 0.8354594034345612 -1.1376105618528731 -0.4212490277244487
Ni 4.383353734921823 7.965985450548571 10.554882951707786 -0.32918862215207817 -0.8141866100987138 -1.107800420469976
Ni 8.433764848630004 8.62554747861599 9.003261226788384 0.6379811971463076 0.2300859650209457 1.6087356484721587
Ni 2.9439409104317913 0.9423066351366729 12.862103869011525 0.051529535337859644 -1.3903255771272442 -0.45498781473779065
Ni 7.827613212221176 9.074504929135747 6.940849322782698 -1.0024800645639056 0.08288002462468307 -1.7509994143717973
P 4.4138436283971645 4.641359342743748 1.41089743546954 -1.3504667932590937 0.9128233833370215 -0.20574044629704566
Ni 7.6972996105889 4.684947982462357 9.689348446772668 -0.8332371989722619 0.4339603046435301 0.3025391378853499
P 0.60469037387866 6.168641769411128 8.204427863928386 -1.5993804325095036 -0.5962514215076893 -0.9736232882332135
Ni 2.0437090359553096 7.198107222045282 4.873667776646007 -1.9484151428532313 -0.5078442964171899 -0.1485691392923764
P 0.8309986773664559 1.3300904483385076 9.293627845677976 0.3823752334773866 -0.1057643854220243 0.15126005586097818
P 4.01089333170154 4.062042135742374 8.001622532822536 1.135886894293547 1.4835306378270192 -2.22140279233371
P 8.655040427345547 5.146588785581303 1.1907092650044968 -0.08522538492840807 1.0396774995498093 0.3215784139049881
Ni 9.140210972659057 2.7593122820938185 2.1077396584475023 -0.6247006779873177 1.9344969901102422 0.6573904549108549
Ni 9.159596009382707 6.562176476840979 5.475720862433264 -1.149891436102755 0.16457605624359398 1.1897759310025187
Ni 6.796015405547419 0.31952079102497816 10.901777260780534 -1.521264147822051 -1.398649266501591 -0.5457215310789375
Ni 2.637805025716001 2.353352689221094 6.820660248902088 0.1429934449768118 1.3644453669263727 -0.7580825680162944
Ni 6.154453768723389 3.511507092790686 7.952133457164042 -0.9372686608635793 0.3314537640371711 -0.2195472702731509
Ni 8.022848224937947 1.0763218556861798 3.6912054601219437 -0.7415645157566132 0.40142042303429576 -0.02808827359578388
Ni 1.2847756172545064 4.435841029593574 6.333648125099831 -0.8620178706493798 -0.30165956349387407 0.030926771485843513
Ni 3.3560944840862157 3.1645703212565444 -0.2796476166784018 -1.4307433188226586 0.6696685009472596 1.9514040502782264
Ni 6.569302785579388 4.300893481087359 1.2330304925601743 1.3869877710032628 2.086125999274865 3.7397060577552237
Ni 7.620876411048373 3.155930133459717 13.034038067586467 2.4826757244804214 -0.5649739515506463 -1.9869932602367457
Ni 2.105648843772309 8.47749195289664 1.2322163210177808 0.010618656056110745 0.3388580269210422 -0.6034299415339994
Ni 5.746804908364746 8.052387328516843 3.4544080055726787 -0.18320755530185223 0.6043072019326302 -0.6537562005923773
Ni 5.656876799906742 6.407437728936902 13.160117423340107 -0.2112138107067911 0.2597307844705721 -0.3346349899786301
Ni 1.3644204252791066 5.25368649799454 10.965182023515649 -0.5484952371693328 1.5821846374565072 2.7208146417128303
Ni 0.1967331991264125 1.6645007937612235 7.348473259522696 2.208264969400171 0.39580667639194417 -1.1313550678614643
Ni 6.245129585740733 8.86848814361268 1.1207154359773142 -0.28728812526355035 1.0572733582547016 0.15468605082339165
Ni 8.424146178027126 4.564354592101512 7.598915933731437 0.6116379312660886 -1.0075479660051163 -1.529082358314889
Ni 2.616158401374591 5.913580840977223 0.46342884198245493 -0.11257395214468999 -1.0393219159826035 1.8157613892395308
Ni 0.4493331509934002 0.3248433682511006 5.278143952660879 0.03816725509834072 0.12140800549655222 -0.5022421197390641
Ni 0.7830557891609197 5.1182127842058245 3.9392443897769525 0.83684882758292 -1.089335271786253 0.5475696400312698
Ni 4.343300556662812 7.2320587292212775 1.4731806353656438 0.47285518193651466 0.3102737875254463 0.3399882838707435
Ni 2.700483311122472 7.404142469508087 12.292908420470857 -0.11318793157960508 1.9480721576915159 -0.7560740222266978
Ni 5.448183033121838 1.719443526417971 12.763815271143708 0.15605979124246672 -0.47566488347116787 0.432970429926435
Ni 0.4908909773409605 6.797076967082287 13.153929904237314 0.7958266195342876 -1.8346600259162469 1.205458374734782
Ni 7.354646009073698 6.596921847425657 7.857776329363177 1.0054165214844104 0.08055446181529997 -0.13956873556597899
P 6.683074489207482 9.241400864356514 5.11010060788547 0.03702028597809108 -0.06994171929646019 -0.6779058012553874
Ni 6.954575774977016 2.121738424252939 1.3441759852607071 -1.2337592785620044 -2.419060204512305 1.4182418439215383
P 3.8503021489008944 2.015609963675884 5.017176126608182 -0.07292677006671312 -0.01785605434481441 -0.27929919352080285
Ni 3.1270741216510825 0.5919516354602607 8.221262383677395 0.1890089924749777 -1.7608842775856772 0.6199680483983387
P 0.8612494887222066 8.693690498184559 3.299294480291945 1.312033943204192 0.39579304954518935 -0.9910656520793771
P 3.904007931595276 1.323924160466413 1.2353945439434726 0.06543868921978407 -0.25770115563505297 0.5863004809425645
P 8.999226369858903 3.659636466268985 11.04194861513528 0.22348414343371184 -1.0142955691415951 0.984931257046865
Ni 2.883681139130842 0.17737308602140622 5.648992628542138 0.21999387089226627 0.22605036149899135 1.7643717219136452
Ni 4.193426529879385 3.441047099785149 3.3192490678564766 0.11308148790872782 -0.23595502220721298 -1.2137339844800128
Ni 0.07545487080133108 7.36152308162566 10.845357572944842 0.6169452024116149 -0.33197132710353794 -0.3468004216965705
Ni 6.801590911347937 3.18815544927032 3.658118894822619 -0.800594473236576 -1.7752899114880458 -1.3510902857757054
Ni 5.1313207614189595 5.6105557931070855 6.785884416116845 0.32705872029326905 -0.355077316993382 -0.3423277306371975
Ni 2.131827874319106 3.879453551745318 2.0236778313408705 -0.03031099227871554 0.4123023600541222 -0.635584671889673
Ni 0.6317657315996793 4.12833896133726 13.334929838320017 1.1204744163932185 0.9687320215791831 -0.6220205600519932
Ni 6.740518814698568 6.929615232452849 5.448388883749902 0.23738275579267504 0.9469946299020916 0.3910727612513845
Ni 1.8319690491138307 3.104005927949938 4.404368960924233 0.035866374879305975 -1.4199621690467545 0.12557062151467405
Ni 3.165373415635096 5.8621274149307325 3.0666168075949494 -0.08643483185547694 0.3344508989922821 -0.5306116720206927
Ni 5.573124210290702 5.798406029929131 3.757420130085001 -0.4019822090750367 -1.8096385641712447 -0.44562000036964544
Ni 7.46564842174127 2.38625186583209 6.129207989230288 0.015780145652392177 -1.6191527300404245 0.2468171617326975
Ni 0.9431466533946977 6.613879139073917 2.2605832882375956 -0.7210273150352098 0.4905060622490585 -0.5996506769972253
Ni 3.461752165199982 4.789313327794547 5.06196294621571 -1.147567415955269 1.0091754743062105 1.4445244317671508
Ni 5.3971450007194255 0.9662425400054476 6.767280319444061 -0.414123472423261 0.050008984928275164 -0.4850640652978807
Ni 0.8405278075616107 8.227821910865885 7.156624166553657 0.499752777658307 -0.46250572038139054 0.4199670756882316
Ni 8.827465713517487 1.2350760754830128 11.443060102633119 0.453832875197741 2.0483012151176077 -1.9474278392392976
Ni 6.869438539880715 6.730558598210559 1.6378731380788216 0.9579477864794855 -0.41153874241522026 0.38307045977219834
Ni 7.9429172568474256 5.378830756500509 11.95747066810179 0.3305410224149146 0.4275065785983863 1.1022452949797017
Ni 8.745107000351576 0.5003277978374311 1.4926349043633076 0.7906741287990706 -1.7373273162013434 -0.09174955920017103
Ni 6.695739379866934 2.6182722934744556 10.708888760604312 -0.05712065627239195 1.079502344856231 0.05564587149907836
Ni 5.434244268620546 5.809492424741086 9.202540327404503 -0.38569581321018737 -0.2601424180866939 -0.9484763566539406
Ni 1.892182665565438 2.445016220014358 11.117188404338677 -1.391238318749501 0.6010380442630552 1.3126684914643973
Ni 2.6166291808378794 6.07890751132036 7.213625405491058 1.2634902299675337 -0.5921140023005479 -1.329429255862504
Ni 2.946045571561788 2.835901639091977 9.173992629989472 -0.2707340775596112 -2.698736064646236 -0.5941480020114412
P 7.613011624720492 0.7130324210301584 13.1060627099847 -1.005891661348616 0.5238229312336334 0.5645846865320276
Ni 0.7125930268644222 1.8876133354805775 13.448404304718348 0.7008377274612124 -0.6220066760949223 0.5214194639984633
P 5.873056883254924 5.496802551418727 11.225677223911083 -1.223179446163629 -1.687271794305849 0.5156815330734215
Ni 1.9659750386934693 0.04239230602366412 10.534265580506704 0.4638012992643625 -0.8331006733943974 -0.9777020862882774
P 5.608571134585378 1.286206417584109 8.946990157567571 -0.7441204494092475 -0.12708577260761986 1.1421107637160717
P 4.241972200417328 7.581552479408966 7.132791648547407 -0.09034702242568957 1.4835198391937416 1.7773689055042614
P 8.819600927189606 2.967193723530304 4.584516876488082 1.17579401490113 0.6673002578253991 -0.5112738909240291
Ni 0.9906769172471162 4.112849393898076 9.164238264129528 -0.7628869313834733 -0.9891756341455159 -1.6045192963979658
