# total energy = -381168.9984147643 ev
CRYSTAL
PRIMVEC
9.23110072694456 0.00000000000000 0.00000000000000

0.00000000000000 9.23110072694456 0.00000000000000

0.00000000000000 0.00000000000000 13.51064900784274

PRIMCOORD
 96 1
Ni 8.048255040774393 9.100858977160525 7.396121171310935 -1.6109704513399479 0.9875779506410929 0.9294625345555994
Ni 0.46465483233192795 5.363777144708704 12.184983525977582 -0.08979217836348406 0.6684207445830874 -0.16874869956404487
Ni 2.0541137310886675 8.32000941060699 1.1835461749349419 0.1386927607189289 0.38643140582463126 1.449578963471923
Ni 1.6012267057699734 3.336248983276543 2.844235015059909 -0.002407323889911983 -2.0942062051798382 0.5741378774381015
Ni 8.178496638789547 6.599267645690217 7.938533256227798 -0.3987747578813326 0.19020918343066595 1.3353474211191518
Ni 2.489793984935234 6.453407025501866 8.576478924107212 1.4559609557388666 -1.4649101945123546 0.3831385940059724
Ni 1.485496397858996 5.584741999176685 3.001174802158586 -1.480902713285869 1.8348117210027624 -0.04203008048785664
Ni 0.9038392119568311 4.126689663327686 0.7259623656435984 -0.12714542220096164 0.5917481343206971 0.040375061382936915
Ni 3.4153779774069486 4.481376240727661 4.117465024522913 1.2441941007420831 0.9834844972980095 0.4007943594145226
Ni 4.607076137259829 2.4008615619939913 5.082733518367308 -0.5951887845711298 1.721242751934655 0.31691931786642197
Ni 8.537484909057554 1.8311826521981747 2.5067256696102214 -1.2714881605713457 -0.18566887235815122 -0.059136144040523975
Ni 6.142429709325349 3.0165113526541827 1.841055314263325 1.1936711522918668 -0.2580719087109104 -1.8252839840179855
Ni 4.789888853050607 6.663829963112996 0.777329747904221 -0.01684998167780324 -0.5262600799202162 -0.4070395689932861
Ni 2.2767494147607543 6.443631289992755 5.269883005208305 -0.5356728885936839 0.4229205018896007 -0.5721028492859437
Ni 8.195703410261673 1.142487162686618 11.78785234813295 1.8594966253439524 0.2526427672755391 -0.2091643843769301
Ni 0.7802818538681623 0.6688126219826859 6.786763298802783 1.605137646708255 0.14697119867763722 -0.49968927141022323
Ni 7.102796488764325 6.633127322599961 12.381536734974512 -0.7978837591736323 -1.575797760093557 0.7078658379525873
Ni 6.238608546218104 4.407619747132007 11.70362686337499 -0.975697654263739 0.2252623183800572 0.9006931757323908
Ni 8.373577487244734 3.5867995150879612 10.855198255730707 0.05501183745950526 -0.2812462899448447 0.5007236262120086
Ni 6.648958660086388 1.2666177721210052 10.131162420777148 -1.5618441261269425 -0.1056509997726116 -0.19918567589766342
Ni 6.85105514497871 3.6827937299692133 6.069712637654459 -0.2672013818160044 -0.26074379911611867 3.2989277017485956
Ni 4.783944024280194 7.277605840356427 11.897126424301648 0.3779609064597748 -0.22440511258608448 -0.10979844628208187
Ni 6.593516670031883 8.478165856761475 4.689005847304743 0.8824203455651319 -0.0963556905136147 0.9577230720631892
Ni 3.645813941065059 8.345865723318058 7.663821241770915 -0.3232951394857787 1.301038877645269 1.369912560688531
P 2.796441914941995 4.267537795903716 9.033301167601103 4.78691894645013 -1.3812552393948598 -2.45028239575138
Ni 7.537636712458551 5.918917071098619 5.942847776229704 0.010543579843801196 0.341037036850232 -1.8326453094790633
P 1.2558081533474745 1.1251419247058627 2.1135924814246967 0.6801933117379834 -0.9084224260558483 -0.439204840871921
Ni 1.380151078095091 2.4560820056346926 10.057056991579753 1.4034063215706023 0.34586659702839145 5.021659893744585
P 0.4904216033674158 5.497665027451052 4.93823633173391 -2.112616075145594 -1.0241948305331783 0.468141064290297
P 7.006349949954889 2.2762509353296947 7.756247636279861 0.14111782522065372 -0.30242755200815014 1.4298830277048922
P 1.4233249354851876 6.392343295197079 0.5927243523817428 0.5404376569721789 -1.1794575797956461 -0.5787460656340743
Ni 4.120495594841743 2.818716560629894 2.6356435278028942 -1.0785430662667552 -0.5047695141466081 -0.3118709568092371
Ni 4.653923972678845 1.0558255904868687 8.635763821331162 -0.21744025123247715 -0.6037508152085279 0.3879146752383771
Ni 6.629047176145734 0.6053441899780654 1.2487491307376377 0.18924681951739664 -0.6336278052736185 0.22021292888160784
Ni 5.6531259922375865 7.854623475109507 2.766805466545393 1.827676395509562 -1.3228302624887476 0.10185939394066329
Ni 6.545081085313936 3.787409792787679 3.994045209832814 -0.14227405031228402 -1.847238891022522 -2.354309542498481
Ni 2.536771055762303 2.252887019773925 0.44057550648158217 0.5730215044454712 0.09136312239502975 1.75419169605685
Ni 2.1738226433475454 7.6189811707269985 12.380037604241103 0.2567830146961578 -0.14824929405911244 -0.3484942644592256
Ni 6.904669377119329 6.059322110847041 10.237626549930765 0.8867752800997178 -0.135997730385269 -1.892420372655167
Ni 0.8622484883153771 0.06385059956843266 10.846011464438293 0.36522546117097743 -0.8429937641383934 -0.6920406979948727
Ni 5.829513862028042 0.9001329250758981 6.4574825564058065 -0.4564392024723365 -0.510135920664844 1.0592744478451306
Ni 1.0406219678395543 0.5398430696267914 13.194688691770759 -1.7893790425912603 0.6052315135191125 0.8102394525255079
Ni 2.871536918121049 0.9567389569129329 11.987444435439226 0.4224499900110854 -0.327666529080597 -1.7372694663802146
Ni 8.362020149324614 4.300945148885278 8.500062950435849 -0.5799457423691302 -0.39976488970874374 -0.004131505669870304
Ni 7.150465892134532 4.81288352458337 0.38870133679938246 -1.1612086608877874 -0.9718188880346231 0.47832983189784073
Ni 3.3220053950890467 7.131292896239892 2.925352388254208 0.7997717202249646 -1.206852169758515 0.13356418124311192
Ni 4.0136640678852356 8.896500872627286 13.483965536715154 1.0118941587889543 0.2306986589042801 -0.01587630491062427
Ni 2.790838636892863 1.148210445043227 3.7709027387391503 -0.5635307913462166 1.5383866664349506 -0.1896970196809378
Ni 1.4265835139882248 8.30474117025565 3.740193636455713 -0.13530738918646373 0.4249200488181327 -0.005877027606067299
Ni 4.221197671016335 9.123493635770856 4.887693286754652 1.766351214237519 -1.0883392264215708 -0.19198941525954033
Ni 2.029789781073079 3.1874528731052862 5.430942632493683 -1.4168385358161084 -1.0264532875500516 -0.3763341694896293
Ni 8.731070319219564 1.7691127319306934 9.216004956405094 -1.1517176906782165 -1.1452649930743373 -1.818172312673869
Ni 3.2395347425504273 8.081597776051927 10.106748929085981 -0.5458667984075503 0.9233420234801581 0.6275499745106546
Ni 4.163650990030689 6.956058914021333 6.169313443530433 3.1707834059694746 -1.96911869394917 -0.8630488830170556
Ni 4.109362887548081 9.208687462979153 2.362512800874539 -1.28743619926017 1.7537913752946375 -1.5784454821290492
Ni 8.95605993353832 2.725094738596462 6.6836777524596815 -0.2084817564876087 0.03540769007533257 0.6205128651582152
P 6.369431703569493 7.863614567069729 6.759404162918077 0.0565347018619349 -1.1676045371118022 -1.6169881182889376
Ni 6.217173930682545 2.168856311238101 12.604989371047502 -0.33439973403937245 0.39895190688914517 -0.8863029684489897
P 0.8064141764864271 2.682280894128797 12.278531499206412 -0.6636102105683216 0.07087220153052955 0.31994602050788773
Ni 1.255041971999735 4.9102531734503225 9.898225751973223 -4.655132168822415 1.7545940737015908 2.211064386522179
P 4.538230589170168 4.2991266220719675 13.185866528951063 -0.000945137522088695 1.0804186860229132 -0.06713638863718116
P 9.062549909773546 6.794763893671288 10.405969515569955 1.0505170133674744 -1.8005206610303766 1.4391467123950055
P 5.467903959196685 5.122023851745428 5.15859562600416 -1.9554293693875358 1.1948543739666906 0.6932221198974836
Ni 7.4937982158270415 1.594894170775403 5.04942955371219 0.17914778341018178 -1.5588565042535283 -0.22807947611387813
Ni 5.743886173092713 5.527564562214047 7.756111939101406 0.5094139548971549 0.158695686203417 -0.8148496976040096
Ni 4.159792389990265 2.209953170998783 10.562638831421781 0.842279511680188 0.4574267631965864 -0.34205596503304964
Ni 8.624358796570531 6.926556316583071 3.72046769763662 -0.7777869884237572 -0.6031532908338451 -1.3688789772176941
Ni 8.896371637219234 8.21991658707036 5.472109648618735 0.5334314008576748 0.25527017759605714 0.15764101968665756
Ni 3.211241419287514 5.589283700659671 11.559305990762576 0.3420783336305528 1.5329724373979148 -0.6884642934975239
Ni 5.735615106977356 1.2402445177777284 3.512187298468989 0.9796772077367771 -0.3754985609622114 -0.5239170336093364
Ni 3.1360356429015575 1.383308114491801 6.660749544851059 0.43375307372873034 -0.0209712029350284 0.20880725814782747
Ni 8.123931603289684 8.354238331539742 9.591979374841483 -0.1041427906582013 1.9654831540791116 0.9466066504350537
Ni 2.813371753396867 3.5387516365941716 11.95455956275022 -0.694064927513753 -1.3975796875864963 0.10676583010334516
Ni 4.883981461213373 3.1132440555814487 7.576609495976885 0.032154987465989784 -0.26206560325133577 -0.3707505047542647
Ni 2.127408669655562 0.6116407236803928 8.812780329070788 -0.088506369672525 -0.7285513913263968 0.20431271271158363
Ni 0.6396192664136928 1.458135415754175 4.371235364214953 -0.14667320782124418 -1.863438640710836 1.0579390168631586
Ni 5.920947913225158 8.186435385284197 8.723474969666308 -0.36520463523537106 -0.11063405480949977 1.3087159345745525
Ni 1.0857066630487122 4.949116106871813 7.048383766423952 -1.1995926599826245 0.5938314992122871 0.09325288321857488
Ni 6.663497643492289 8.8499392013261 12.48543369505817 -1.1493306785032786 0.64531166936945 -0.003364031376226464
Ni 1.5663608388975347 2.721910008898026 8.018029648161095 1.071360175365071 1.0780234463178593 -3.106845212554617
Ni 3.3442985029780963 4.535461258997615 6.6243522383932 1.5001919005327842 1.0406776586795494 0.63997740164073
Ni 8.97703299404512 7.777996109234975 12.690606905772198 1.0096871238353062 0.7890252803417379 -0.6269642772105137
Ni 8.635879210088351 6.269338880032864 1.2630887223711156 0.833717738153106 -0.9190644791507269 0.822682563384867
Ni 0.9892047376358258 7.48320091236674 7.50412504804049 -0.4596255706201181 1.8278574011721167 -1.3299020817338645
Ni 8.750640252438936 3.356566635642505 4.5475632318516706 1.2901026903487394 3.568985322066473 -1.3989536851158875
Ni 4.63500944760031 6.279493090665556 9.609610776940068 -0.4269795024503228 -0.9374131568612436 0.3877087298751581
Ni 3.2219587270552927 4.851792613507735 1.7554922430320217 1.0775220812014088 0.028884544244834123 -2.1057841398254253
Ni 5.941717889519303 3.7220259074137094 9.529385128061332 0.7392325251893269 -0.0016136243440230274 -0.1445535903750801
P 4.876079639121023 1.6305446811967312 0.5813377898222636 -2.038002918515393 -0.32632569878198636 1.27146527775321
Ni 8.283241937016065 2.5953239267106425 0.17441610670759933 0.1533519053930004 0.21053632502379224 0.17743311471192022
P 8.060467786835352 3.9363905249704394 2.3325320324264838 0.6011210908951647 1.185657280848455 -1.0046709015676376
Ni 5.602844187404604 5.394498247422889 2.7279083780517754 -0.8420262580188015 0.6998933612700721 -0.30067920185847574
P 6.853067524904097 7.4323560103986726 1.0078635612284284 -0.2355433885910911 0.7960042827627323 -0.4277642031351472
P 4.962538127108118 9.150042281025062 10.86131847541205 0.21653985090539482 1.3429967101342934 -0.14271422317349616
P 2.463106873172401 8.65517221029047 5.826805457119286 -2.3758052504784115 -0.5971479651800297 0.29908948877385266
Ni 8.775222673270628 8.642802535519733 1.478888776067285 0.3179845259061426 0.5443557610796625 0.6479434505653421
