# total energy = -381162.2259858188 ev
CRYSTAL
PRIMVEC
9.29598563223797 0.00000000000000 0.00000000000000

0.00000000000000 9.29598563223797 0.00000000000000

0.00000000000000 0.00000000000000 13.60561462541744

PRIMCOORD
 96 1
Ni 5.451733033586062 0.41723544181054945 13.246412343540852 -0.03916047224954546 -0.37288940547413846 -1.120915360585379
Ni 0.6552340549251137 7.29178972687182 3.654141332295892 -0.3910012845835008 -0.6658498985321177 2.492083648057882
Ni 7.590730033037208 3.708596286568118 6.32564492507452 3.241248858979889 -0.6263333284947342 -0.5441811831750112
Ni 2.7945313147123874 8.794021006066016 3.0189494224075526 -0.3514667168239883 3.2965525166482 1.3160034693749014
Ni 5.385406176054809 1.0069597563420405 10.54348088251532 -1.187077044014117 1.957167692234881 0.6780783222775095
Ni 8.120117823182946 7.7606978344529685 5.747773921830779 0.16847873373210984 1.996393470504723 -0.5072092339363523
Ni 7.442514838015722 4.9958578978701995 12.79082910177404 0.47249754148677986 -0.0348944978843399 0.7327317479563317
Ni 4.294261973769806 2.649885778176114 8.897799530537972 0.008191791782172988 1.4850126216891844 1.1103129024791847
Ni 2.039539249104002 4.93165982105018 0.6725496873740927 0.7730494737387719 -0.02792269455219707 -0.5762037588281947
Ni 2.893905401188785 4.995681274143067 8.166566145024664 2.745739687089284 1.2181855924934633 -2.9638499678055927
Ni 7.103239250164543 1.8400752852570348 8.69764766375375 -1.5878289802264784 -3.1433463928044447 0.08044544704126146
Ni 8.442409645272443 8.948222815838747 0.021701478473260222 -0.9383814343117839 -0.9586383847886072 1.12320055707513
Ni 4.268112366168486 8.159393362505938 1.2399134380505483 1.4371816182488344 -0.6391538772981702 0.5367864333728368
Ni 1.627299469975624 6.5933172539459886 11.300850861250055 0.36708771119069683 -0.3809390152514923 -0.44623526535614116
Ni 6.7631456155771685 1.1997027225723156 1.4124125363556923 0.7936175276981107 1.588582313452735 0.0662349598688343
Ni 0.8398086385747704 8.833175697575706 11.890340916943453 -0.4470852720612623 -0.6422042340887197 -1.5661229560079544
Ni 2.392349792044951 7.506145859711788 13.571137854670528 0.22212402986139163 1.0634339785394589 -1.3353407362509326
Ni 0.6415968439933198 0.1594224353073564 5.075737372863936 0.384655287760815 -0.12130953224547493 -1.2516855240231217
Ni 0.33749447700282786 6.696493398548565 13.570688858564186 -1.3814082200329565 -0.1337058490272988 -1.4000669727847241
Ni 6.716163704159796 2.701906113809596 12.546485978461147 -0.4423233318962447 -0.8353385615859806 1.7250824373957192
Ni 6.5561797913198685 2.593812392804212 3.530235139719287 0.06479822742230776 -2.9275642460006805 -0.41455207532024735
Ni 5.498910160701844 5.524799480705284 3.4782073672972937 -3.2103688815715805 -1.1298093206408992 -0.6171796870199242
Ni 0.6945774549432672 4.591045611267045 12.532132047036619 -0.3875174397999584 -1.3373893912498451 -2.6933298060290003
Ni 8.835555469899182 4.850022475172189 10.418158911325959 0.6064229627240524 -0.959499961457954 -0.41769987692060967
P 9.153152819241198 2.5154379378853613 11.463995409207097 -0.3743006839993683 0.6138164269746461 -0.4362753259299519
Ni 5.07567323056303 5.836456695224249 8.979664628064109 -1.2288572132746967 0.3281622377700929 0.21213555119011207
P 4.702699694772005 3.0434592181422273 11.315163890337772 0.1917256200751924 -0.5039673299602869 0.20635365440101236
Ni 0.8925494130952424 3.8354586025777913 8.061408096283943 -1.9926250046012266 0.09419699229939907 -1.250252134010705
P 3.8409990100183835 6.264936561263222 10.786368254477214 -3.684931276007189 -2.487974253875199 -4.002659462928152
P 4.758280392905062 1.7750405697295435 4.867775948544744 -0.7105840082146988 1.4492699168719363 -0.26304673621768243
P 7.3368566652476455 0.40134116556570887 6.920210588926582 -0.028951650037343686 -1.2536819856278603 0.5168367297237874
Ni 5.955017696058672 6.258327115474193 0.9453626963036953 0.5798261860721304 0.35450087566462174 0.4674856900944852
Ni 3.5398741472279283 3.3366360132116983 6.314991725532709 1.6534638446174685 -1.632938728080923 0.9343221766407457
Ni 3.1727663783748468 2.70449969380276 -0.2783357539974816 0.4788826190775173 -1.111257525780641 -0.04816318996878802
Ni 4.950112352542757 4.3178087053923235 13.350754204742506 0.9003951848759976 0.408665020411851 -0.8687001677655619
Ni 1.4406825582811718 0.5635087054321373 0.17534088111485727 0.4936456363193047 0.058335759626415656 0.13193101651506312
Ni 6.86485299444885 5.826454214677138 5.927775810144819 -0.9663856328341939 -0.0019949189428417257 -0.2907668278407702
Ni 3.4894713130955584 4.336502932511504 4.159236852770897 0.7593071844520148 0.01626839814272037 2.0504360020724235
Ni 3.5236991322168025 7.8769627268346625 7.362651166197571 -2.6777018696837565 -1.6215916784992201 0.11464266174826063
Ni 4.336828292008854 1.750536351586252 2.464426216693665 -0.1863052203905695 0.3307729359200626 -0.15664831675608504
Ni 2.623234187350311 7.2561117339909575 5.301590780741698 -1.4923420654710622 -0.9839357259028152 0.26151718694703346
Ni 5.074799407913003 6.795988332838265 12.122480270310021 1.378224422988336 1.3157759267451274 5.632650935455293
Ni 1.7552773042619265 4.555172402687773 5.933912090264844 -0.987362492196177 0.8357399107894573 -0.7371810419769368
Ni 5.4032544684808785 8.099685246749353 8.208729947085562 3.193413741774481 0.19741161471637617 2.372816600163733
Ni 1.3388450356105506 1.6706466510083129 8.996808284778774 2.796545456887242 1.7668942312251827 -0.9571229765853453
Ni 3.12025335550252 0.39186855619999794 11.784054335546209 0.564759521546995 -0.09757927850807066 0.7856383661473759
Ni 1.0780926384484388 6.198823511401655 8.798818664254085 -1.3074640644453226 -0.42852447833993945 0.06234308101359586
Ni 1.66452059647249 8.252752946274176 9.308349299477257 2.4362824819278623 0.28176025346678574 1.1986367238272584
Ni 7.761869128643429 9.07887789398896 3.2860277377967164 2.3358058272673383 -0.1000609072793438 -1.7228237232685297
Ni 9.214822387967523 4.603223352453583 0.9799223821122365 -0.8821699201172226 0.820843196183283 1.0438102907712603
Ni 7.740757945258218 0.6684864120514703 11.684284240081606 0.37107703485574806 1.581114030100148 -0.10228388307259159
Ni 8.459068051536775 7.208386143722498 10.881879858920781 1.490004418476821 0.14150529046705954 -0.460497174591794
Ni 1.993431160336655 2.3843366524244964 11.18797900362644 -0.48144266649520956 -0.6427014854401124 0.8186212488312999
Ni 7.417685260375081 6.032416072485472 8.816016237685455 0.39851687623425563 -0.9743827921070575 -1.292273215637497
Ni 3.737107074521637 4.615085030128408 2.037740475882937 1.1236296741927487 -1.9022124190449237 -0.80259787681985
Ni 1.520609442801665 4.227330877172045 3.049126980586068 -1.3659227228028477 1.3254011085397175 0.6853077501464133
P 0.7079980694096821 0.6302882774639897 2.8661726872332154 0.2654563741004396 0.8874347680605879 0.513992832517089
Ni 3.624002817257059 0.6221951923670437 8.382827025321978 -1.7676077123524399 -0.5010640402705628 1.6309777476998102
P 7.971716708448687 3.264954667952624 1.6950281621411754 -1.773352842366333 -2.398395477074102 0.5332370254586817
Ni 5.814164921662939 3.8104988811382094 5.18507210795207 -3.2386702996194354 0.45146643184809343 0.4245079009813786
P 4.251249448220105 7.439019547415617 4.115861783781293 2.050413890585237 -0.16865511140897407 -0.03372747415943223
P 7.9434755040786875 3.643078179787421 8.49488362500509 2.956618997274792 2.3179687990859175 0.6426665184371191
P 6.8927502473502225 7.957029051139734 12.055104825598736 0.16293363554416454 0.6258679588225414 0.354647428544815
Ni 3.158524928376545 0.3000911491874456 5.605023836766212 -0.5632633966174428 -0.22877033153331566 -0.04467780252334887
Ni 8.977309954901857 5.84795582945917 6.724465948933609 1.5128057326420525 -0.5999648658035345 0.19362746508359555
Ni 2.9053487595098746 6.68691853334083 2.6593128372121964 -0.5925464618522763 -2.4949054337773937 -0.5866846037548605
Ni 2.0003380776661186 2.4981288126263292 1.6909462948472758 -0.5405402439883142 -1.2184843546808048 0.4749141213480724
Ni 7.837966067080829 1.212670622538132 4.945382555049849 -1.5502425373322721 -0.2467009478698074 1.91527336599394
Ni 6.679379488987943 7.18686593696919 3.8818046685774856 1.2018056084735431 1.0110526367242652 0.4819571442377828
Ni 7.494386437878988 4.6008993560439375 3.4278259139318927 3.1045013949127886 1.2395853983254779 0.4343526549859423
Ni 1.1886497956480466 8.334520435951108 7.083858049706672 0.1806235966247599 -0.09774100089691554 -0.5748436452558745
Ni 9.288009682900048 9.554692918899573 9.581563894986445 -3.7473453194680366 -0.6190547925554499 1.7510773187975843
Ni 5.086475165875057 0.6133128780893825 6.757649828867641 2.0695547251797453 2.333514974350633 -0.31241705912069423
Ni 3.148475967901242 4.588331183460581 11.944504906865191 -0.8095298280529929 0.48044842090274037 -0.794024276218226
Ni 6.800255190246372 3.46494850298099 10.462989731666566 -0.35554808598221344 0.14155722675091748 -0.8847505363602053
Ni -0.02881662588102778 2.874039879879144 4.679270092568534 0.8229443016866859 1.5258026591223528 -0.35237945844624474
Ni 2.290010286149846 2.164217008488609 4.400409115382472 0.1388202874357287 0.004005521614967295 -0.49528137215051476
Ni 2.091754800435894 4.1427559998322625 9.830778114773954 -0.4980327096434068 0.005061987903939669 3.2031273695178193
Ni 6.022711063478797 3.981452057031658 7.897107127713461 -2.599202747735588 0.6549185963315947 -0.2365959982253215
Ni 9.175016977463132 2.101487697399485 -0.03407908335102676 -1.3779611420246205 1.4147556851451506 0.4831660769442195
Ni 6.5737399081911425 5.797841170881597 10.843579468491278 -0.19989555748049445 -0.041433584554438324 -0.006612620220511193
Ni 8.982943322198835 1.9663147702289232 7.141246817046433 -2.0627626419585767 -0.11137890339532432 -0.0929968013437108
Ni 0.9048294101238039 8.150181040738108 1.689014589031579 0.06949434734639644 0.836708959570946 -1.107450236219409
Ni 4.596939266161904 5.667818219754806 6.5127898487532425 -0.8397891411581666 -0.4938448968143043 -0.18971064652769262
Ni 8.532701553779951 7.822571914863343 8.132796617995403 -0.6754791940917657 1.407676666811182 0.06624241606800205
Ni 4.28416653336631 8.18349785326677 10.299966961121386 -0.2953505905567107 1.1954403283771478 -1.0798774688074626
Ni 5.469683581854156 -0.03479208544950568 3.8725114717345988 -0.5413203166874484 0.2651414139631821 -0.4788515087292656
Ni 5.877293960134522 3.69975580422583 1.6927292648927548 0.3202049305962292 0.1593891127260158 -0.46703574704126016
P 0.21711053338467953 5.3551942227294305 4.570425255923552 -0.5823831481660293 -0.4078641217771105 0.08325694834812758
Ni 8.432453644653526 6.711013728116023 1.9467457908611527 -1.8131170096381484 -0.0334474810251682 0.3853142615010525
P 6.393639482429333 8.436367254607369 1.6420614951696857 1.155033899535643 -1.0663879189614602 0.2505393477792911
Ni 6.8728010621698346 8.819715110371046 9.910846298276153 0.6093419361430602 -1.7141868735291381 -0.9571556295954934
P 1.5114807849045813 1.2999134477561858 6.738534493599033 3.074169319588151 -0.5218136141130884 -0.28645328806708087
P 3.806780486882778 6.073569400907457 0.44230206708497494 1.4060224190372108 0.14640812708531561 0.11610690499861295
P 3.4386036796812602 0.646727298467251 0.6022497255809109 0.7511241344205902 1.4549913927367457 -0.14641661172574783
Ni 5.489019231982398 7.858249907744206 6.060444398784348 0.8724362377692266 -1.4412730147093888 -2.9216237121465296
