# total energy = -340867.5982241639 ev
CRYSTAL
PRIMVEC
9.23369799838397 0.00000000000000 0.00000000000000
0.00000000000000 9.23369799838397 0.00000000000000
0.00000000000000 0.00000000000000 13.51445037713394
PRIMCOORD
 96 1
Ni 0.5243964706674049 6.361713056267299 2.8376963073221853 -1.7263021687354332 1.7975142701038849 1.2999728982746
Ni 4.143649578483613 1.87835573657101 7.229568919554141 2.2187293592666046 0.34991891272089415 0.37644858358030653
Ni 0.0758760647422377 8.252561985930475 8.249652447760969 -0.2897918655220106 -1.5910505724875696 0.19360226827261498
Ni 9.25502761877895 7.214260372009795 5.338829870894511 0.3348627897187201 3.281838864587109 -1.1582722039672826
Ni 8.462896387590805 5.145773564514343 12.355207482696144 0.6836010518679517 0.5166068731011683 0.17790388370075166
Ni 7.861431781798162 3.24594024691423 5.989834188630076 -0.43017435523853653 -3.054037581835282 -0.33284987305374936
Ni 2.040028550947002 0.6776195282077428 9.364081283003419 0.464166138802949 0.4235702196584576 -1.6653878497485641
Ni 4.811956922483337 7.761707845807488 4.253997807136405 -2.4280984034551727 -1.1719134488998009 0.19208660295903693
Ni 9.089005732750032 0.6108912878530941 6.387550789386661 -1.3483438333788198 0.5626283341366053 -0.34994873751756506
Ni 5.19428741263425 5.744218751133934 2.973192511870403 0.09238950677701509 1.9887043293905815 -1.630501065173708
Ni 0.014411032120430113 3.96827395660668 3.349097271738361 -0.4400903288006679 -1.0552540138318278 -0.41184547502236163
Ni 4.679822707295695 6.995366332510265 7.768321943525092 -0.6304095554466369 -1.5490336046258353 0.19389074604731124
Ni 5.7323811505839295 9.435638747295394 10.505282301580253 0.9133098360551368 -0.026809663993676406 -0.11486917593676992
Ni 8.342442800090959 5.31332824437423 5.821795663006679 -0.6320550614698598 -0.6936697489578634 -0.39665025533916204
Ni 0.12676943677925612 7.4938105722058745 12.820077997274893 0.07825486714784587 -0.6454474236163659 -0.06250506051275687
Ni 3.2049795635758382 6.285516582212202 9.988759405007222 0.327860647369274 -0.09350767954185832 -1.2265542761731327
Ni 0.4645907335361088 9.239053321624889 3.4612266806923193 2.3262405521764067 -2.5017512530546333 0.038577603162881946
Ni 5.044535302088255 1.4442057344960544 1.9934620896882458 -1.1813686807754298 -2.3170228902328804 1.3710672431182647
Ni 1.9864454027475684 0.6086973612612993 5.694232128218609 0.36791303530546965 -0.09774202933818005 -0.2964512798200572
Ni 1.5487311933307242 5.2817859327682894 5.126301542642386 -0.4303648739827879 0.07824638250741364 0.392261382242847
Ni 2.6584462258580595 8.108405496237289 7.995337943589196 -0.48827023094000427 0.14729618611722375 0.34880613927268955
Ni 4.5528685965608995 7.057139770637821 0.7771043114259949 0.3333568945971549 -0.590680355177815 -0.14639038647350272
Ni 5.195340054180819 2.3667167782942293 9.463669483636771 0.27640901645720145 0.43465758782087077 -0.3038712264332121
Ni 3.538196015251344 1.3224963640985474 10.759732541109347 1.0100193103637443 1.0142348911069887 2.330260214858761
P 3.937627313685102 8.568880770674227 9.707402170156202 0.43944832434129477 -0.9667530434759415 -0.3663138091391498
P 8.68258452509915 1.4766714158796852 4.407994648550448 -1.414430440595248 1.9929841877128578 0.5100850128222506
P 7.808661199003097 3.7162863442746894 8.201974249289872 0.9607888554727065 -1.1106402039116163 -0.715879195175367
P 5.49212033442862 2.546293732659658 5.311503665693511 0.05317092759602455 -0.46140117446330214 0.5572300459391692
P 3.8418646340407236 8.936492746568739 5.934114362765065 2.31780990491055 0.11716722794232723 1.2944370560580352
P 8.491733225748108 3.6316133356603855 0.9922605500654298 -0.11867158040199562 0.6427979018086607 -0.2942956669296351
P 0.6489839846619762 6.158904118295155 7.092842786462039 0.6524431382079086 0.34807157509951026 1.8227511902938027
P 3.0366215520093602 8.27926583990131 13.180088793159449 0.18353228563112264 0.48067236398808827 -0.7721591007140185
Ni 7.660063300679216 0.047967213211514294 12.432834256536886 -0.10097981954918737 0.8509083909997796 -0.2714287896337906
Ni 4.190187415279261 3.699268639271837 11.725596719339912 0.1586946577621525 0.1826766224990467 -0.8933421346839583
Ni 6.506986823391491 4.088589038639873 1.651128284827815 0.1972645476155506 0.02022429746667485 1.2475864142530835
Ni 3.3057930759041882 3.167075234201605 5.511381827991263 1.620643712763654 1.771637402337123 -0.05676481559486998
Ni 5.989992084862061 6.846519124346407 9.753297341586576 -0.07235418539269475 0.035886429483964 0.3519457133429358
Ni 6.702002520439922 2.1504358752655666 3.51509515015306 0.5172727888199415 1.8083908078070725 0.5191334961777639
Ni 3.2500492424249567 5.920896324397412 12.285364716081343 -1.5458279532043442 -1.2006509260438096 1.7455666733920003
Ni 6.1730409095916094 6.470052032283834 6.077840562141846 0.283542285067873 0.5420525668677826 0.24351920770771607
Ni 9.428067115118324 1.2949153088389045 8.644936892523114 -2.7739760562271583 2.2314635190038214 -0.43919892733465
Ni 1.1072404015231219 2.723091343994236 5.239201041990938 -2.599430290365362 -0.17043585745848067 0.6695646283795437
Ni 6.005089180727316 4.58294275022031 4.623847108002262 -0.5346650161544598 -1.7337933349061558 1.2548562084416193
Ni 8.910056669833432 2.6328596493182297 12.616050211196196 -0.04782817522687247 0.20558283767325883 0.15411783702474746
Ni 4.344953423718121 3.5282236216522764 2.9467315041510997 -0.7856861886661759 -0.01635015922324926 0.6791263039260497
Ni 1.5511781232416064 4.041072429879872 11.547705838188548 0.5564810835882867 0.8353817561190904 -0.388702204136679
Ni 0.07050943959429512 1.817385630150045 1.9914491435728785 0.5342382130296864 0.17953422021532306 -0.11235309438313552
Ni 0.737406797943485 3.7875981922057984 7.396593585161633 -0.7194237179935158 -0.674781910914425 -0.25845371753036134
Ni 2.5609845458227287 9.297964313441602 1.9770833565715553 0.06107064205907547 -0.5737684099138247 -0.26544146170210414
Ni 2.6430721190594966 1.7889920094860337 3.622332546024809 -1.5179703075621276 0.4960426757965715 -1.6496251875976686
Ni 2.4564036848013977 3.2183684253523643 9.325484426295917 1.0351022214743013 -0.10583046277326935 -0.38148023246694296
Ni 0.5984451866195912 0.5516857410772974 13.385521948039793 1.1161585626266841 0.03768183082148994 -0.23764038032943585
Ni 2.041358203426878 6.926519881885592 0.8753508557723628 -0.17695051864854686 0.7630892772022664 0.6749310348977796
Ni 2.472414916746567 3.8045235602308822 13.557425699552606 1.3606776723538243 0.24166595654906117 -0.46719386988567935
Ni 2.785335700708415 5.7185767724074426 2.925203137784224 1.10172207548638 0.30781041358661826 -0.8846489777853345
Ni 7.069734534405533 6.289487072256276 1.481088816896161 1.1747416623772153 1.4216207876961002 1.3941099838703408
P 1.145144730897355 6.404834424885489 11.022588215724765 0.31962463261272694 -0.774967259586775 1.0406540045304657
P 7.675188097637802 8.276107915261607 6.678909042299859 -1.589163639877502 -0.73108084261647 -0.6324337849655173
P 5.542000769819511 8.270124479102167 2.203395748865058 0.6994881554118534 0.7791748699102194 0.7761031729634311
P 7.727293854192929 5.368979740875692 3.7581657805418844 -0.051247999541698834 2.112004923924156 -1.7914279547004888
P 5.465924333835514 1.939436647365298 12.195940046591039 -0.20972925574146462 -1.4410812104135569 -0.6836414181875838
P 6.031617594440391 5.517217524986273 11.72260961810908 -0.20622587057389644 2.1556393727846554 -0.5231868403115312
P 7.640884910396565 8.693018603587062 9.682562599766525 0.0006175789793408719 0.4928421665814028 0.6705287920650258
P 4.177371042764904 4.97266943229053 1.067552121738389 -0.7287498804904481 0.7506250832969846 0.5875302395846075
Ni 1.064682288469324 5.111858192579737 9.27039895546818 -0.30540026148322885 2.1824462085648544 -0.18610647411620204
Ni 7.597052547049553 5.948542015541493 7.932563572622622 0.3876971599109323 0.4166632081259792 1.3212528906992986
Ni 4.510596728138187 0.7600247406480366 4.141233119775395 -0.9244218868078983 1.1154407106240531 -0.3175885760193047
Ni 6.789621078645061 7.289865889407169 13.039551912994813 -0.3000783350496832 -0.9215149975737486 -1.4691725693331341
Ni 3.2378330602660994 1.1629657676067995 13.319572108407739 -1.3319900746111448 1.3440899431984723 -0.3839590330247387
Ni 4.7039041910978865 3.04096138996451 0.5865152490918181 -0.31679230537025443 -0.19812329607142007 -2.113998043094785
Ni 5.744708137116111 4.036317075524761 7.077193515469724 0.060205980065935014 -0.16128324442493516 0.025666551528168702
Ni 2.685611764717741 5.358924243996633 7.27220644240882 0.7379089212818969 -0.44478490606285975 1.513742385523709
Ni 7.023944627129814 1.8793529759309167 1.0871210974370034 0.9828854302614297 -0.6665235275603747 -1.9460163036037517
Ni 2.4358587072477635 7.398463408961458 5.802253465031618 0.03013127216774165 -1.153690241023555 -0.4830465206472197
Ni 6.981663525009324 7.5030904384716735 4.156503809158855 2.2156882584474356 -0.9567745921069909 -0.8730219350693674
Ni 6.609490102413018 3.7401831541213433 12.63990269929352 0.4895496118730602 -0.9890805033285482 0.19406532395196258
Ni 7.490966593290585 0.09854294604500687 2.731729468264539 -2.415981308476665 0.2842655363871427 0.5214994253067793
Ni 0.9634809608343435 4.9871478704047325 1.1452924700617857 -1.6083314710552041 -1.1067619519031326 -0.6264773102717662
Ni 8.326643943194657 6.716647165114107 10.385192521772817 -0.06496997711348167 0.003886736648915887 0.07716034853208646
Ni 5.2902070651408355 -0.001098810035452799 7.551779726849342 0.43874281363383794 -1.9575708412105703 0.6266470030804111
Ni 7.441538609090763 2.0046265536703127 10.832669519849194 -1.6226216624256316 -1.2948497181154217 -0.05417108672576477
Ni 6.865826786397934 1.5792854992745335 7.749131549435331 1.1594222584113256 0.9565923008928559 0.22085673311319384
Ni 9.075976985186806 3.3640392414809632 10.161298434927089 -0.2697249195688065 -0.20777881688331312 -0.9049218691017578
Ni 6.397133520939542 0.4302967799926492 5.11484067696168 2.7203569853501213 -0.3389066207707905 2.639860116245634
Ni 2.1338059855693436 8.452536178685108 10.996005323194806 -0.31512288808763145 -1.5012985033334016 2.254356621551911
Ni 5.205312447779885 9.31209187104028 0.05964691752953316 1.6859209367049093 -0.9199386542255641 -0.7516548101130796
Ni 6.72806924926415 4.2602342466149326 9.94245887424444 -0.6720244027739458 0.8656205003989738 0.6926695898281232
Ni 4.65891761552876 7.535242174130889 11.715204192491996 0.6207388651260922 0.8165085733636712 -0.17076033067743496
P 2.1717010812458 7.747275576182171 3.691499405962341 -0.3970726875885613 0.05464596947965428 -1.2628058023059994
P 2.138718312786662 3.8946629179291197 3.7289743683899474 1.150055215374129 -0.8161427053838202 -0.9907512061627518
P 1.094848779106503 1.6861563173445393 11.20368226663494 0.616893266127757 0.11689134857312128 -0.39813378186322407
P 2.266124874712525 2.3375290596214033 1.4579251626529939 -0.1033038396966737 -2.2015993844545374 0.7103551800333444
P 4.559710766613593 4.339348569167535 8.822314380078081 -1.427734871013638 0.8724298100113234 1.1745884246288028
P 8.709491520421077 8.614975389976582 1.3412730885279027 1.6762821280635647 -1.2568899510421967 -2.1199763721654072
P 4.1490051231942235 5.602915474053815 5.742303682215002 0.7862335765292137 0.5530455755441765 -0.2882769715393809
P 2.1647388731220065 2.0222259816331114 7.391377469287454 -3.2362084683425043 0.4615940072003986 0.4411719919006209
