# total energy = -381176.55246948637 ev
CRYSTAL
PRIMVEC
9.17317196101972 0.00000000000000 0.00000000000000

0.00000000000000 9.17317196101972 0.00000000000000

0.00000000000000 0.00000000000000 13.42586440338587

PRIMCOORD
 96 1
Ni 6.047817310248722 0.6670180342873219 0.9344104963806583 0.2129076534694462 -0.0773755498666861 1.2936356432026626
Ni 3.0087362285117245 7.085385630519985 8.155582006546078 -1.246483153886576 0.3169380869194993 1.8782911323426361
Ni 5.163697812453987 2.6795202558993294 4.794711552308892 0.005419628353674538 0.6156429386604236 1.0321395393015516
Ni 3.7388656866774848 0.47307424368414086 5.361283352371084 -0.8965297883833204 -0.03682925301320754 -1.1455825243147562
Ni 7.305844475006979 8.304564411539117 6.811303174032094 0.2112408072899846 -0.46246792516491964 -0.20628757704976733
Ni 5.284618566751309 5.988338462512124 12.522800807213267 -0.2955637350087813 -1.235772195226975 0.479589929557187
Ni 1.6266143919180733 4.044855187595083 1.8101824075868207 0.07492348878176774 0.32471721664428593 0.15464799849660463
Ni 6.958539007061985 7.652131720851608 2.971573873800049 -0.2157710910601703 0.3319150199443058 -0.8094182421757932
Ni 6.777836690349578 7.383009198504861 0.44397327259228647 -0.6132831801789954 -1.3920111923597833 0.2704252880699407
Ni 2.307548128243708 6.577256109749879 2.0524789055164026 -2.0827506550447294 1.2653663639443242 2.132444936946063
Ni 8.602591599095307 9.463227776377135 4.418747260166077 -0.6896919952570381 -1.4314210616159735 -0.6905638563390301
Ni 2.1632541314983826 4.570413735308364 11.236213888515602 1.8221400390723652 1.011055722048059 -2.6578447257485127
Ni 7.591790594939927 5.09544941221335 12.92479764438873 0.31250293396628115 1.1228606572372082 0.21569292952406724
Ni 2.6544866693056877 4.613591856267057 7.113774763458793 -0.4024833170811713 0.47488635343393054 0.4694225021058819
Ni 4.006713138105759 4.961732082870909 5.262119527602088 1.4128864931468958 0.2400865278770833 0.10005705062460188
Ni 9.136598638289989 2.1350741468828938 8.83358766634526 -0.527781144550433 0.05946961612054274 0.38235209354893507
Ni 8.757902575503133 4.516888276248671 5.469267182090533 -1.3686681467584687 0.20185139565528462 -0.38349983400013304
Ni 4.715652568777451 8.692461165917555 7.259257603305084 0.46223395477724266 -0.768834664326476 0.9924843868037746
Ni 3.4806225464121074 0.8727988861365402 0.6560249048722171 0.6578002887547639 -0.7079535125703872 -0.5661384041723927
Ni -0.09779060090931588 7.449725679008913 12.511147209408735 -0.034653071297495154 -0.5603130557398672 -0.5794142953456924
Ni 7.230541905440394 2.729037038762093 0.06550837374172858 1.143783266322488 -0.48444365810506246 0.6389440752802092
Ni 6.648008785967087 3.026743165295646 2.4961100187902785 -0.4327642274528998 -1.2811915039020385 -0.027349852767862576
Ni 3.736260505808085 4.322600491692664 3.0265789655154967 0.8068260559685846 -0.6136148524868013 -0.20985909645110953
Ni 3.8293498560287813 8.102195062384723 3.394769911641658 1.3071578460588131 0.32048312395828027 0.516166186019324
P 0.0535777461405226 8.116826271844912 2.5807600507016493 0.20914175866911078 0.42133413123908725 0.8436329403842889
Ni 5.721747735658173 2.426680113986336 9.021334979211538 0.10800150228265915 0.14729361501406246 0.5147839609598167
P 6.930175559004989 0.843885047755023 3.138403602382897 -0.20396355690228096 0.49463911058082555 -0.9356365245767951
Ni 1.9287603337360975 5.309193494741184 4.5618808506438695 -1.0118188254663283 0.06111049415807541 -0.4961540045634552
P 0.06454335603940128 5.379157278159911 3.4793392196387654 0.6127087957327642 -0.4622797204135135 -1.0111498244237618
P 4.575303036024528 6.290099131102983 2.6827969129646463 0.378547117980548 0.15090035852871433 0.24428256823630187
P 6.1811952322243755 4.547847732002992 5.541338043134971 0.3713323453996637 -0.32341700977562365 0.9744583825399992
Ni 8.672261841007623 1.165552417066609 6.724022276369511 -0.41548821398127156 -0.360599789473508 0.26302179651701796
Ni 6.017655920464956 -0.1721620935102519 4.835647750012369 0.17142187552083382 0.9273148920849772 0.4088537393838894
Ni 3.7951247510156336 2.3336274564539403 10.808814703229066 -0.9297690100524246 0.5699590634700636 -1.40606098558463
Ni 0.377510888954721 3.143719455600565 11.141910010312127 -1.209203443599511 -0.32613003783141253 0.37437576021167784
Ni 7.43594757455173 0.3476265289676314 8.812482032034284 -0.486392297191001 -0.5104807055987725 -0.36227074941802767
Ni 1.9377500423699447 0.9315447974243175 7.927422284101825 0.1537591681337481 0.8239609158766584 -1.5853967166359018
Ni 8.939265360604965 6.436842364792428 1.1786865648441014 -0.03768851568970928 1.1009666853775941 1.5053536472393818
Ni 6.453161437914484 5.563382092949255 9.892687256111795 -0.21690674732651033 -0.6042023009236497 -0.3681102389179402
Ni 1.3370907348757368 8.49228420488917 0.7392145677891914 0.22033762738493023 0.20682185228668254 -0.7159023351038187
Ni 5.754046474535496 6.785762311022684 5.535779100857306 -0.44063643111212497 0.1476808231501521 -1.5423808751960082
Ni 4.416460388367691 6.875613531500781 10.504289240574693 -0.1521504288857315 0.5113361116205322 -0.8464192448801746
Ni 0.6977637551322873 8.29751024221317 8.670517103678892 1.3008298469582564 0.9379906266312684 0.668191659291417
Ni 4.361164507097454 7.678770612558438 0.7656342206834196 -1.7719983852209678 -0.8315430990992906 2.67338344481406
Ni 2.1827929880188877 3.1106501702689124 8.960072866823491 0.20231959354095477 0.6887815676276267 0.23035310263940326
Ni 8.247498108058338 9.00951351235803 0.6794724500140306 0.783267037701722 1.6387581629761778 0.8125125648304007
Ni 7.281407144598235 5.845273670824896 7.069536223808188 0.633996758577263 0.6614088320416287 0.2991915615693557
Ni 8.262707227359275 6.89834465190351 4.822074207292467 0.7878592850580948 0.6667204740625292 0.8214103815406628
Ni 8.432126542418995 4.296548682998658 1.6763531655450599 -0.3883394214806215 -0.609111565299809 0.22395619797412397
Ni 9.42607642947195 1.8279471726279521 1.7583989339042376 -0.2774202313305351 -0.22848493908241294 -1.1681236428400656
Ni 1.5025655859430553 7.116721186329397 10.824804459473615 0.7990777794817335 -0.42634546841074955 -0.5395544830362772
Ni 5.220002742652512 8.466461725497046 12.445319609278785 -0.8822000020242097 0.9485678879264825 -1.5412177081258425
Ni 6.1999451959464 1.352079698046866 6.941387009915487 -0.27234024570446647 0.2962232229696511 -0.8262538256758931
Ni 5.333878500795962 1.6768008163423374 12.345444863673949 0.6895012194024706 0.190867128729639 0.26682574364414047
Ni 1.6875976398750294 7.813157583462381 4.115819764087233 -1.59521061740253 -0.42253946440109813 1.3052953389287778
Ni 0.9332968732907102 3.028678704603545 6.324508616874845 0.7838355086106823 -0.38076032358178297 0.8544523995972961
P 3.347996824546633 0.4819382798605559 11.961384329857426 -0.5165850187242974 0.2696662984167291 -1.4959642356046816
Ni 4.823969384643235 1.2663839245189048 3.100932111772282 -1.6984365526734169 -0.3310400735385202 -1.0283373919466416
P 4.336011669266832 4.208862331130344 11.767810218088881 -0.7442528612220537 -0.08567738486416213 0.23698989122963057
Ni 3.1488747783069146 7.2393848433210355 5.986767098135616 0.6354322054722089 -0.4409732456262535 -2.0187309576596584
P 7.62408933381725 3.717721525043793 9.51511123763534 -0.08869431731361499 -0.49151856267397287 0.37467555084028376
P 0.32931871213963904 3.283316788243309 13.36813338152178 -1.5651652200803752 -3.5460307701528286 0.9757105097795453
P 7.2868835283272215 0.13041590471252143 12.186791183361862 -0.4243703469622498 0.3499752198801263 0.5020456874575417
Ni 2.549242866085146 3.05222623732098 -0.3691321135810923 0.8526307730075251 -0.51673825647271 0.14830534410802845
Ni 7.100062705840553 5.060554665638701 3.726899283705185 -0.7132232456097587 0.10379517751079544 -0.9696828155282268
Ni 5.203555245121402 0.16807452803347395 10.278667734843692 1.115582121297924 0.162624588944178 -1.1023774496821919
Ni 3.0234958623809702 9.049205827928088 9.633030530029606 0.612898543146067 -1.5348300594319437 0.5080268447416413
Ni 9.121499597053957 4.462362941432764 8.090480004327288 1.8998164080089217 1.2666010076823735 1.4600988891666402
Ni 8.769625889415435 5.357370994480945 10.733629550265043 0.06803961717774089 0.33072228518778524 -0.15618628951800195
Ni 1.10256024442515 8.28897919218309 6.513799774601406 -0.4759687878648319 0.8865644496404924 -1.6164659272368807
Ni 4.367934308089065 4.588393152576058 9.281004547734634 -1.4742728666741773 -0.9641487730838749 1.6568363606341272
Ni 1.3421818453775585 1.1287863433885883 5.145717477869084 1.2563415347378946 -0.47394867211100955 -0.0831222225424762
Ni 6.458903843633655 3.684358698205729 11.524077201412297 -0.9409463668254827 0.9020180651914013 -1.0931798423433239
Ni 3.583618922474187 5.319944452413498 0.915369743103845 0.8225653210807123 -1.5634983739009138 -3.58406381366615
Ni 8.83870904831493 8.959822439225835 10.669856740679974 0.20151380981020778 0.08652404913517357 0.33062458326765637
Ni 8.217795376878339 7.054352789389062 9.128836300079826 -1.351267434783518 -0.7041809329018325 -0.029826339332813152
Ni 1.5274982676438686 1.3081218574617675 10.435964703005832 0.28523535649957976 -0.3014122233697583 0.3512695132115176
Ni 5.919915772002056 5.172247208828217 1.4875050720297385 1.4040472975887108 0.44891435485020115 -0.0066218761918918215
Ni 4.852763971787773 3.679258414531832 7.10767919061472 0.002598356854795525 -1.9076647004087468 0.14280601155635406
Ni 7.475502292540659 2.4498515466486808 4.6980859442531475 0.5729857661115293 -0.09988093005805379 0.824690080733199
Ni 7.338730296897125 3.517361100573902 7.205930284762219 -0.9763838816974862 -2.089329850924144 -0.560538284376796
Ni 0.7593450939085566 6.066484715422068 6.604263762974137 0.6519782827563481 0.8920133885702055 0.5804455648236841
Ni 6.84984609114111 7.284232481597444 11.449765334429852 1.6805956678372542 -0.18712771629186484 -1.6166227645297189
Ni 4.8861267986258365 5.922154025988442 7.551632282228441 0.16626269991739753 1.4217094907551644 -0.4631161002718798
Ni 7.374771689981193 1.7329039367552048 10.708899595667097 0.4283151905426107 -0.10437367572208475 0.3836193902971329
Ni 2.85642487937254 2.818328695743593 4.5526168641649685 -0.9804292554114533 -0.30905688439920964 0.07391433079096303
Ni 0.9258299112213717 5.102659525464578 13.00319157294471 0.5579615247885552 3.4079249922856216 -0.14450216831185436
Ni 1.9824967757535237 0.2927324326342954 2.5762752868740084 0.7623138324888226 1.6377225226228118 1.5369285938321853
P 6.050303239881143 7.414941010499168 8.691972235845938 0.09493618445826875 0.9308933534648549 0.2225109808871652
Ni 0.8262413685852863 1.1727717034899128 12.727961552630191 -0.12381764337930934 0.02943604587292995 -0.08565270227381376
P 3.759798865353444 1.7381693375264584 7.034307573769998 0.5665731777169662 0.6668310314984645 0.5711474273512099
Ni 0.3676460597048849 3.0036451180099033 3.679949154389106 0.5726844328210265 0.5336705134516745 1.2529811029060935
P 2.345470021603223 6.93356963267287 13.247676789731472 0.3008260118489851 -0.9960970438556974 -1.0591826594622726
P 2.802651744666812 2.2720112596237847 2.023170620735645 0.12494250101237193 1.0839572953037913 1.2705993302084893
P 1.7771461456746391 5.569225403561256 8.970666045936111 -0.42692705194583247 -0.9233769904831517 0.9604507554069974
Ni 4.8644139003234725 3.242294362722324 0.8291125714448724 -0.6741463342129551 -1.1804451405198961 -0.47054170331198963
