# total energy = -340860.6430313193 ev
CRYSTAL
PRIMVEC
9.30830339553614 0.00000000000000 0.00000000000000
0.00000000000000 9.30830339553614 0.00000000000000
0.00000000000000 0.00000000000000 13.62364291709166
PRIMCOORD
 96 1
Ni 4.437826679618741 6.616770165073126 9.338884796106973 -0.19653358298679702 1.5208219180783098 -0.4576818166301859
Ni 5.324172627810653 4.473160998932091 3.7087510314327736 1.8653374003954457 1.2248637758445873 0.20067460173836407
Ni 0.1822658868479205 5.904591879861217 11.994827629836637 -0.10536252199791532 -1.3120509124850563 -0.3466304717776095
Ni 2.3546097852651178 6.165019589489485 12.815460680076885 -0.45103705762015867 -0.3835268305833266 0.3231532145912757
Ni 2.0265293272782015 1.216660398969978 13.043003084989099 -1.330767257947637 -0.49334250325658896 2.881987071591514
Ni 7.170716602548566 4.495919800491928 13.55176422577255 0.06602824317466693 1.4637819944451822 0.5239404306481041
Ni 1.2643375284544298 4.138964985679403 5.6456916628038964 0.7805074726787138 -0.3163431336479777 1.384107107021358
Ni 7.5110095544604345 1.2610423890874842 6.912309725565959 -1.8887940887564891 1.0815656551431632 -0.01801109186543995
Ni 5.583399566313679 0.013699029961395465 4.22364262076727 0.11306400440723109 -1.7670711231226794 -1.63467962203143
Ni 6.724597550459282 1.271802787698188 12.141567446323302 -0.8686006660732202 -0.5521204926267459 0.3788528221464249
Ni 3.915007208366652 5.274149805895494 11.196836096534694 2.2576862001457765 1.1319937298867278 -0.12490213469273972
Ni 5.202531720332556 7.030077448042401 0.027808556098164672 0.2645911978866669 0.5678502446571768 0.816863899820561
Ni 2.457019738132735 1.2741857133420813 8.068656973326545 0.5359551957207931 -1.2337243115590106 1.5643051860729253
Ni 4.409520129294216 6.984271287520537 2.5728113078193395 -2.2919096401050205 0.6955713368559505 -0.6343451430556172
Ni 4.988738610219537 2.294366446330449 0.44833628993450075 0.252380771863404 -0.6312081400885323 -0.11216334696983264
Ni 7.485681661190775 7.161817864597154 4.680280055581552 -2.1924567987233208 0.9550321554945875 0.10402014903740794
Ni 3.538923830279908 3.902468923826325 2.2923009338289657 -0.5396946081585674 -0.6646067701536361 -2.4707951709927514
Ni 0.04448624311442631 7.651872108245715 3.6700052189612724 1.8983760760179693 0.11773415618939079 -1.2616462347802595
Ni 7.010204220504465 7.815623779836983 12.252082138871144 -1.036885024406337 2.056884328800929 0.8581468177297479
Ni 6.344111344913314 7.497121565942121 8.05689965543279 -1.5357610558866455 0.331141632113391 0.7970484077565305
Ni 2.215171401884195 1.1839603294895253 5.870741304093322 1.0905316060871995 1.952461287898147 -2.339789751615751
Ni 1.850341762482867 8.098437958893228 8.912151216462888 0.24923399870430624 1.5043971968633834 0.05959482884449737
Ni 3.997813874491932 0.28887016118092157 9.963215038128242 -0.5371759555017716 -0.758249689721778 -0.2532027535440672
Ni 2.3239668508131817 5.747625961373067 8.481208422068146 -0.33411408447815366 -1.3116968715797475 -0.16080167680282628
P 8.751545751385823 0.17683914602608616 12.63564287699593 -0.7629848904139183 -0.06953548499697701 -0.47300507725081764
P 7.363072690169846 5.885230609004587 9.777443644258874 1.0565351945370967 0.9171515783987301 1.7012737650118956
P 3.8130626706638573 1.5526063732424003 4.294172565674853 -1.4299223655832598 0.5030846702450175 -2.9941691876144243
P 4.235557248986734 7.175231129647348 4.642896978712651 0.3603992434269277 -1.4212160960585136 1.3861786448384061
P 7.42555933019896 8.945791424576283 2.9427884389436074 0.2918338356527038 -0.9640855239461074 0.6250526620100978
P 5.7368283295491755 8.462243684931947 10.393531383711132 0.5152241338210288 -0.24615098890360837 -0.1736584781608364
P 1.9154905772547683 2.305322319310379 1.4136846006944308 -0.5826114621267514 0.9148836083001599 0.19262473485069406
P 1.145377412325712 5.639742726167131 4.069191805829822 -1.2935441119301205 0.2743037971887405 0.8576961033455743
Ni 4.074495677048143 3.2873855502997564 5.719573527728534 -1.384608729248125 0.7516342412877893 -2.9679313369638174
Ni 5.867414516495168 1.9766088966993038 9.754596413817723 0.6944634485037523 1.1730863861619798 3.404626781150324
Ni 1.3646624213836411 8.320338601177463 11.862746529381235 0.72994518635013 1.1060333012672243 -0.22297480789746119
Ni 0.3842179043375174 4.63478106906847 0.34653603093280105 0.5377251431370224 -0.44441723831079594 -1.2650236358929248
Ni 7.36361257176104 9.198483934165196 0.7819496034008309 -1.188646702494082 -0.41864064356732417 -0.598056335926912
Ni 8.310155317371139 2.4408139820936037 0.11175269688627132 0.29548788746552335 -0.8181741339915523 -1.8612845704823104
Ni 6.806492002861508 2.0122596983247334 2.000372995015158 0.4859107295688922 -1.834546640266834 -1.791756798794817
Ni 8.127768422580365 2.3798725204117015 8.892383172752204 0.9998750228408909 0.4458087193416838 0.32449301644862183
Ni 2.9480792785373136 8.190161979576514 0.3417078140129289 -0.1609826824653808 0.47607317465318005 1.1878871986202382
Ni 3.4925033217404784 8.67216454087364 7.072291534322162 2.0008713037704187 -0.6067489786049034 0.4238664107426377
Ni 2.5321284374318456 6.790816820110275 6.068324934845892 -0.5575126101765948 -0.8173197564110569 -0.7309564012234636
Ni 6.259042761086995 2.362019194689097 4.045377442676167 -0.0453984827394573 -0.6816130749036455 1.5070570030837334
Ni 8.43457009923158 5.546948250604754 2.1662953629351596 0.2894553081181983 0.25743581778880825 0.29011351052748746
Ni 4.453455320853492 5.26948634594397 6.943943063488637 0.06337332205032312 0.6163222241156353 0.9762496701124672
Ni 8.743345136181645 1.7584595006435422 11.140079648014877 0.6935478786680185 -0.3544065161786025 -0.9360617850396716
Ni 0.2693981215150636 2.056045957031266 6.78024165673517 0.639299401737099 1.5978403417158935 0.34390458820601416
Ni 5.685204479467026 4.669352107511511 9.514397508913314 -0.7210311716899518 -1.1378087939066084 -0.35310193843456605
Ni 8.486780372421407 4.692697332179024 4.660198322049776 -0.903313129853741 -0.3741615873183427 -0.8600031542121963
Ni 3.204094852403061 4.95032324251506 4.213901481367528 -1.2595271315547276 1.7305365185317554 1.3410023054120839
Ni 4.286678450690875 0.5054566931132078 12.551680119601233 0.5986219786223949 0.3657862187704539 0.05274746690536077
Ni 9.15822552240802 1.1169219291484436 1.996844217235471 1.2578713411188593 -2.5612926029533756 -0.09820765612068892
Ni 8.694402077448876 7.601839978027259 10.88666667575082 -0.19036756338540117 0.6427300246852028 -1.4301751050240143
Ni 7.384044297496763 5.359274239541592 7.708298111998506 -0.18342352796740022 -1.242970769857943 -1.4689650813080184
Ni 5.184268829264908 0.8092238628897789 8.134336361386344 0.477878603293035 -1.5391981065926525 -1.497580688162182
P 6.283058183591853 8.974554081762335 6.2371077443688945 -0.00796939135872176 -0.941780946911636 0.8109526765424485
P 6.326732742658829 3.1298518253105216 8.036150516554658 -0.21444645871147583 -0.015705069440082632 -0.45199839309216344
P 6.573905428392942 4.037886120183178 1.9615592319295925 -0.002552848328840765 1.3058326994894864 -0.08444068424358361
P 2.0089924838676767 6.617635837279696 10.533623209983466 0.1792711963619235 -0.9294368235239865 0.06457891232265006
P 4.972160522048546 9.146962475419308 1.0309104141981937 1.4264809440018789 -0.7202454425638629 -1.444892356629531
P 1.6398065585236075 8.566226741056665 2.355473595811029 0.1836094187259612 -0.21768039226774125 -0.5142612556871273
P 8.221540269988871 6.612907219205097 0.06754197954942014 -0.29822148434660256 -0.880506930592503 0.675565840268301
P 3.6447685470639186 5.807180485863796 0.8365939979026804 -0.8993695718249608 -1.117259766110663 0.9699661510966006
Ni 3.796419424369793 7.714991712898988 11.583229351352593 0.611336855085902 -0.2434009369622969 -0.4896144036727245
Ni 1.4188460548723163 6.038473206174155 2.0456718530073648 1.8238122845684654 1.1350957658508192 -1.0418485390591994
Ni 3.7157536680026984 1.1174897356495275 2.0943766191757454 -1.2689720790177115 0.21857873571229453 1.5093537695377102
Ni 6.1097375762118284 5.8478298463594225 11.697682387025166 0.25038405314834944 -0.1326928343817521 -0.6997858891579303
Ni 3.758813879052107 3.082072304489809 9.028442642036513 1.0476810865805763 0.20176706347159445 1.378818090708277
Ni 7.224416204265825 3.7552301822829715 11.263741388138635 0.41603791583715444 -0.4883447929316816 -0.1644277035911878
Ni 6.502482817199229 6.5416056159542375 2.325432908582374 0.6438266001834912 0.4921893634887523 -0.1485755670502796
Ni 8.221707819448206 8.38179201954067 7.176566871170389 0.5689954140052137 -0.7954666650917075 0.16215896216166914
Ni 1.3190796601408923 2.948460918972468 9.027257695026874 -0.551892692886656 -0.5172105681234382 -0.8008186734322401
Ni 1.386257685031421 2.2303625528640123 3.8291976835979353 0.6654210385248153 0.14916769210832376 -0.6271871918545973
Ni 7.896028903711776 9.16179991087386 9.286365487247703 -0.46591037518756534 0.8709694234157128 0.827960781064671
Ni 9.025656666859884 3.3319443981798953 2.1219366435758946 0.5846079237314901 0.2691137683473688 1.6572793617088166
Ni 4.806379640338651 4.404409870784461 13.189075496129407 2.4635518591667767 2.124104792511484 1.085206337219544
Ni 2.8952918905431066 8.71800793460869 4.187540366431962 -0.8234916895497237 0.99906152580066 -0.2784967522241656
Ni 9.103995347402863 6.48059899614926 6.216072840579561 1.6938209082782762 -0.822640654403338 0.12546957716043552
Ni 9.21323759489008 0.03231098240266082 5.475014613560066 -0.4581006493351595 1.6465840867784995 -2.901409441982184
Ni 0.3640170245235469 8.264665639161354 0.5113032384137124 0.9314479404167442 -0.6399444915202656 0.7757321627772575
Ni 9.199005199149799 6.773475451068976 8.794197327920518 -0.2624242721423351 -0.35930549614211665 -1.0026898665818667
Ni 9.284520581534347 4.486834896474586 9.852059934313603 -1.7443520842586087 1.069654248417558 0.7720017492005479
Ni 4.7303587273164895 1.2187733838182737 5.990642489685311 1.7897657365067174 -0.9618077836555243 2.462236997010095
Ni 2.227030180283881 4.154956650742716 10.843262057479441 -3.178993452584093 -1.1314885081155353 0.36074659946401744
Ni 2.565871036881501 1.6370606090511528 11.026444812202064 0.7924952411682094 1.8556834222454495 -0.8472687373646633
Ni 2.7430545901295558 3.6515263752571463 13.345952054905913 -2.387010889386244 -0.8475962959074113 0.3381329758295596
Ni 6.230717594155877 3.534046279352565 5.962074376038156 1.8008371638295306 1.433887777988911 1.0864767192915352
P 0.21317224628314596 4.665954576808304 7.643068314987926 0.4625360593986937 -0.19125922196173514 -0.30056581620906303
P 1.1008464893554626 0.6679377813045094 9.955830761123163 -1.1228426595150791 -0.6381046100980495 -1.543008481477678
P 6.108099314831652 5.8077948338813625 5.518570026344847 -0.16168407940777962 -1.1926187997679525 0.4746187015948407
P 0.48559928969087657 3.241020891580105 12.172656248503138 1.2829025730558743 1.9778239350326516 0.43406700542472343
P 4.376838676420356 3.078144200498704 11.66141630655184 -0.043487638869989624 -1.759368355161783 -1.2742464400427733
P 1.4773021995740647 8.744285274814587 6.5691842569609795 -0.42859389812529414 -2.642233244463501 1.6277985786408806
P 8.541317721435346 2.036721919387822 3.9192499330091772 -0.6754228869325336 0.552502558556513 1.1083732622543105
P 2.8027580474730303 3.4811192668089115 7.237219775450101 -2.0121281076311606 0.46349970886354375 0.9381348655186166
