# total energy = -381164.4854965478 ev
CRYSTAL
PRIMVEC
9.29155801789032 0.00000000000000 0.00000000000000
0.00000000000000 9.29155801789032 0.00000000000000
0.00000000000000 0.00000000000000 13.59913436426960
PRIMCOORD
 96 1
Ni 0.9840317429116091 9.058860234001196 0.013902029098864555 0.25559156549121786 1.2524733100317398 -0.14109108574777637
Ni 1.7056977622136482 3.990473294463746 1.954644617741023 -0.7371843844110464 0.6057879002432148 -0.7283840125105973
Ni 8.165644179107435 8.066847042756528 4.43569780892251 -0.5220460418388687 -0.5224833864866034 0.15571783452201568
Ni 4.6483620595654065 8.34446950462324 1.0020267033151453 0.2438961314311606 0.8702747113415334 0.2882900841655035
Ni 8.136868223941558 9.127785011340707 12.3364684729127 -0.5542349678665873 -1.922367296726244 -0.26172004698645895
Ni 3.184189056338448 4.690090446601231 0.09302150389010333 0.8439831246348563 1.8178753502587404 0.7867663091042322
Ni 0.9524590287838576 0.2327665364037532 11.20008398241977 1.3527568748448509 -0.8367938059752685 -1.0641451456738706
Ni 5.433656668139618 0.8551494708708121 12.22510543350518 0.9866263853611008 -0.6449661131045732 0.6325695392124332
Ni 4.654113533975377 4.440825819789816 2.3325917480959584 -1.3959951167081956 -1.334056213111554 0.9558155706278313
Ni 4.8203766730577735 6.252447343350247 6.746911540342444 0.6626059376735234 2.519969061614241 -0.7879032509221527
Ni 5.5159798721336974 2.5666999854767707 10.2249581978635 -0.42502212161363573 -1.200097624643501 0.5796595785872791
Ni 6.610646196304616 7.778892368379498 2.245040184408035 1.288870360603535 -1.9334605784259282 -0.5981964610492021
Ni 7.3910069875739905 5.352058205670544 13.119329622443338 -0.8336310919765708 -1.295284234549679 -1.4209751836923012
Ni 1.6882203415914292 1.0516557021293182 8.726809683606662 0.4190749028912653 -2.030123515767317 0.6627383494863296
Ni 4.961199526300916 2.5783051414348526 8.068080961660637 -2.6848328243015827 2.0949574815235663 0.07104446544233571
Ni -0.04200620462040954 1.9492852470791966 12.158061267507474 1.2308151083320158 0.5346128227602858 3.519084837691604
Ni 7.428897961150498 0.4801198897319198 0.8724169022819404 -0.2909347208772022 0.37719985992403426 -0.30310195236735543
Ni 8.170921784058747 1.158973197178032 3.293465211816276 0.36670127438555555 0.19441705086442646 -0.4881087656614755
Ni -0.02797966864417246 8.326546089216402 1.9986373574645855 0.21982237831140852 0.8124799118202524 2.033287001096963
Ni 0.32934113207798016 5.418845924667094 4.854034412803615 -0.5720542554361955 0.17127763663348566 0.6600494898002568
Ni 6.539017575583358 2.6916714407499485 4.275921106488902 -1.5029694632779214 0.052621482850457764 0.02917456468142717
Ni 8.514783762999249 2.7417901046714 5.195059679082786 1.1884672394934241 0.43934676576642406 1.900138310124715
Ni 8.528888348062795 3.948633408731767 11.34348710132309 -0.9749373790589467 1.6949138842321394 -0.4097813934044814
Ni 7.364516755679282 3.58226727628408 8.929572850031038 0.3913388704285776 -0.23964738345713568 -0.2465294552889496
P 3.6369759698638915 8.357245396890944 7.97033005474198 0.5794721451668213 0.298088558313164 0.20387973893922307
Ni 5.049367120285094 4.877538337952985 4.9035082425989724 -0.9037679580029725 -0.7213039657353643 -0.9005620494711652
P 2.5064999811113493 2.1791212260856887 10.738433851705842 -0.26684168448374046 -1.2410781808209206 0.7053764958718303
Ni 6.678093615920081 7.693400743103029 8.892963182304507 1.9519432106111478 0.06300154053320117 -0.9939967096832428
P 2.79077519851528 5.881175268271762 11.056844394937476 0.573727015152928 0.17697545834921133 1.414234779644674
P 2.681664432770081 8.39041625899691 2.355750956443051 -0.2798537804726922 0.4433306901148365 0.9842630273352467
P 6.4575120286944125 9.190177823397168 10.42992439269273 -1.0969647633070525 -2.365230303176043 0.058480512734396056
Ni 1.9968673156631327 7.521590543886945 10.142941615283847 0.8933506193243906 1.1752453414865114 0.6349724922269709
Ni 5.63954830214693 5.535482852402723 9.046620464630836 1.504166826020132 -3.2526930962610887 -0.4136251926306038
Ni 8.524381942426551 3.9257018435559896 1.1790411041742408 1.1071609871137642 -0.41937623618176806 -1.7295445869321309
Ni 6.395555919864558 3.06370542358549 2.023401217880502 1.0562426029973422 0.025386558393904666 -0.3293979099494069
Ni 4.27698777734878 -0.04204801663146748 5.758566656201259 0.36029639930047624 2.21056559250889 1.1348340275490005
Ni 3.965079466414557 4.126334455728014 10.936750078465257 -1.6206208299455187 -0.32748192387361663 -2.820970936919458
Ni 2.3393262693436907 1.3473967021211373 2.4263036147464185 -0.32373119858193283 -1.852366184946758 -1.7511737351661325
Ni 2.7581618298900867 5.565791914640723 5.128859186552649 -0.6805404106647569 1.5653891631657235 -0.5620912306862125
Ni 1.4576503295019196 7.811106200010139 8.030234587562592 -0.5885622803935476 0.026794237374708697 -0.6222707283895863
Ni 8.91288985761892 0.3520896535609036 6.402526446685817 -0.7245355852987844 -0.8542767932513803 -0.8863381925622994
Ni 4.8253662397106885 7.221324555142855 9.929040658269438 -2.9617851148567635 2.8892103288128306 1.02285914244089
Ni 3.987853075104115 1.5862826586321706 3.8573540719690778 0.49554979532055304 -0.04835319449240705 -0.4590622419174804
Ni 5.875265837375572 4.298414110126471 6.996101834689757 2.3295989271256783 -0.5717539505869572 -0.14028581623766162
Ni 7.154313838753996 5.961891032729612 5.7564593308439385 -0.7336295771802527 0.14775512803151328 -1.077464488490596
Ni 7.457135005951627 1.525413662089822 10.91518158484997 1.1800821007535225 2.4080885359921496 -0.5654861153003744
Ni 3.6009990572380373 7.751073443688949 12.64159208818592 -0.4945725190089482 0.2862260025476232 -1.9493746785530233
Ni 0.17702462157290952 2.299084531589926 7.411174314240937 -0.21133979476169407 1.6081810615202692 0.36692341769869063
Ni 8.356706486526196 7.31013326662992 7.0462149236764 0.6163898441287771 0.7553417720463637 0.8286328674310309
Ni 8.692326853509277 6.820180121052974 0.4335543175945922 0.07639878777571359 0.8118741599154534 0.8114848948968346
Ni 0.965207046377523 7.008445669509862 12.265956697464588 0.14576689395689088 -0.04471199819539397 -1.0335865561607231
Ni 9.077526974049064 7.884936919980447 9.654869081048707 -0.8667286458614879 0.9473849233619747 0.7801963691961983
Ni 4.733816518609824 3.1675107097053363 12.716862999648226 -0.19602193345770114 -1.1440246929093327 2.0723384585724696
Ni 8.496897513824464 5.843432959623461 8.918435059441004 -0.8262134593562609 -1.1920678123604889 -0.3069832896996326
Ni 0.30206762184278624 2.508321126481873 9.92337002041418 -0.21673654029723316 -0.13758281548420176 -0.37391244742201407
Ni 3.248031351444917 7.785247794060305 4.606353067477594 -1.9631807311981802 -0.0003365574038123236 -1.0327599464943698
P 2.9109893760858654 4.122209003970297 3.625447933837317 0.4106938779164217 -0.8497974173237882 0.696740160353071
Ni 3.798927826028314 -0.069194232521885 10.511192075696545 0.21238443397612458 0.619212915399869 -1.301838233618113
P 8.183799883464593 4.541471976185285 6.85256305903945 1.4505675526374373 -1.2356153579341367 1.130980201020549
Ni 2.359173037259193 3.269169645924209 8.968370679669603 1.312801674608152 1.0043207173170703 -1.8744738154790748
P 6.499426246890494 0.46840044761027977 4.958298701889297 0.26300714122899865 0.19612349203257193 -0.06924315056753882
P 2.7094740659026177 2.165035224138169 7.007811056097582 0.783802855600534 0.4339371647150784 0.47880857130647214
P 8.39220023813538 6.26903277440323 2.7594951684649343 1.5484941871825977 2.1662107205425984 -0.3298951613007996
Ni 4.128211350446614 6.641605667603518 2.761168578063053 0.45338833146115465 0.3148315820994578 -0.19927669294957293
Ni 5.415723961174768 0.6093022790965327 8.654244473837705 -0.12424753182787635 -2.587779850610627 -0.012174687689320968
Ni 5.641443779981556 7.610659418998371 4.786772824348408 -0.19443247748339418 -0.9159048504758226 -2.7331155705673704
Ni 1.5055668941743197 6.338542919897552 2.8366708493198796 -0.3888826955786012 0.22762799039875636 1.1857958633088481
Ni 3.5076281907666496 4.322209790197445 6.8212709499636865 1.0254155903141566 -0.4579692659636177 2.181717557928946
Ni 8.322132599160286 4.2668785622307706 3.340790833399057 0.12625119252146644 -1.633944286527302 0.6947912641568164
Ni 4.69060148229194 2.550495508302316 5.693195899801672 -1.1358480706358116 0.286687515565074 0.8605358867872148
Ni 0.7664764161307347 0.1509190601799341 4.177177861174469 1.819210524130396 -0.3666164279812331 0.34540996910694705
Ni 3.179310988381688 0.916239606493867 12.396861741684788 -1.5211672172328705 0.6008902058312814 0.9576454247477184
Ni 6.147471320920777 8.417343194118223 6.74201581842546 1.7392510155866174 0.47027302303163526 1.6114013682297796
Ni 3.336598482423647 6.180632891468731 8.3576467921971 -1.245001427134727 -0.3081634260506629 1.5783454662160754
Ni 6.608917966514221 1.835203497797109 6.764454001870753 1.879752547379511 -1.034004360424432 -0.28152885418226997
Ni 6.010402257114836 0.4977524793729539 2.7803835200336797 -2.067476759604794 1.7689721968001344 0.37747239685913053
Ni 0.9072286535329801 2.484813484709298 3.6097953752088263 -0.3845118202044152 1.1852765004702686 0.6356713180662085
Ni 1.6887685435141888 3.632162942813222 5.844798818651354 -2.1515649456049655 -1.5291286381717923 -1.643233682249028
Ni 2.0606166951894727 0.21206401599526495 6.537307928908988 0.01761694175081482 0.04714606155818332 -1.152704480071518
Ni 4.92589160585199 5.990778486591642 11.832117129039002 0.4623260002704167 -0.48756677711507646 1.685429598890788
Ni 1.847468354374105 3.8643311028809464 12.027931139225547 -1.6636880934486378 0.11309999985148908 -0.7396665274029519
Ni 7.9419870861795046 0.5633397290742407 8.611910277219442 0.3592623016090071 0.4448702666878145 0.007450799851090394
Ni 5.405224500620219 5.8010355804107085 0.7247954160407757 -0.814538594121494 0.22282439836252593 0.3936176391604253
Ni 1.0710378921441768 7.45436612166379 5.832736518039038 0.11293853457296033 0.09220850111446055 -1.4925901769261263
Ni 1.2820398830585698 5.065014103978777 9.815746833106843 -0.8708902334383453 0.4250684014705389 0.34539017161260516
Ni 7.002526947055659 3.036843529370266 13.123831382300576 0.5813966158830439 -1.2746202784424243 -0.16077802265374247
Ni 2.288640820383454 7.053862805076798 0.7249784597336294 -0.033579378617342164 -0.01473884887207139 0.2488287928460876
Ni 6.494613219839826 5.675748212165094 3.399335082126584 -1.086809934261238 0.15343855156953573 -0.8110429222634097
P 6.336043490792089 7.3022354423189775 -0.3986923919302827 0.4354908823554435 1.6292985602251744 -0.2625677396987349
Ni 2.4076656785283914 2.553924093209067 0.3032076960109661 -0.29296949191904387 -1.3316620018477645 0.0426718278369136
P 5.27750274417523 1.748541136211018 0.8619360248434166 -0.05908729308045952 -1.2131143486181428 -1.1051118178942194
Ni 6.990838167075462 6.797109182507005 11.069681611488065 1.0964788248095698 0.3424161765859458 0.06104030304177229
P 6.243332324939615 4.28138268428887 11.227635310239549 1.2323698544136454 0.5582561732108385 0.15091167138262396
P 0.991585779576077 5.3613033058933555 13.756884741989623 0.019689508009127377 -1.477255860561901 0.070017309729402
P 9.249160633662903 1.6540645743360984 1.1811121924553107 0.7903622539856066 0.1471457765822885 -0.004133048331767076
Ni 1.2493707650852992 5.385154735312407 7.413581756922074 -0.9694830408125948 0.12261565265140818 -0.46128778881388943
