# total energy = -381164.7584668647 ev
CRYSTAL
PRIMVEC
9.34129647105882 0.00000000000000 0.00000000000000
0.00000000000000 9.34129647105882 0.00000000000000
0.00000000000000 0.00000000000000 13.67193161812050
PRIMCOORD
 96 1
Ni 6.636748244811846 7.147941351032599 10.337702635834022 0.4907726856468838 0.5132500408137936 -0.4151701685202205
Ni 5.125363846484 5.742823540972558 9.4217791788855 -1.085162371355486 -1.2835193807042669 0.2193886332080996
Ni 8.367550355149397 4.342133505423675 3.3676429222038196 1.8942954781906927 1.8689978799661684 -0.04758109221307289
Ni 7.392347031011398 2.786125734016074 4.64013020306179 -1.3708160463394068 1.0420112898893088 -1.5761438305790663
Ni 4.362861842217473 7.470038593478286 11.19958108811639 -0.8189385229614025 0.8148895497030095 -0.23725522907587526
Ni 2.3085706362651135 6.196025878912146 5.173622852137053 -0.9227887220798495 -1.4297189913232022 3.007676220961924
Ni 5.524750975649783 8.7059668424706 2.286712936732076 -0.9564766012505979 -0.4142432858305769 -0.6827230201383726
Ni 2.166470834864812 7.1169189055651785 3.322224604797272 -0.45370303448809607 0.8167127189546773 -2.2393516635026463
Ni 1.5063961460304638 1.445733766968305 6.889449930156382 0.12138460845778448 -0.6765094351284929 -0.5962064272023667
Ni 1.3267349916568116 5.344585391268531 7.9334799264425175 1.9258477990756764 -0.8511369620708181 0.49797100316753595
Ni 1.5065175828841455 5.3511336400708975 12.787863038713976 -0.07866058722669679 -0.2709112265674238 0.10048128264621405
Ni 8.240788962498723 2.492809025892917 10.235272518012914 -1.4897992444445503 1.0694179640370356 -0.15284051297422063
Ni 4.820902971711451 3.269341657407883 5.0363291477536105 -0.5585855315257994 0.291108270340589 -1.0907154399632313
Ni 6.971007855218563 0.2486288800979861 0.2537824733423028 0.7286254390974419 -0.4952911423425277 3.3118950605425415
Ni 8.033496253264296 4.697354985035116 12.03992691798173 -1.2834293920936217 -0.4235905313734318 0.2438807048121929
Ni 4.724594205445535 4.008770659474913 1.046107500613734 1.6019695333929185 0.8261867198833834 -1.601494907749345
Ni -0.04133897325249107 6.998760846933019 13.448313247665093 1.8997634432837993 -0.6990605809561315 1.300568879987386
Ni 7.3160846868993765 0.450270104988001 2.9772131621915174 0.2051069264781048 -0.6922628413080077 2.566239662546006
Ni 5.706439191350274 5.046018874547755 12.47886416213231 0.20341385504639806 0.7602140125370004 -0.2784702698616043
Ni 3.389937794410111 5.35406680715213 11.081100754757152 -0.24682538926281358 -1.4599592782649824 0.8832744660353111
Ni 2.709284229524956 3.840384449900772 5.971148179134986 -0.13794251281646566 0.9620643797510207 1.312821986323126
Ni 6.2983784639728295 4.029144027004104 3.0039012461121497 -3.0455940790536196 0.19272655053588097 -0.7868048756516515
Ni 5.923895231108203 1.6948661429442478 6.225294963038333 0.4287926443996615 -1.6153382413903408 0.1919840159429016
Ni 4.1407538368338965 0.811745582564044 10.84206071545179 -1.6939373792514827 0.018319881355110385 -0.8787799205990671
P 6.236501716373854 4.086863897688594 10.422509463797008 0.2928962154789472 -0.03266817965698245 1.2904312773327518
Ni 7.41732565768405 2.6763655008808165 7.882374627765098 -1.5045743458711958 -1.241968296735358 0.15865994786947513
P 2.360087886115407 0.1425369740735551 2.9984459289929166 0.013516546429196075 0.6627542903259296 0.21599220593204094
Ni 2.294371865680808 0.1303269655006959 9.245602328082862 0.5844325744958903 1.2787317295076364 -1.4327842605120873
P 2.014282433312504 6.469015925988297 9.991502046191833 -0.25542778621984397 -0.7786706765802912 0.429911331385137
P 6.191990438851343 1.8633551067791967 1.8917442407810146 0.1766836381404054 1.5163214591047949 -1.7618908644733204
P 9.054873605690602 8.731431216557981 10.172573736327479 0.16189670963921796 -0.1162493441137482 0.5831141127947829
Ni 2.175083510179766 3.0919971445506174 8.605209750841365 1.4482484175859573 0.17333400494188214 0.0728267541537391
Ni 7.0847381393395645 7.343109057491742 5.777854336741114 -0.08464174451079616 -0.11229627300327111 -1.6863904201421602
Ni 5.343669944217701 3.613045318512451 7.458175147003241 -0.945469708617133 0.390021951389367 0.39400921817188916
Ni 0.38343873375881904 3.372833880633885 5.3320671199132486 -0.7735546955099646 0.44067191233575076 0.19082470552747782
Ni 3.289061134186481 3.337878749366469 2.473812565458546 -1.2313128739040407 -1.1888680744762687 1.427148916603181
Ni 8.899817426132122 6.108666074632918 4.965330624183863 0.7990890923356431 -2.0566256758229033 0.368281731498798
Ni 4.238071463115013 3.2740963772943377 9.967699488740603 -0.11197205689463298 -0.29848733641347946 -0.8263708108697316
Ni 8.98553316223843 9.195217243360739 1.676930853785125 1.052439170090852 -1.2919667401406716 -0.219139493311771
Ni 1.2772074379476084 4.756121080920556 3.2710912822305414 1.3943943478799792 -1.2814146756564382 2.4595234547336737
Ni 8.822518198115588 0.7744803486877476 8.402591426344035 0.3082043065909273 -0.4768038821716176 0.6760219539691131
Ni 8.362160427105225 2.394519904782348 2.2188045140237027 0.15723170006338083 -0.058162467273344995 -0.8874563653271427
Ni 5.7326695517454915 1.5877681792935476 8.947500073795007 0.4089139031978635 -0.4135951107236167 0.7584450935620357
Ni 1.7344638985408742 8.317069989203617 11.2414590541733 -0.0716810705850701 -0.01978258194356593 0.7199405097289343
Ni 0.11904548179367881 1.0088039674220457 4.092118376934431 -0.0336066323108518 0.5871841690990984 0.008279723510288967
Ni 7.160963118265838 5.389423614166338 1.1181148841986817 -0.7940893251282066 -1.8689207468713298 -0.2867448511655707
Ni 4.527875843777842 3.07603286893971 12.379565246876895 0.267902521648087 -0.6845428469559307 0.4860341425206338
Ni 3.1757231845158356 8.096596710696524 1.4533403846569897 0.1947078426319679 0.8965102479992948 -0.6440947662432133
Ni 0.10279816490072953 3.144074872187133 7.771796097061955 1.2699696670442902 1.0456188047349089 0.011091224817155092
Ni 5.732314582480884 5.98623904352903 7.269160552507177 -0.1826326566349887 0.7472258278074486 -1.2143461641427151
Ni 9.135077976899055 4.2076094954338155 0.6705163899916751 0.7371491602977369 -0.1514063516308554 -0.018710689035625838
Ni 4.659018304457492 1.3621385051532056 3.188814077342708 -0.880922935083999 1.4196616070872004 -0.416636982873734
Ni 0.007447815649254561 6.135821223375403 2.132110744180436 -0.7772061762196227 1.9475414819990264 -0.5478678879979789
Ni 0.2561981326009222 3.036780741311255 12.237294499751798 0.14645440694221876 -1.1127287110095287 0.8099517460817599
Ni 0.9685990275570117 7.668288927761655 8.664791341905758 -0.9401691223398259 0.6969355641933288 -0.8656120157585415
Ni 3.941774881428439 0.40476771591351984 5.008247342404571 -1.0791583312532513 0.5594723050061268 1.7423016294874831
P 3.5564183795110953 4.842490707777458 7.842329424069138 0.05703889519186305 -0.16230628637281078 0.13101390401743243
Ni 4.073870154344667 5.37706507898013 3.7557205437732746 0.10497145720708372 -1.28621286837603 -0.669949265412472
P 3.6008642679585465 8.561447645293105 13.006382118006439 0.14100186846807974 0.53907214408322 -0.4503976242639469
Ni 5.072604204207581 6.605959331755351 1.8022882495813137 0.1609088918046519 -1.7650535784720183 -0.3755402128334242
P 2.5794495503464927 3.0578827299625355 11.535131665690708 -0.8152970695540732 0.6781487705041288 -1.974121289370084
P 8.156044721221866 1.5786510739709934 5.927971772873329 2.403412984893351 -2.3394393102548676 3.198522780866272
P 2.873205299402191 8.903796818414301 7.0692222459576355 -0.05314727344694073 1.009720805286719 -0.8272951224562141
Ni 6.893381681826734 2.847909068650678 -0.10386774334277098 -0.9478772896173612 2.3871163046158563 2.181180454478553
Ni 9.20011208269375 7.993207241731329 3.95775036659507 -0.2835813658359246 0.7931097348237567 -1.2720715438786414
Ni 0.46766826960199404 4.159006730071879 10.130025999316034 1.220150686639634 0.6056773428072795 -0.7731394623494169
Ni 4.398452181642607 7.275001665169261 4.9448096641709665 0.7711725684310331 0.1783106322208671 0.05141537835749854
Ni 1.8234584296965848 8.755055355247263 5.059434844490637 -0.03946514797415784 -0.18035105968966358 0.6361770540580335
Ni 1.102926870321693 1.654876052897266 10.322404394659078 -0.06894927347620383 0.3577270959114032 0.6470505064374276
Ni 9.377353841290208 6.191345889397187 11.189409350426093 0.8404517144428301 2.0625024463186543 -1.750122925304115
Ni 8.790206653739856 6.311773883063549 7.437188990427781 -1.1185787420324027 1.4366761393673257 -0.7545038495261006
Ni 7.138235744034511 0.507788203669451 10.545393284296667 0.60382306320736 -1.9070082977716702 -0.9758524346740485
Ni 9.079777501991758 8.859874042567323 6.329146826177161 -0.6614052324972028 -0.03249077353885372 -0.12265036254408553
Ni 5.718255931343134 0.9323491926034218 12.32922500037767 -2.9586085169009952 -0.1081205443590267 -0.08360996081217213
Ni 3.9183655925572087 1.5268535852275884 7.688452116121011 -1.3865907926751604 -0.12727192047649694 -0.8662997858541854
Ni 5.952012533383702 7.563535629516651 12.955358088608023 -2.3519757521589812 -0.558680919453083 1.3454569987493281
Ni 6.977883049396227 6.734803833511489 3.4216197354059865 -0.20872241174350506 -0.4676093601565431 -0.21665349366512365
Ni 7.8813171930084245 7.7866618362118665 12.094095227760857 0.955521179315864 1.724921743448139 -1.3732678503140092
Ni 7.138067600698643 8.021670171975 7.858681363482182 0.5734151403394641 0.6375127421503214 2.8534696808781113
Ni 3.7370136635284514 6.196894619480791 13.465307868273005 -0.37614853584138447 0.2108273739016498 0.6520631291606706
Ni 5.311264986877597 8.733430253995508 6.666816943913044 -0.6960783583993561 -0.11866720952662145 1.4766467662229923
Ni 3.7537906319293812 7.744831510766787 8.640032235699374 -0.10741220543809242 -1.6689652826871773 -0.1302104342795306
Ni 7.5930634675541455 5.117180870805151 9.122486843431563 0.43888499563865707 -0.400365242296904 -0.14695345806582433
Ni 2.1818185849108738 2.2520277689316908 4.489930563520929 1.0874869057236047 -1.375905287936856 -1.478263475890809
Ni 0.0659841156423422 0.2103772053179378 12.79003769252452 -0.6239131490890159 -0.23956793636945192 0.28576397530954006
Ni 1.2248681540108552 1.3228583536354386 1.3472802390404446 1.4677540917190528 0.8362410187955921 0.3145945263879872
Ni 2.3615451283595856 3.3507323732638405 -0.028847791656876877 0.48034969054134696 0.7176951653381833 2.1885844602521085
Ni 7.668372999429587 4.535264809259544 6.599537190454884 -0.43123930616794115 0.36445978664954654 -1.2200059335316538
P 2.3381918872669774 5.042842833759161 1.5259110484170908 0.5501217170291623 0.9346582198239258 -2.006432085687648
Ni 4.235241050294589 1.1976476161933112 0.7189696946106182 -0.08153070968564023 -0.17673428887268272 -0.4637030831236014
P 5.875993062979045 8.950989048014243 4.5265717987952305 0.42284851100108467 -0.5342752369152088 -0.3041507053468439
Ni 7.519883751266349 7.508608806466837 1.064753662431716 -0.5207514913971611 0.9027534006955292 0.9681671502146488
P 7.667149289596335 1.4457711321540534 12.414838916352815 3.9351451221262614 0.6351516981173126 -2.627696227189591
P 5.339316900078039 8.791626530798286 9.596889253635023 0.8105600690897202 0.196935446410906 -0.2773017034747998
P 5.954179714157097 5.136442624058334 5.156437669081825 0.029837395076406675 0.5857582352858492 -0.6710232152029412
Ni 2.0468181688027256 1.3515174511042873 12.670421457518538 1.5713908892751132 -2.3871358449998823 -0.166279669198262
