# total energy = -340867.7532751734 ev
CRYSTAL
PRIMVEC
9.26901534998792 0.00000000000000 0.00000000000000
0.00000000000000 9.26901534998792 0.00000000000000
0.00000000000000 0.00000000000000 13.56614089113922
PRIMCOORD
 96 1
Ni 0.9585737308529831 1.7643106723189717 11.12167149939636 -1.0691418275575135 0.9823773802767597 0.7064769280248608
Ni -0.011893073228361514 8.95738150833978 1.6925657150206421 0.6737645253935042 -0.8612532245692135 1.0509070497170416
Ni 8.521552420039916 7.822918947636133 8.525477847919433 -0.4246562536337848 -1.4466592187219665 0.163530388587899
Ni 6.110014232860994 6.853157515601143 13.04780527120668 0.18833562055703695 -0.39441082448568204 0.13499088638730947
Ni 1.4131076915515977 0.9951678023248648 0.10168943736344116 1.6203503498929512 0.27475116913880426 -0.6261962886962377
Ni 8.425173201406524 1.7535030007545813 1.179104917955427 -1.4413558042311823 1.2858241175780436 -0.5225281236816097
Ni 4.072341768280439 5.3075029086372085 13.320891773720868 0.5680147952594992 -0.6201259141324418 -0.9422478592457255
Ni 1.9353240002460779 6.9378670442692085 3.01677057548931 -0.41805468915686717 -2.727658404107541 0.3570771210322302
Ni 4.680027664878217 8.297186641405576 6.148757788926171 0.718786084409517 -1.421966601071293 -0.08594863624767778
Ni 1.1718166914107613 7.014623758012535 7.426810369589168 1.600650557471179 -0.6570505550729329 1.3211143082389054
Ni 5.990610780809126 0.7805187321819084 13.08060831551747 -0.40922012158437265 0.8250340943361791 -0.7252580652871057
Ni 2.5810035895903716 8.688311270052736 1.904929972950372 0.6334676255466704 3.5529231263972876 0.28746553138167913
Ni 2.6737215472735607 7.211933281675641 5.544766521732824 -0.5624370440614055 -0.5146924296872749 -0.3989819887961322
Ni 6.5221424496427245 8.811329637979487 9.381338842145931 0.34555189400145003 0.7597357873490013 2.3417363338191604
Ni 6.717727936503964 2.4435533652092847 8.792445873590008 -0.9601949306424495 -0.458881493365242 0.5613422683353301
Ni 1.8566393313694816 5.595945388407594 0.8063486964601992 -0.2851507672055735 -1.23982502514011 -0.010026273887750474
Ni 3.840634929715572 7.010156092751783 1.1372321424047116 1.1068061748775069 0.5504523608957036 0.278195933154295
Ni 0.056478889488251284 1.2511131152815684 3.6609856604535236 0.010664164582065505 1.5213567075358574 -0.9892463394824511
Ni 4.813455136721616 5.6090239686626155 6.976061874642609 -1.4111923932739243 1.530709609505667 -0.7953342532789013
Ni 4.537896587889911 0.26462111105642033 10.767662787769172 1.562200995245729 1.504266841933106 0.12649647576305312
Ni 2.80710267404164 1.0229748475162643 9.455817231986577 -0.5628229666459146 0.8725429385504198 -0.2325403400987092
Ni 4.217976532962862 2.7167112391394643 3.386962987417891 -0.6523963441303732 -0.7601304516842586 0.18465585771260457
Ni 8.714144015035547 0.5915661525003241 12.615384399745773 -1.004012184937716 -1.5328024874789536 0.26771046024193895
Ni 1.6115202280072958 2.335643491836527 7.147483966134029 0.47518331584905904 0.01472445069436819 0.9064655594397937
P 8.316874029401086 0.9649230061716861 5.6082018070264565 0.10492209202638704 0.4201704499482893 -0.7376973194917231
P 5.679857781780173 7.562329858132466 11.032948487205669 -0.7473929495129322 -0.7440158055105831 0.2684555659380796
P 7.763022572293859 4.297430530089754 5.474086574265325 -0.8922183054921602 0.38048418710226084 0.11820081141316417
P 4.626211763417796 3.260422393766896 13.22506035387775 2.7197514905556384 -1.2298761414575141 0.6739918109129618
P 2.8769725095925627 1.4138028676813825 11.777851955906431 0.7275244927237794 -1.3236959529231527 1.2099932864906582
P 1.3600796563715989 8.74281307862788 3.809928536612216 -0.14073267396709313 1.3778868371432593 0.6755064477852754
P 2.1321608041409306 6.358720445052871 12.305289500786351 0.41328015058635925 -0.24313379934383933 -0.38600665958238684
P 9.370788849200315 5.697515255476712 3.255317947171262 -0.2453791437345903 0.15167734590405488 0.2195902076959444
Ni 2.512969019022081 3.63055270329455 9.177046042533759 1.3638717538110896 -0.0056872801927643985 -0.5287612490755151
Ni 8.091451583049476 7.660655569929253 11.052443079687853 -1.017478337744951 -0.006409245960453478 1.025324830372563
Ni 3.535396994649581 8.245363578183872 12.294857224332045 0.8828805730310021 -1.476166227042148 2.0677585525112714
Ni 6.500564182574199 5.05039896879753 11.12959372657139 -0.16930920005320518 1.4700840254038101 -1.0130501267702683
Ni 1.4047563089791137 7.781152765758651 0.32325411964549866 0.22498643901085125 -0.22989261806321698 -2.5378485129978228
Ni 4.366447616254806 7.797855530903617 9.14138072637127 -0.7385987482600699 -1.9103661585003102 0.10808506313540095
Ni 2.4276662733899315 4.711922345712753 6.825437599151344 1.8763538061106073 0.11854019703045392 1.5157869267575637
Ni 9.133103495919297 4.469111227101453 1.487052186124567 -1.4800948726725929 -1.329839346816729 -0.48994530464958197
Ni 4.855026669282758 0.38253503238753667 7.914662731836117 -0.2387706372791372 3.134820871831937 0.44422157736022205
Ni 6.6836364990993085 4.958431801334507 7.952864977421568 1.792614261699106 0.32032011601785476 0.49760950606305904
Ni 0.8949020856752233 5.303396734963945 5.454293519498087 -2.0419570180671345 1.3638069620114255 -2.225326552868148
Ni 5.201678563653806 4.136613118732827 4.789905350149019 0.5008318696550988 1.2919703396850977 0.5815969048193081
Ni 5.950735478004659 7.9831246039988475 2.920925252123595 -1.6839897811204676 -0.6045933657144813 -0.27294188384420737
Ni 6.266317633881851 2.9912131202538954 1.4860483517931573 -1.6636335860616187 0.05816580970745467 -0.22422487825447834
Ni 7.034876555926937 8.592515999368366 0.9035769568734335 -0.1748159888040473 1.2729827428390013 -0.13049171296537526
Ni 6.760532248068592 7.012797762044967 5.024518951837894 -1.2949733881774794 0.22044895615181387 0.44077758467567957
Ni 3.959982767677058 8.892424250772672 3.7998216025866487 -1.087464022905469 1.9401439039833748 0.3091057353592741
Ni 0.2243287025740826 7.847240843163543 5.561928103123449 0.12482114494315923 1.1019709582723924 -1.499785923343617
Ni 8.729196895499157 0.7001498832682195 9.434531865794067 -0.04837582020022636 1.0096894378281513 0.8513943294972628
Ni 7.786454642375144 6.749733845519264 2.049532169354687 1.0739112239216988 -0.36211442634582147 -1.2868936964931386
Ni 8.157826999921346 3.366728727533616 10.626574474975545 0.4696981243647717 -0.537964255731022 -0.6026925491473427
Ni 8.376779673758426 3.448082872748587 7.498073338104179 0.8505461225643546 -0.6888275903742136 0.056520046573915565
Ni 8.181314684093016 6.290982482966621 6.634737810130233 -0.03295434343883357 -1.3927002480070079 0.9183196305649023
Ni 4.8481675981355465 4.586642338110434 9.1630322186588 -0.5111193676240358 -1.39410407033307 0.27146632773994533
P 1.09104649414481 2.404790344212474 1.6924572675443956 0.9746579001453151 -0.03902986020895214 0.08628390809990946
P 3.068359132629901 6.002567810241428 8.596456257671987 -0.13211099373635313 -1.0340809792986385 0.05546383739525933
P 2.9402520754331243 4.426807442350271 4.781210087117669 0.7901254553844521 -0.6850637524564073 -1.1592772481930291
P 5.728992830633376 5.727889817840784 1.5530920646511275 0.01791776082068527 -0.39487773681977156 -0.01742822277877644
P 6.152753661320175 7.4508421449450815 7.762152211779367 -0.004693291710611272 -0.8470666486561863 -1.498796305736838
P 4.122839362348021 1.212934042233777 5.740933175838563 0.4411406244420531 -0.6915550166077058 -0.40227145818068133
P 8.402899758208212 5.799613456404467 9.379181942340585 -2.067736441024084 0.18441237424323081 1.2146765508989403
P 0.610812335378798 2.6530794507264788 9.22901833689799 -0.3279251820586223 0.35211154949683876 -1.5199749966969824
Ni 0.8605483351442622 6.641759089041061 10.529712340657332 0.39826387968318505 -1.6281173954328798 -1.4407600796287123
Ni 7.231463096415068 0.2749885044052804 7.317399842677581 -1.089053735990092 -0.03152635274305539 -0.5499342836087044
Ni 5.765679592255895 2.511717701988468 11.396765670573368 -0.37721940030806 -0.3183246828543808 -2.0049747844158308
Ni 6.481182672075794 2.462647536240712 6.251643856134349 0.470158608940958 0.7302794297610972 -0.36904097826232574
Ni 3.5370468793309375 5.1510512033753315 2.5820973333679 1.8138592871208117 -0.10077644528912966 0.9640258743527655
Ni 3.6163896482770634 3.4567123257729846 11.219619035378546 0.06349699211238097 -0.3819702847294841 0.29432549172630595
Ni 0.27299381236355064 3.007786119187969 5.415712171196526 -0.3811027945228663 -0.9374746062267985 -1.010918425139246
Ni 2.197220020873741 1.4071847909258295 4.700287878004671 0.6587911919131234 -0.012375747956533525 0.3343380275635016
Ni 6.176445263823248 0.4294603480495295 4.985475079684651 0.023412722496985484 0.5709548517244296 -0.8845291643780187
Ni 4.192783350019454 3.020558821945885 6.898775900139141 -0.004563193890650206 -0.10329458372529307 0.9617260225749953
Ni 3.493260052169547 1.6001564155390775 1.390271619138914 0.937138048822986 -0.37669335260126097 0.244740738819643
Ni 3.9146480150000134 5.816130841248158 10.858257214101247 -0.6652120078378028 1.848363234434952 0.29445893198037676
Ni 2.637127475801679 3.2366102940679946 -0.02465001866066917 -2.4139308537055397 0.3035904619679997 -0.03575915987748035
Ni 8.713634219207037 5.56771196852326 13.067069065213774 -0.030995162829933722 0.5440680546359146 -1.3062579599523634
Ni 7.00226816093249 2.796721377170184 3.5706350092176287 0.3796125831305849 -0.8743601942648168 1.6827384252118698
Ni 8.012266387359436 8.629063725764928 3.7485417036476827 1.286102825160727 -1.6719747589374625 1.5205354971861427
Ni 1.245255097761247 4.340957824829357 11.360896436079475 -0.08604762371938729 0.08407147382962295 0.7994423619100038
Ni 1.536237287659114 3.9960670433204304 2.979206038140249 0.9621741658560073 -0.533455826337707 2.2316715212495697
Ni 0.6857588104801638 4.818089644253515 8.4616356528645 0.2923262019080901 0.32224278696186437 0.10855068991790984
Ni 6.911005438614318 3.6238048603281037 12.956437809018286 -0.999013189061228 1.1026206760412494 1.0393890217751132
Ni 0.25349180466931587 0.25951573755927937 7.305149912369263 0.6755858948729591 0.852856515865086 -1.296128070607213
Ni 1.6176841230247225 8.61340835932217 11.146592173296893 -0.6226242550742631 1.801561443590065 0.7214842000669703
Ni 7.1221628707827405 5.22461937593671 3.5349567164340505 -0.2308776076843056 -1.2756368926323964 0.35710591738763664
Ni 2.557043185650449 -0.006536509422991614 7.192577724419415 0.4500736652656248 -0.3321158231012022 -0.7856252535212535
P 4.782580047544098 8.954508113670002 1.0476257930784398 -0.7047206074553863 0.6017785219735056 -0.05689131387040525
P 4.49713145963932 6.948452259472068 4.356400003925648 0.9441461047097031 -1.4929817559375902 0.15680515404892348
P 4.586308653568138 2.3494265172363975 9.217907568541014 -0.1370750226098478 0.3115894210130763 0.0037275853632322904
P 8.637350225231966 7.65245249159779 13.440775360753044 -1.1474069791180044 0.5039750432697707 -0.6819010384577094
P 6.963421718800105 0.7200282129740446 2.6700473097022703 -0.3899797852975219 2.365765606854222 -0.9514706633955743
P 1.4137565226060635 8.687940509450184 9.023721702954408 -0.6658635253788725 -1.0712208215737293 -0.4463859320013925
P 8.870577182267295 3.3833944166183283 12.768410277040068 2.809024820301175 -0.7924936985063126 -0.08763990790717165
P 7.391390682325869 1.0942164972966295 11.08255996343315 -1.1297334730976416 -0.04679227776319038 -0.24342022023600657
