# total energy = -340858.283997539 ev
CRYSTAL
PRIMVEC
9.37435508040277 0.00000000000000 0.00000000000000
0.00000000000000 9.37435508040277 0.00000000000000
0.00000000000000 0.00000000000000 13.72031623449811
PRIMCOORD
 96 1
Ni 3.1205916036436614 5.2428143789555515 5.402237475718543 0.7446909772007367 -0.5785334354026359 -0.37300330534418336
Ni 4.813459536641716 0.8813515647316114 8.956718297284151 0.20413530659345488 -1.0319078829067196 -0.6669693568485415
Ni 7.348125817494573 3.739158431225557 3.825896527543917 -0.2080420978470288 -0.7204770989586947 -3.36735298440053
Ni 0.11415246065238317 6.946575312690897 13.493958708345334 0.7630216571891246 1.151150762431153 -0.05497892733904079
Ni 6.011848981782078 8.723540586148712 3.2253312742441387 0.6174085152012786 -0.597878415588151 0.6259774878172123
Ni 4.945956672976376 4.10727998540171 3.3999905105065444 2.1198665860604207 0.5494169776526537 -1.8477693096046952
Ni 1.5991431297524112 2.4450474451828876 2.664211432736421 -1.7488569141074977 -1.5907140150837573 -0.5933674150916749
Ni 0.4409349832869641 3.2826273331996676 6.536591637953258 -1.1482055637598998 0.38230632791266417 1.2598073817993078
Ni 0.07288092446821928 1.377439629376389 11.082832367437739 -0.5037791252088808 -0.19509556498868982 0.521120958921438
Ni 5.231912003863064 7.387957452720692 5.445771981246925 -2.2818116324390703 1.996854726411858 0.05567749606796217
Ni 6.342707474055708 4.518786055423116 9.336414367820318 -0.08694236761951478 -0.2980831589965254 -0.2726588053861497
Ni 1.9751672653584582 3.2213846707067897 10.820802265881268 -0.16333884140238322 0.37977096308532016 -1.1143497915527196
Ni 8.367924421803494 2.208260607297139 2.239457523952588 1.5040953493522484 1.6753418756374825 0.06564617724489985
Ni 4.492734722334534 6.862468597875943 7.713081651921171 -0.5438441115505667 0.4889397462032031 0.44931647538462616
Ni 2.0223577694131265 8.443641088718383 2.2218543597662834 0.8773953815467148 2.00529694364194 -1.454238059510489
Ni 3.934941839485736 8.828955210323272 12.954750484671818 0.3096027296003506 0.9910764507126546 0.6091611875908218
Ni 4.806738123966468 2.809653616160689 10.147449831665226 0.6663810884452395 0.4672740883043114 -0.4475928078253002
Ni 2.2145320509229975 1.1044771547908068 6.136850383702333 -0.9412423007993467 2.016730639400178 0.6785745451876378
Ni 2.542531364861968 4.885604574227081 12.492128868075346 -1.2418639099470097 -1.1278002606306705 -0.29075911453128633
Ni 3.9151057038918387 3.0624518527205282 5.010412864430306 -1.0067185281252857 -1.285871168765895 2.352300225377936
Ni 2.5924685549889475 0.8234152373162231 3.9240516510550028 1.4225520412611177 0.4201755921546118 -0.5579826078344777
Ni 9.05975183523903 3.6280723221576556 10.015419538219309 -0.45402647926578577 0.22314270093389313 -1.318078349626059
Ni 7.277818153527546 0.5668156997245668 9.556172689493252 0.18979086494632474 -0.4168331580449402 -0.7885943634519065
Ni 4.266522157109427 6.3951757400855005 3.072293988240393 -0.5616160908220069 -0.749778161915657 1.9440920899978456
P 6.452621788724159 7.9824696848706695 8.465956741261516 0.056475052268593055 -0.31550623956897916 -0.6525701507040761
P 5.314490698781136 5.2177004813865295 5.475544933348162 -0.8527891529622603 -0.9961592645522005 -0.5626411896524117
P 0.32675346213347456 5.133181294942968 11.489255662072088 0.8381873438886854 -0.4164282092970376 -0.4400497053707195
P 5.634765544038928 2.708944918294321 1.4243470279041497 1.0338272114166196 -0.10374298411662133 1.2742490111459344
P 0.5458912014924603 8.121350757093534 10.403127870141155 -2.923074071439811 -0.19197553130246936 -2.1444147077134295
P 7.180690459345899 1.9332264002133281 11.164289889474414 0.8273969381414009 1.838287595366505 0.09716455956815524
P 4.613635781292232 1.452978183542562 6.448658311347457 -0.8814770078152562 -0.3975547694313024 -0.13390870906672422
P 2.373521115040433 1.1178824827205196 1.0049308769686933 -0.9957962247858269 -2.202118233072485 -0.8317102208047741
Ni 4.736683567589723 1.7288560825939767 13.360967543491865 0.7341075452579356 -0.15701624161846506 -0.7642092497393227
Ni 8.715469266325297 1.175890992670914 6.82622827812526 -1.2026970099395609 -1.029035446454931 -0.4827441589154524
Ni 3.5716480782353184 4.991881639079637 0.8569473058508967 -0.2930646227360114 1.4652161557885475 1.3001719016592834
Ni 7.2102196782120505 5.976704524153761 -0.006318315401836748 -0.4383800309777805 0.8735574958578634 -0.3696462159464924
Ni 7.001143434284505 0.8245148491806674 1.1592402629724832 -1.8287950824950376 0.6506989018232923 -0.8411137735068611
Ni 1.9644805004354702 0.5219275373059391 9.719362402173838 -0.23178906375498146 1.47346708294343 -0.4350993033439797
Ni 5.9458347724946385 0.31495489868428805 11.734273183819576 -0.8649689828579039 1.3278112606431067 0.8604638958986986
Ni 0.9061701701119715 6.491647229403457 2.178059247163463 -0.6537459161797321 -1.8425509986285493 -1.3629101612287686
Ni 8.222734408533986 4.820255944158529 1.9120628559237338 0.7601402218762715 1.2612687968361826 1.6614242371151258
Ni 7.682227836665881 6.470573678923739 9.805182749118547 -0.4271445672732773 -0.7724789459472825 0.08619906169558703
Ni 2.2259500155512426 4.198333097416607 7.506412742407857 0.9485159516426244 1.3505788933569256 0.8677953965631056
Ni 6.18694318812556 7.890891608964819 10.564712693212252 -0.6944091982270493 1.9097174691727175 -0.23710147710683038
Ni 5.440228925019765 1.6883869912145564 3.9810730414033006 1.0535917956380565 -0.3034464801909677 -0.6683176433463199
Ni 7.583787732756848 4.339510886662396 11.772827094432534 -0.636524152984807 0.11770998781967469 -0.1263491515519114
Ni 2.510208588147527 1.3888013478734604 12.139735607046378 2.3894971461432073 -2.2423739952687383 -0.8270896913136272
Ni 8.03513481235957 7.19275525448264 2.4926110485743402 -0.47194783963089687 -0.7838252241980372 0.7623873660392354
Ni 0.3578613224145652 4.646342906569693 3.958105871174072 -0.6741496766470647 1.3105535020039234 0.08186083933154933
Ni 4.177868880024604 6.685668258886862 10.439075710009735 -0.33035718853888263 0.04419572068060776 -1.839229133344168
Ni 9.353375388675722 5.857912695115074 6.5117449095073106 0.029357884336826862 -0.28012297497367883 -0.1374861420053374
Ni 7.160085626625962 4.158735821070378 5.780300533579634 0.44774424580149985 -1.080251821427746 3.085549536400634
Ni 6.337551578698126 0.5354172344324125 5.932856915161846 1.4785023313744925 -0.9342093052119652 -0.740864404365795
Ni 3.4280704540594553 9.077010023154136 7.274991785436073 1.6662584252789756 -0.3028646395455687 -0.7140220873619703
Ni 2.1514145173909993 7.892485249348071 8.577214401029497 -0.3472647629274987 -1.9938542490226372 0.09505779763779758
Ni 6.63556233036636 5.947512782074652 7.190241989854699 -0.20512698108276284 -0.5465980201466198 1.585864914521572
P 9.268593720286685 7.201135928027511 4.515191927641122 -1.1436719375556046 -0.43899709573648904 -0.34027264788038175
P 8.015720522749474 0.7453146718750918 3.6664528071994953 -1.5371707917499784 -1.1509563870321597 0.7227196151359682
P 4.154564233008334 4.92667362433902 8.691847766103415 -0.12473424165630775 0.9659236055961107 1.7042405609497038
P 8.249835669404476 4.346560401769489 7.671180159067862 -0.7045002639144642 0.0687574691803719 1.786659072556936
P 5.948037745965605 6.2044357349205566 11.641290829505424 0.988884071047026 -2.629495999402491 1.523221271548422
P 6.178909365722928 6.060455013471283 2.078587026747395 1.3715894341703216 -1.7610729965577154 1.052073045000685
P 1.1962895895765473 4.244670535148474 1.697916960706407 -0.4454040277040974 1.1867769962751948 -0.7646769334043604
P 3.562526830629996 8.351397433593645 3.715886594452471 2.986603202341708 0.5192833914920669 0.3267175349037663
Ni 2.647271035462446 4.369199469566872 3.255227030398438 0.8846970574144505 1.4447440039771249 -0.3407524157302777
Ni 0.40455029846626833 0.14111216875941923 13.603830838415403 1.8132316808391415 0.273673105583277 -0.9266860002517266
Ni 9.241173731339545 2.3997505608777314 4.553965198165657 -2.6965249159275304 -0.6835941098894163 -1.0260197995570588
Ni 7.406574922139161 3.441766387000232 0.44319045314702626 -0.6906276196974299 -1.2170800181341104 -1.9107523381951348
Ni 1.9363949322694423 6.288767434260206 10.452864449066947 1.829949764924771 -0.6463287977800546 2.587199552627125
Ni 7.028066582406279 6.342173135809558 4.868750421020906 3.363875310264574 -0.04403759783618868 -2.538685407076821
Ni 3.559958257306401 2.763194311811278 1.3083103218574503 -0.710412515633841 1.7570818731204512 1.035831386330842
Ni 4.360462570524569 3.1097923464583257 7.713795040351556 -0.38593286892165796 -0.27957044490431854 0.12658209349832392
Ni 0.3690833630192221 6.2297746170142725 9.137277752706671 -1.684660324824931 -1.2094849793956717 -3.2310495498493843
Ni 6.56067998106388 2.44943464341443 7.6439317208208015 1.1673703096138088 -0.369273405988106 0.09265998682958236
Ni 0.5295057660460649 0.2541209580779388 4.718265771936922 -1.1593662083624097 -1.560219446039326 -1.2889112411437997
Ni 4.905346966269021 7.403387641372656 1.2198773421197249 -0.4190589620516654 2.112866500593503 -2.2595471646139154
Ni 1.9009504952748655 8.4593806310918 11.744700279103645 1.6490124937143344 -0.24959266759530563 2.3852126598352403
Ni 2.017089381793197 6.946125343641509 4.062832417677276 -0.08991507709459354 -0.40798727761853604 2.092719593331983
Ni 4.428979732649235 0.5535200517506423 1.9260306451651832 -0.6990338414832542 -0.3191860024134116 -0.318257062841239
Ni 7.618360354718234 7.9182741004911765 6.7154908950706345 0.923505802751532 1.5458665197517636 -0.827281238499143
Ni 3.9624368232744405 6.5609799604301395 12.735623057103547 1.041131972608149 0.11307197482703109 0.3677207167890054
Ni 1.2838460671034837 2.7193223294958537 13.151540698680007 -0.719947965928102 0.9328833873116901 1.8909707846928336
Ni 8.237527141032649 8.509580303164258 12.109743295033562 -0.4441246467710416 -0.03858197403825613 -0.684999217767059
Ni 5.415555622144936 4.344413674429696 13.062797427785306 -0.33796405435186316 0.3403796057718912 0.014144924041814349
Ni 0.7804385059219789 8.082719039332453 6.354262304269809 1.1054118656331415 0.09284073538182075 0.4340250964431944
Ni 9.101589582477008 9.153111038632046 1.9350722107513425 -0.540933879882307 0.13022971755324023 1.5628067471505278
Ni 0.1626478749502791 4.672272373040732 13.626908626035942 -1.0500999804347142 0.02440516831724184 -0.2780434667368308
Ni 9.14952066059213 8.666366393810726 8.400250010824493 -0.0014115356355459561 0.3004403463747922 1.195181418288806
P 8.701698338542956 1.9117028806842227 13.297634399790368 -0.9028876122805483 0.4195914375163677 -0.1423190446176065
P 7.227430994351177 8.215347416639851 0.6591868460799652 0.55287665406648 -1.4733596108312883 -1.1927584106696105
P 2.3658622668456246 7.326902277331726 0.3546149832103277 -0.42607575968913075 -0.4082667565321678 -0.6736215720577368
P 2.450531442972315 6.677203216145232 6.651005643115599 -0.9080827833282424 1.543936392608586 1.9261632734335665
P 1.7432175947536415 3.1108047768194513 4.84833495027592 2.3905402426957414 0.5720665967313696 0.21854762536404296
P 1.0217578445448017 1.601374226288965 7.953050145960306 0.8442875432491525 -0.1178316009992035 1.2570958964054157
P 3.8418451180381976 9.15495778660558 10.629390119448798 0.6492434003236883 -0.4126314612587668 1.088935208134357
P 3.9473816088303013 3.227721734819018 11.974241677858712 -1.5784220850902815 0.187276068944271 0.49251563647991947
