# total energy = -340867.40854231466 ev
CRYSTAL
PRIMVEC
9.29454994665938 0.00000000000000 0.00000000000000

0.00000000000000 9.29454994665938 0.00000000000000

0.00000000000000 0.00000000000000 13.60351335444254

PRIMCOORD
 96 1
Ni 6.462974623707387 6.926140638351195 2.6586158648763694 -0.22807227702502655 0.9323066888726137 -0.5711836799057841
Ni 2.6681028120417833 0.21988116889606207 11.511538091714781 -0.2813578758220445 1.417218030642714 -0.28064285203289085
Ni 8.22049966867903 1.9018229334237446 10.454504241686996 -1.040416691708679 -0.7478711747009313 -0.45785690875546947
Ni 8.144749086335414 3.2199109498525926 12.347174831744637 -1.3741700504133043 -0.2763329118036273 1.4240437953152958
Ni 8.243596625381347 -0.2472127225696369 8.869912664203337 0.002850582074917671 0.283036549076048 0.28915037528326976
Ni 8.072121472785351 8.535594207578528 11.219987577371679 -2.313632890714725 1.7581077432818044 0.14474333778838297
Ni 7.6297659555485815 8.196612675228344 4.702013383607837 -0.43666124851446086 2.480936630302127 -0.7121595802319348
Ni 2.3525249565432844 4.477389205856567 9.860370582173568 -0.4409256802177697 1.1927789794949006 0.6164785471878415
Ni 4.725553690344239 2.2131252959310705 1.5183288717604566 0.5637940723099322 -0.21703555959489074 0.2359694203849162
Ni 8.913984631847352 4.126287580331406 6.858863897225086 -1.1627191839950426 -1.2682058902756481 -0.258912916554967
Ni 2.8745998289654766 1.9096303554076266 3.5988776362202275 -0.6560735358716443 0.5132307575400838 0.3670080069926969
Ni 8.174305755274396 5.0591722673554935 2.053749788500096 -0.9395554000152271 -0.26975602991705805 -0.18767690392711547
Ni 5.205310476703795 7.401082847820692 5.428155677588739 0.637525854776444 0.2921004590505292 0.20171127053299454
Ni 5.7451379395893385 3.58906259144049 10.609964884666052 0.0007425345929793663 1.3979465840076117 1.4076671537294854
Ni 2.5248366186375524 7.138325919863145 11.07060742899007 1.2707340560141405 -1.4547391675166237 0.024158342413758395
Ni 3.92503268959689 8.554183307540152 9.703862443411673 -1.2531667365543386 0.4247552411054943 -0.31203293630839807
Ni 0.99039006775537 8.116846847293019 6.816788398916949 -1.9051704732319834 0.03469549449965638 3.2762528858588995
Ni 1.2207183108298645 8.614690827915235 9.831830737002486 0.03610111659793138 0.1301484706933436 -1.4330202877822933
Ni 0.5385782753681216 6.382195689824153 5.283645873397075 1.3748843028715094 0.5209360966041415 -1.58634853902621
Ni 4.810273513419338 6.432860281769557 10.254084001540757 0.21291870921303976 -1.0522764192607426 1.1308925264027492
Ni 6.279509501636145 1.0772848155259784 6.3014056024809415 0.05179744428726563 -0.7168940095931267 -0.6464846066316285
Ni 2.919631923622509 3.693208023975485 13.918434306735817 -1.4474642311217651 0.026594719769392906 -0.17664532870330224
Ni 6.575131958325842 0.24675357180058483 2.199810853083558 0.9459823865874932 1.502487124324864 -1.1619969611170373
Ni 0.6081981725443935 3.499602547875178 2.095036179514862 1.7601453425371232 0.19630912568081677 -0.5179621015774821
P 8.829627296221505 6.030127431100987 7.829366416386513 -1.0118255103345477 0.6307294006799009 1.4624049115919975
P 6.709103601749261 2.6781316314710795 2.5135483876858564 1.1464345879024063 -0.13857937506951618 -0.8319832719605026
P 2.372954377401108 3.229763172832253 7.936888558929536 -0.0927062666864855 0.7475837253674995 -1.2320029579925298
P 6.2285846622912775 2.7962839508271573 8.80880564535449 0.7827728716741228 -0.6806972479575955 -0.9685767269482416
P 5.55667234962842 8.918362364888313 3.776634975148253 -1.215859515463448 -0.7150816389747362 1.8788295213446096
P 0.7219746177695056 2.7880768631941004 -0.02765221564791285 0.1695341715798177 -0.2982945036763831 1.3327300381009628
P 1.1460551908340042 7.448382812673042 0.8833047690614443 -0.25302843274973197 -0.8487085551349834 -0.6544881936623954
P 2.2428399722197256 6.754479594755583 8.760308542464612 0.9156832213833197 0.8294885305631069 -0.35443042743800246
Ni 9.097366102968767 4.239179184398345 4.384861031342589 -1.422008767163138 -0.1771055561691724 -0.7675095177571492
Ni 5.352601210249719 2.128544891105684 4.151805767303724 0.6415105504558049 -2.456916870348762 -1.0334965675500782
Ni 7.164276303409571 6.1358622316827 11.474481650396285 -0.48111022285645527 0.4508920474018622 0.6514200962600329
Ni 7.728390425394975 6.292735646258841 5.957590904140736 -1.682525023649483 -1.7702379508864352 2.372971123463726
Ni 5.176460193563356 3.5985709160708605 13.329021349157642 1.57869847868012 1.3841333322736034 -1.4369612747079121
Ni 6.7411790937330425 3.2526091766850875 5.918467354906506 0.2661372022175481 1.48214455611277 0.5776667165269664
Ni 8.058384127913714 2.0297531193596368 7.732127763942259 -1.8678509108459187 -0.6448311301886056 0.049677055510153154
Ni 2.6370961933057955 0.17764301596326143 7.879793997307407 1.2895254776890308 -0.30568976769918965 0.4487091808179305
Ni 0.4265064506094905 0.5171654911223277 13.104495693636169 1.1198198135283552 1.5619834799182841 -0.23087015148513787
Ni 6.269248318457329 5.095932212529603 4.527793550402508 0.40659399681543523 0.446006951395419 -0.22926886843628905
Ni 4.321900679227568 4.720469571504735 8.685897304773231 0.7023456794653066 0.28599820280753324 -0.7782595571848017
Ni 1.595558217006019 7.1056091039306875 3.0895074841668064 -0.6864778591951145 0.2766530141472074 -0.08334282319371453
Ni 6.815247362530131 1.6871002397670334 0.031604258299753975 -0.4638113265666915 -0.04721291024037675 0.5766578156464779
Ni 9.084809165944689 6.807700187945711 10.047283052832693 -0.44294888129538545 -1.6519018994469874 -1.2807071080664525
Ni 2.468883427753066 1.3836238883435508 1.2836972520448464 -2.731073600436677 1.6673981953103734 -2.030975836465283
Ni 8.502691500646453 4.424122139916535 10.342751219992707 -0.911686698629417 1.228502143928123 -0.4726610636478375
Ni 4.6483531582036175 2.877964456058531 7.3126228978333145 0.581836788744256 -0.5266981958988993 -0.9563171928545983
Ni 7.827135724391118 1.7780845895291988 4.200615167072959 0.9552856662662902 -0.2713701684817133 0.33247320644062095
Ni 1.8182928127461901 3.8274863875482716 5.553838441339271 1.7056243286711077 1.5018736591105812 -0.03818396726888908
Ni 6.742963647329358 5.560232162271071 9.10394757381018 0.6167947928766797 0.29015002019237773 -1.128750797469398
Ni 1.075779098429087 8.888127193800734 4.7671337891383985 -1.1060502705480888 1.2829110576963068 -0.9741573063598127
Ni 3.970390093503251 9.277550248896782 1.9225841697158839 2.1887076160935335 -2.2508684058929944 0.6057161664650148
Ni 0.9032926987951798 3.379944511422208 11.448567515594783 2.1201987725888585 -0.6097216880799822 0.8106590565614297
Ni 0.3741279436476243 5.217644344528333 -0.02294359662763365 0.5670259489836685 -0.6252110419648329 0.1969372461831189
P 5.740156060799624 5.509576864875648 6.766918490994904 -0.4030993533986154 -0.6852948946306069 -0.2593080951108567
P 0.9484530582419477 1.2707229897266312 10.525364961285705 0.34430336630632963 0.6053819230540478 0.1766718110658635
P 8.644665751603352 0.22254126910057037 6.296766692585519 -0.6290887797526843 0.5441791262924821 0.4081022059298455
P 0.726102327415984 2.237913860729895 4.968029910243654 -1.1453416119485436 -1.6426927221438936 -1.3234072180381402
P 8.120685496435094 6.326019429740127 3.842366962067551 1.396597011958253 -1.34730047971597 -0.9902133313814109
P 1.8184508200958638 0.01717168108954959 2.78699218921134 -0.3362966939517692 0.22365923555899547 -0.25025909753471093
P 4.5815067547416195 6.992522314314152 1.3746211872321368 -0.24868018308336526 0.8556039967032362 0.19948366675405643
P 6.1997529682508 8.175077202922804 9.486409940425597 0.6927492940261232 0.14306672141690843 0.41960043637743216
Ni 5.512393113519833 4.5265666698050415 2.3660587507703443 0.17339134054237879 -0.8816600703603397 -1.0867608261908572
Ni 4.881432588072432 7.136950326465985 7.992050783610655 -0.004018891351405982 0.20426977528879015 -0.9794926025297969
Ni 6.073895466960629 1.305094235555673 11.343929471910805 -0.8235230570082914 0.07568967752383093 -0.11501238638285352
Ni 2.913060676786075 1.8946196571886156 6.006970989278792 1.8737359088717858 -1.9703823911529421 -0.35040742232153843
Ni 1.4318626027439634 5.3868980996789135 7.14787049323844 2.4440428425995715 0.8271794228139561 2.4480802458937387
Ni 4.365427056787709 3.7532972896014325 5.116023311768127 -1.6039829642785215 1.951965322098335 0.1069370655738868
Ni 3.466560422693392 2.550368747434842 11.821901704674046 -0.131242989309103 1.123022379626053 -0.8094328974638124
Ni 7.076545046140689 8.217581179985055 7.014828304813102 -0.8035949506257967 -0.11058931761449341 1.243180314765588
Ni 3.6383051172388305 2.364366213218838 9.367760362645544 0.05956603248909096 -0.6939579696222437 1.4702835430091261
Ni 4.29397985108521 6.18966838152162 3.423949558306361 -1.2873572663931185 0.4460254633381802 0.39007594455575406
Ni 8.758384570618583 1.500484265252296 1.7983160364724315 -0.3359297975306537 0.12650701728601438 -0.8073114802454354
Ni 3.3920088372973014 8.599717307896148 4.159641072937548 0.7208144276934553 0.006134909253144273 1.379569624162321
Ni 5.030340573315016 6.4577882648180935 12.98066254533182 -0.19175210243775365 -1.9584285612251755 -0.6101806299942718
Ni 0.45267897390045814 7.6109630809374 12.32959883773092 1.5605408339344866 -0.8745327152869391 1.0021548200140031
Ni 8.052649390575553 7.0306578528854216 0.4751476190240723 -0.32529802884842035 -0.6631422697929675 0.023122959170708564
Ni 2.667275597093491 5.864173241193594 1.370309445496038 0.1298461089615764 -0.4855206932193252 -0.09894864805177152
Ni 0.9743569690384698 1.6195381559565132 7.125847057058906 -1.3313341861947008 -0.14970916643409055 -0.39786561580350194
Ni 0.39641348613661653 2.9588642190915153 9.040391441041388 1.9436465178199944 0.38430844594435754 -0.3147937868829869
Ni 5.752731586923662 8.636328540270563 0.09786789347795473 0.1654126932122764 0.2949803517014855 1.5909186748953954
Ni 2.96498932752887 7.16815213075157 6.372661340453836 0.8415012387532669 -0.2304361492715128 -0.6125221336432547
Ni 8.749824290086256 8.46601520642217 2.5747371985745335 1.1093297126303088 -0.6206275363592085 -0.8286755477435083
Ni 3.2165463227595383 8.340715378130849 -0.25676659049491324 -0.33324119495489707 -0.8681568936675822 1.1108564336874802
Ni 5.274480517660996 8.309299799195704 11.584207530739757 0.24921780075439015 0.5760813743177176 -1.4577874674246443
Ni 5.236819001138747 0.7768514997662138 8.579912480797034 1.286014636322295 -0.24398200627674754 -0.3089113599602809
P 3.3817569486684667 3.7433335320220027 2.4648746883463413 -0.13265863870970704 0.0789233539697802 -0.2027422829006702
P 1.0582495771652762 5.655027277525369 11.536894553517433 -0.9285220250192009 -1.1733581517661278 -0.6937340265368955
P 2.4327183337777276 5.640992507054343 4.444417719254636 0.5410922598370423 0.17191115645242652 1.3848015619852214
P 7.888591288864244 9.094512676124657 13.754376205024512 -0.49927352402904335 0.4975130896945109 0.5333753508087589
P 3.926473344843916 4.921380563889961 11.520434834956415 0.5477840700349211 -1.1620730657706115 0.6389767282903577
P 4.395959653474676 9.346413569704614 6.546024216150934 -0.9669934416215218 -0.7189642618585941 -0.13019500766056288
P 7.362538349050265 4.921380563889961 13.321362639973454 -1.0848168150906092 0.7823201004074204 0.8126416342090972
P 4.370037153578192 1.013589264507476 12.916154650644993 0.7028033358280155 -0.5857116983186299 0.6600682588533342
