# total energy = -381177.3044721342 ev
CRYSTAL
PRIMVEC
9.12026830371506 0.00000000000000 0.00000000000000
0.00000000000000 9.12026830371506 0.00000000000000
0.00000000000000 0.00000000000000 13.34843455334465
PRIMCOORD
 96 1
Ni 1.92242483449348 7.020773273216658 11.29389705239387 1.2116513909193714 0.12705594781094895 -2.1559630746726612
Ni 7.931039872783473 4.0149335490286555 0.8110508508713576 1.1480469266948485 0.11077315149052534 -0.9654037285368986
Ni 0.28996159614744177 0.8217416291535645 8.88724070270205 0.3297370384563805 -1.4748336242736535 1.292842972098038
Ni 2.7836791132203538 3.579048575098002 6.881024316946032 -0.5285378202107995 1.0720536018876698 1.0292946136535888
Ni 8.103996637280805 6.960023167315122 3.629345941715083 0.009073165945861793 -1.2262501146691527 -2.227086472982048
Ni 1.2395721203274737 0.6981592601402666 12.21041377169861 0.6061355133906206 0.16899938212227023 -0.8077459966796927
Ni 7.267595089162199 6.3678532789979325 0.5987866428332631 0.8269390246683759 1.2341691124059133 -0.6180345788210517
Ni 4.651035768846776 8.982898634806578 4.463929820398741 1.59142312533564 0.615289926196379 1.109611505536786
Ni 7.232719183897605 5.156243900705305 5.042491356664335 0.48203736265641506 0.5319324477146451 -0.48415903698510815
Ni 5.374884088181286 3.8528116630497196 5.8272986360401715 -1.4703899866800032 0.6029635434205423 -0.7405887821069053
Ni 8.428185687629998 1.6548270477862357 6.018168519138494 -0.6735146141662272 -1.9457195982989395 -0.6922988367522658
Ni 9.005361855169207 4.258909841322903 3.257672215434896 -0.8741442215992687 -0.32736699556230714 -0.04438058299790421
Ni 4.756146858850559 2.913524370346936 12.038178420409027 -1.2066351686517025 1.1934425812208285 -0.24195134899996396
Ni 4.846264228076362 0.736286540987192 9.342635754180305 0.7717325546995613 -1.0919413419505324 0.38886958295247864
Ni 7.2195403964741365 1.5367104554531346 8.200010259841743 0.2510767083399998 -0.6633839534901285 0.04305620775952585
Ni 8.390637543808257 8.62958856837217 1.6050021110574144 1.128326822558102 -0.3276451889243583 0.48128788608490014
Ni 2.1680336547799763 3.6628911998619738 3.5375887482825403 -0.10458502040194248 -0.6211520414041108 1.3346002585404821
Ni 2.81295517386349 4.540069466714367 11.39650645285422 -0.09349019604036157 -0.4433885399359655 -0.5994796986369999
Ni 6.795949543959977 7.586248136766726 5.384264283935637 -0.7096890072042552 0.1900340913053824 -0.14406585210538414
Ni 2.8093161868863525 7.631986281354056 13.556936540108284 0.5920407258604514 1.263354732830934 0.6068615929233678
Ni 0.4853642524979881 7.838925164840896 12.768725576672628 -0.9132931238845885 -2.1305034969489762 1.7445055791173374
Ni 4.566025749764324 7.1922799150840016 6.20114845829215 -1.1273577737766132 -0.5642841245724733 0.19451038190918113
Ni 0.19890483930598693 3.7824761553612882 5.59545047628276 0.003913990342425517 1.8220703621766943 -0.8804796768989932
Ni 0.5562916655869615 5.287511919657534 10.163470828683426 0.27551093012296424 -0.17025356624434548 0.29452038134593145
P 3.488247185763714 1.2485920654913556 11.305763433235857 -0.7755763539256837 0.12028211942222511 0.012707677374655533
Ni 2.439890606696051 2.453105875191971 13.091169919731781 1.13075831481773 0.7247574715016035 -1.659487167993413
P 1.5397383844666928 2.189320360556014 5.742603266207621 0.3548502885842405 -1.790406198304194 -1.3889250972352918
Ni 6.040481255077257 8.774190419305791 7.231420457718295 -1.968322680410436 1.2336016699382175 0.0738834775530276
P 6.249909971758981 7.327652054687138 2.3668509395120774 1.4653657939925344 2.2125065182853443 0.8587006333506888
P 3.155111152395543 5.135695936646432 4.989737901844388 2.2617595988842014 -0.4946177704245868 0.21137810419879727
P 8.90670791498952 6.4207964353946325 5.81021272575704 -0.18115658631009446 0.4347406344529803 0.7328376774065766
Ni 4.544967050691115 7.983371971216593 10.957089199083352 -0.2753479221825387 -1.0734700226192222 -0.7811674748602159
Ni 7.140704798904271 3.049160997725353 4.203983026611598 -0.6108313762043931 -1.7205680944651338 0.2810758258052514
Ni 2.67243920304455 1.1269641699347008 3.8204556878647806 -0.8821976880313646 -0.15765824607783815 -0.5584325508877028
Ni 7.862346013355405 6.888647949061794 9.098252697928213 2.5747261027504624 -0.4652166915546504 1.1390251828122124
Ni 6.469142976662316 5.917913971904951 7.09820343747029 0.7250912006919383 0.4974004753760466 0.17340136784470783
Ni 6.14547378159557 2.4712460884689795 10.19402555091602 1.0814090749606406 0.9176945953863936 -0.28097195323753543
Ni 6.801485546704644 6.73335714389959 11.423310008811889 0.34927433715835976 0.9252950334414709 -0.7500391288865277
Ni 3.9616073413712054 3.352446393559261 9.462745125096124 -1.0026538711376087 -0.6342916641098625 -0.15827582505717902
Ni 3.90701341644603 8.422777368638915 2.3009232574027196 0.13696857893897055 0.11135344947402759 -0.0976723524425092
Ni 6.552894398745155 4.554087318804242 9.054015749472304 -0.6079527691050175 0.9193339307620296 -1.0853174088761115
Ni 7.009746869067888 2.318262711139396 12.756564611170587 -1.1525712969277635 0.2727765619109367 0.285425875243831
Ni 0.20284114702361228 5.926359340177705 1.676536934002722 0.4248007496314491 1.3569560005278631 -0.013443012878783302
Ni 1.9540448040416896 1.253225161692824 1.5616197317237057 -0.9550601805190454 -1.0584974604697899 0.7486967559260203
Ni 3.6058895241549327 4.359798247190308 0.4235808202192354 0.660773769560791 -0.014869460912664712 0.02785327476684235
Ni 6.025451053226825 4.913097552809353 12.592085135884405 -1.652090875529342 -0.7905507158473287 1.2484461911502178
Ni 9.019124339751915 5.048606496434187 7.897307649140264 -0.39161372135651906 0.08607513452321305 -1.042125961090302
Ni 5.14015574775375 1.7671613901356147 2.9596282376856013 -0.1969009936285448 -0.6730698133193247 1.1409823065385831
Ni 6.117684324654873 0.329281808063564 1.0920563437317092 0.8619165691848253 0.23414805090546126 1.269061553407724
Ni 4.556340025028184 4.32194001425272 3.5599343171865114 0.6199323100643969 -1.5084579971963181 -0.5176911073042826
Ni 7.618314999452479 1.9255530864562826 2.0594632470808847 0.2895069872917401 0.6517245148743293 -1.3412905260764643
Ni 4.022457770221985 0.7076023857445978 0.23384732252780843 -0.8232127248567241 0.5866138984179252 -0.2886973469062512
Ni 5.739795135655591 2.9752321044003494 1.0865869189442674 -1.7456309509710324 1.4297719560483246 0.34893829397517967
Ni 5.857893487452466 7.191951585431929 9.009392101648398 -3.6125632066574234 0.4034716491363696 0.21958275149677667
Ni 1.7502524130538781 5.650197621712236 13.123846928354302 -1.2183174900856373 -0.12506848506727491 1.1689247985851225
Ni 4.3135220067843045 5.155258911749088 7.665285292261892 0.3368278838648909 0.025738542416684704 0.8708524382218744
P 4.060662573347872 6.240014480856239 12.356886189622234 -0.06564823412742887 -0.8715864881744214 -0.25812898720109095
Ni 2.6214021826834943 -0.24928793644333158 9.88085834458154 -1.8321056349255094 1.3579515316719128 1.0735828940480026
P 0.1407029363152589 8.315988149302317 10.433363274847933 0.2715203209063324 0.2433304887356777 -0.16481542594790968
Ni 4.766854053615369 6.533386145251178 3.8315076287642675 0.19397379267942078 1.2941400936429066 0.8417228678457697
P 6.0764059911748625 1.5345580721784366 5.727359650083342 0.14797778556528063 -0.25432606851523293 -0.841473213728809
P 8.76934755693772 5.823956969803521 12.179258023797358 0.3583673005985635 0.4749791702580529 1.3945226459277276
P 8.21839216022375 3.2376586990874507 9.198005630415533 0.640121383417762 -0.341598822890973 1.061242627315095
Ni 8.470020357464909 1.8077101021665751 11.236471284219567 0.5306800633647828 0.11401531257690688 -2.0890637417469504
Ni 0.6413746468143185 3.736026629861135 12.30526729615556 -1.063958226474045 0.45614044028499506 0.5548574319419347
Ni 7.207601965514054 9.314894634660607 10.099585174604597 0.14580983137968437 -2.2321178647583686 -0.07726524954106694
Ni 1.9331137887220644 5.869211740180854 6.522952558529762 -0.1514821991741133 0.8170135380245479 2.194146527720918
Ni 5.03604788724241 6.024931197944377 1.411063257739025 -1.8880168442708323 -0.8805943480999867 -0.7709211145418594
Ni 7.270896626219153 3.437383450496808 6.950797104091883 0.26770043293960993 1.2817214082635797 0.010861882415168389
Ni 4.768368018122148 5.286463088824525 10.337921493097685 0.6518139892643419 1.687172292613507 0.7908420218355025
Ni 8.942368163311844 8.618434480469817 4.918898043329301 1.2419585265433448 -0.23587197557510345 0.36437262625237893
Ni 2.566735295613414 5.85300502374383 2.2907778711536784 0.7962909607652158 0.6327076074521942 -0.6595365547195803
Ni 5.068342756630991 2.224551956277021 7.545709457030691 0.15007246331078025 0.49601850742685544 0.6676815524242178
Ni 3.405608436390675 7.0333045216040935 8.906489028554804 -0.048344452741658675 -1.1564261518974794 -0.8056456625072383
Ni 5.596333318236111 0.8225013474873879 11.703866784481074 0.3551359381454593 -1.6722755780073326 0.9490317149367785
Ni 0.9193412663393764 7.182794836246351 8.41074135081002 1.335337650927139 0.8148119023875386 0.607479943233657
Ni 1.4106774703978398 5.96671652657829 4.308433809203991 -2.6802385200626806 0.33713281669981937 -1.7431333813601593
Ni 8.197105454447712 8.39797023937121 7.265098871779638 0.8425980713618714 -0.5243530927054905 0.009909031583595837
Ni 7.692435418407858 4.362470485747454 11.133861883759215 -0.48277012705738154 -1.401149921436258 -0.5922297019428059
Ni 3.7085290215000586 1.986002223510085 5.6493913900110355 1.3202619875409392 -1.2287003759818582 -0.6396920091898274
Ni 1.280111712090321 3.818966348081907 1.346683285128465 0.09779268007045738 -0.6769431802318019 -0.05123642957747305
Ni 0.5841404042703933 2.716471857494725 7.7072658863866135 0.9270675519608615 0.46934999699673363 0.8872576190527751
Ni 1.2300688009535958 9.206545849476665 6.706346557855754 0.8366647365965719 0.9727817661685247 -0.051238743570318206
Ni 5.374409834239404 7.837921935348453 13.084148225311486 0.11545847278133663 -0.7695257768562296 0.3633886650725548
Ni 0.07805034248532518 1.5301256218754573 3.5666085293916976 1.4755910712649685 0.30931039517091247 0.8787819774815964
Ni 7.080301263191034 0.22732359474648903 3.6232590747763824 -0.9711812544506241 -0.09737821824085811 0.1310144182380647
Ni 1.3689887248527384 2.721551846833736 10.413193801915753 1.2820955037735469 -0.4553858215071576 -1.9218854719938192
Ni 7.657824000918543 8.858242810236364 12.61404309339357 -1.2966929419717474 0.8334161477522873 -0.4742433205332929
P 8.984047788588832 1.9943837499060482 0.08381708801325506 1.347924229342898 -0.434192218148678 1.4612898241509478
Ni 6.78726704871628 4.830568246653671 2.5310631909425423 -0.26342340283081084 0.5785555468898229 1.1854467074995456
P 2.1605367943909863 4.937029136338196 8.79628426880984 1.2060594986538906 0.06489747200433339 -0.8206621905207284
Ni 2.9549942294573217 1.4140519695996963 8.34945862125068 -1.7407553680462857 0.45042616350903714 -1.896089079756005
P 3.600773053743469 2.964889720360064 2.0954509130284706 -0.8303421368126538 -0.8053504998643227 -0.9094033019118789
P 3.1728044725350086 8.535066109647728 7.234557829949211 0.427823852728489 -0.44267557302934085 0.5563689834904546
P 1.6899218394855466 8.020801551552864 2.313123440057649 -0.2863267897915456 -0.26683191429172753 -0.0009775334219208971
Ni 2.553884837842019 7.948587268633129 4.849873118168726 -0.11278041172854125 0.47849643938269204 0.017279098795421853
