# total energy = -340860.0742206057 ev
CRYSTAL
PRIMVEC
9.31838997744045 0.00000000000000 0.00000000000000
0.00000000000000 9.31838997744045 0.00000000000000
0.00000000000000 0.00000000000000 13.63840564927315
PRIMCOORD
 96 1
Ni 2.189588676909346 3.3944564965683672 3.3032350500581584 0.35196165418253583 -0.23829832562840897 0.25859744219707725
Ni 2.0499153300503434 6.653535424041559 11.307383503504745 -0.1323220813058947 0.8007358839104467 0.29544417871178147
Ni 5.068430702749232 2.9956853173379874 0.30164373717415494 0.08000758817289447 -0.9149283454951662 0.9325455443562971
Ni 3.2945074460373336 4.920333531381554 9.406394681527027 -0.2202090722268659 -2.5731119641858076 2.6937923474877157
Ni 4.1030920965808155 7.456556995788935 3.55970602830454 0.3266594279723213 1.0009649134709602 -0.3940670679930181
Ni 3.4727682456512317 1.6248103808404086 7.962742187733866 1.319863980771572 -1.9605576917530365 0.9150368460485725
Ni 5.80783562635421 3.8598262087229775 5.431522698725997 -0.4071115598818021 1.6801133288841967 -0.15179690220105468
Ni 8.330845613822097 4.000841403733805 4.112607104551842 0.7118124813051613 -0.22706491880643473 -0.6614160311304802
Ni 5.504298392343592 8.425091809707878 13.518332725680947 0.2840667901127753 0.2096644639418002 -0.05228106879190351
Ni 8.754273252842252 7.599612918197328 2.4519395592099036 0.7326674703772995 -0.2899242773348168 -0.40674389212973816
Ni 2.0205064913895243 3.7164814162263444 7.57643435505255 0.29428538251699 1.469645652314811 1.2726294732646406
Ni 3.8725551293854235 8.210470652535514 7.461244145930377 -2.2860948331954565 -1.3258528513651553 0.9147103159470893
Ni 2.180214376626462 0.45458926682929346 10.018173072791605 0.6321666473470596 0.21243277071555672 -0.29923449899214916
Ni 3.8089943915826843 7.290391466321343 0.9847106070213877 -0.7245996057675004 0.8536851824139685 -0.5551425672825213
Ni 7.870321464437965 0.61793598333906 2.1087292800160036 -1.2134614475449166 -0.5673537646367326 0.24426739872765033
Ni 9.207929748838229 2.4803317615279163 2.146234867698491 0.9100828444774067 0.1127477587183929 -0.1602530033882079
Ni 8.763889831263661 7.450686410124702 9.966824085009462 -0.7263860082439619 -0.5369674390353915 -0.8391396804996258
Ni 6.332479616937676 1.1643514601858778 12.629231594994033 -0.08664977607976046 1.1965955250275133 -0.29407223806491933
Ni 7.271065125579094 0.5808394729750804 9.67883551645811 -1.3742284144550654 -0.8303897022211377 1.7323306343177003
Ni 6.309053184620409 3.7615544683817244 12.234100178875476 0.7023891311087322 -0.8161632742091105 0.5464576379140137
Ni 7.164406834288938 1.9982914497648756 3.8617551154412255 -0.18253726870770498 -0.9233888175576935 1.0440781997206665
Ni 4.748893793206096 2.170020058028573 4.6108446417141975 0.8847664771998053 -0.24946976886419617 -1.8103060225519148
Ni 3.6619501982785905 1.7567308272666482 12.639719442875133 -0.8540837034039678 0.028017311148532394 -0.726352069682233
Ni 3.307450689668473 0.8209818365239488 3.4028095013134743 -2.2354065628119693 -0.1598891922908859 -1.3030901037473428
P 7.722829988416596 5.728899545145149 2.8496493738257502 0.6156470524254816 -0.7796608084077025 -0.4999705500960679
P 3.552086380847965 5.40412570045392 4.791390310542175 0.3082531575509917 -0.3550827163100207 -0.7279847201896494
P 0.744024981338829 2.162537390904163 4.511966274187641 0.7099132073999194 2.069257248543985 -0.9133113787170334
P 8.255534386300951 1.1394806774274095 0.06962794149477317 0.5623575969737218 1.7481238925962153 -0.6275486889590741
P 3.240078730378955 6.985475110599127 9.323159095198163 0.9549143989698007 2.199762331245799 0.14452093736493174
P 5.3417670349538575 8.978017113769033 11.336856639056172 -0.14883859090367915 0.8120297116567112 1.922061592560367
P 7.377248178982145 7.070067454503726 5.4191795594072 -2.2049880984211123 -0.5032962720351912 1.3947010804871205
P 7.0169153582675685 2.8593759092484885 10.286835300600709 0.8796276133113431 -0.6692627808684087 0.3572344725457009
Ni 8.636861539557614 3.686625294848251 12.308170196856187 0.36182312035764785 -0.8684199175209818 -1.2739754457695738
Ni 4.980548967194675 0.7765396393677247 1.7723111752517209 1.9014200050506154 -0.6375698206405019 -0.740422174622054
Ni 2.462701367755334 7.293047207455162 5.193599975661606 -1.456641526745659 2.0913990747483466 -0.6706840866959676
Ni 2.9539202936124513 5.9409301899132965 6.7576935913099465 -0.5560321689763262 -1.6094360169732929 4.062422441919398
Ni 5.943446155197967 3.5524777532255802 2.5677298726444198 0.6737884366529041 0.714119532171783 0.3260248797121159
Ni 4.994554507279343 5.312479335362301 0.6610381960214483 1.811298982592803 1.0857192723002207 -0.36809018431328216
Ni 0.011393595383581477 6.931083668500522 4.721739073072544 1.0024396982442736 -1.565408189329117 -2.6389851698398488
Ni 1.4365882223772026 5.924725509802027 8.930619123322819 -2.9616030807529445 0.6899969280919666 0.12483939977560435
Ni 7.676284630650185 0.7168059643146683 6.407146011874752 -1.3898506943733548 -1.322239165871968 0.5911117862882788
Ni 1.2370255833530912 4.958753253117472 5.555031434550488 -0.7727064885770564 -0.852510445379577 -1.0276208254955914
Ni 0.01066303361203262 2.420945662419742 6.435718059118669 -0.4341456811814588 2.662717223349466 -3.0703023804335765
Ni 4.263666592082473 7.030762485723201 12.027573907046794 0.8188534194467639 -0.9856413957400122 -0.43135989090620547
Ni 9.261100481854271 3.6336129744612427 9.788515761606854 1.2213688753174514 0.8604538685963697 0.6052497683515576
Ni 6.716686152686795 7.104023667456838 8.079650707961571 -0.3632233431392841 0.4930635385635895 -1.071920418743915
Ni 7.731542683013511 4.939147360676926 6.111492135756102 0.7054685413650043 1.0655746790315452 1.3143677335436912
Ni 5.561177844557038 2.49926672989255 8.491926097897672 3.4805010638811344 -1.4926218014950101 2.0115740348999034
Ni 4.063675307120973 5.117054061472982 2.672036202312906 -0.43185971336075946 -1.0055268218100297 1.1829059433555629
Ni 8.132028445993445 4.202556590834802 0.8132932329817938 -2.00540981507072 0.4660666982597715 1.0649424447641853
Ni 2.7776070374966872 1.1906945485553755 1.0437211750148498 -0.08790216042962282 0.770846295439866 -0.07986077818238504
Ni 7.467804292450408 8.352296547471402 11.94301510934599 -1.3013175852279524 0.45020607707843113 -3.590608042542571
Ni 2.1526505791744013 6.299119780940931 2.2424677443201664 -0.9896939685428311 0.5371890681278942 0.29999220309378016
Ni 2.5975664254036324 4.500782342577781 0.830069130396582 -0.02629364358920633 -1.0454478263746834 -1.0756588027404248
Ni 1.3229597754095141 8.277013275120085 7.967584023148366 2.0109281737857883 -1.47126750418895 1.2971930215366176
Ni 1.6773567817302557 4.182363639827832 11.973170351041261 1.627319839232249 0.2905886503916931 -0.7869144046463221
P 7.217363244336287 2.7141488019833235 6.45778493834322 -0.4769182962622947 1.0100329372104992 0.676791485145286
P 9.256879251209991 0.02684348590944889 8.974943908765757 -0.10464055623022624 0.9493878127246166 1.6959109580380856
P 2.2722521140956973 0.09701375769891778 6.477779407644399 -2.1467361567577545 1.0461301971536887 0.8949277340035233
P 2.0277096068156375 8.112189593804318 3.186367530746205 -0.5110723164361844 1.5339114042724165 0.16088549476588423
P 0.1673638744142909 4.891437204167612 7.557859076539725 -0.887319325528646 -1.3597402481412195 -0.06581381317101569
P 4.4758276943098245 3.17814871081628 7.035398384719956 -2.0494492126791224 1.6131970266776217 -3.742980871851754
P 0.20351829555501041 5.6762879155257 10.993673383193109 -0.8758586331872142 -1.4820633092528734 0.06003782991918693
P 5.627235910864562 9.178390452718205 7.126939452005217 1.8941736079008473 0.701192796807786 0.2866198955519322
Ni 8.113251890257846 8.411468323610883 0.2754916757984934 0.8879746997244579 -1.7947364502484318 2.227613806240428
Ni 7.792158809594191 8.845118236398754 4.3296892485082115 -1.0821683217241684 0.41369846907070046 -0.404456124536826
Ni 2.801359613461968 8.851734293258446 12.425787846558569 -0.5766637291837489 -0.15732760221129677 0.5630276264575529
Ni 0.6255807904484819 0.3993908521616046 3.5420709753369866 -0.5453613195260414 -1.2363589209683803 -0.7674766076366847
Ni 7.218761002827771 4.2865525577830335 8.607647455246608 0.8277026423072777 0.9111681071217855 -1.259093900672051
Ni 0.2705808842984137 5.687805445495526 13.31123430470975 -0.9330209413308189 -0.41252784580136703 -0.3378622386666762
Ni 5.844978728667907 5.92106338255434 4.003813038286699 1.840770509689359 -0.8007495107572016 0.042955934736235706
Ni 5.070536658876401 8.785862594749785 9.344803851358286 -0.28274832841166786 -0.08806105460499027 -0.8757223647196661
Ni 7.304956109802604 6.008618974460884 12.054141568613923 0.9777954173330321 -0.9404187764567868 -0.002595785751634239
Ni 4.955249538498818 6.691936508997589 6.065681067117218 1.9557872669475864 0.25745381551093727 -0.5785935992166099
Ni 5.585377703239594 4.572804178448969 10.291868163009045 -1.370914262480168 0.7786511361962654 -0.17970057058985825
Ni 0.8790857251759354 0.030090944804662883 1.1609269518817424 -0.7209630374561776 -1.0429165753123975 -0.5683868338869372
Ni 4.548222265778741 1.9464905200704865 10.542378167208746 -0.01587939023441781 -0.33610540387656956 -0.20486035768493752
Ni 8.495268604370308 1.9284780723102322 8.425738505969939 -2.0974871899239553 1.3678158260605024 0.2780159559330051
Ni 0.4553897165254165 8.940743553996132 11.447737092829605 0.057780658453894046 -0.1482202405933899 0.638567922887713
Ni 2.7593616299878523 2.429341531758588 5.735168026059957 -1.2108314661212372 -0.49075983013107743 -0.5797336263583242
Ni 9.056794782349058 6.90617561218228 7.012363324780303 -1.2270962647195318 -1.8797569182548852 1.6931858457974387
Ni 1.0369224777122727 1.869874717957289 11.619867323699856 0.4254697506740156 0.1825141287792534 -0.07028110491374992
Ni 4.829441955875335 4.998030266728166 8.00052080424169 2.734764933245335 0.9903205463832362 -1.9675143255765275
Ni 0.23226739220784887 8.721155694984029 5.978026700277276 1.3044224494055214 3.1638969632622866 -1.4862043280044406
Ni 0.5485214329739866 4.807487829169096 2.2693485037893883 -1.614541456520658 -0.07065185798960735 0.19782916186976898
Ni 1.3143682198818607 1.645795394992552 7.854521202450232 0.3946579074994816 -3.515907982625519 2.3028268012381568
Ni 3.917255445943075 0.17758614818200896 5.424525519717629 2.8195501453125313 -1.289925541340927 0.28943962438891446
Ni 6.017452808127062 7.785253882646261 2.1799488025130795 0.9752957908396301 -0.057175420769727335 0.19742292757028582
P 6.814836753958787 6.6173893894517875 0.38867004453192394 -0.3775775549784271 -0.014115356355459562 0.5402527946548825
P 4.017362909103143 2.698195718400522 2.16067837211049 -0.7995907145624099 0.8022890873301796 1.2206304544895301
P 5.511594691669137 0.047390535734260504 3.8632963771378352 0.9246843964406657 0.3274292162588103 -0.8231165655984922
P 4.203795936697251 4.5471133773754975 12.534649005231303 -1.0745876811634332 -0.0824377948809419 -1.2508707414313103
P 6.757705705216873 6.412822775028165 10.038630666072962 -0.4457426419904388 0.026359978050767504 -0.4342868347450134
P 2.426648517064996 2.816874732717438 9.889576496058114 -0.2950932231302659 -0.9613233878199379 0.14944177170531683
P 1.5006707900167624 2.692241267226801 13.573200337505652 -0.17258864213542535 -0.5045658827762343 0.6282976513099566
P 1.6149981162301925 7.087054879370226 0.10562954104042381 2.570964064604869 2.7954308836668242 0.5549494774351087
