# total energy = -340896.61200043524 ev
CRYSTAL
PRIMVEC
8.99260280776406 0.00000000000000 0.00000000000000

0.00000000000000 8.99260280776406 0.00000000000000

0.00000000000000 0.00000000000000 13.16158319539092

PRIMCOORD
 96 1
Ni 6.124133178346146 1.9207749361307764 11.066561947906782 0.7725871893903726 0.536156770208638 0.4354474307120178
Ni 4.463253447763794 0.5302389159695755 6.075728696739783 0.3473876616586082 -0.834105460509828 0.07687958406687405
Ni 2.681234368579565 1.395364148456379 4.70209427302259 -0.20881291457478232 0.3784748699817159 0.33888348084233894
Ni 3.367055200078494 4.06746203287148 4.608278047929877 0.4242754732555983 0.8013532057794716 -0.046972769205112654
Ni 5.0148237161807385 4.5764703135419555 2.6589030387315185 0.08932269492623326 -0.5710155297590359 -0.2905701384489318
Ni 7.220700122734933 6.135805576422401 2.5162183137422005 -0.06529882120781012 -0.3872263909221008 0.7090269481402239
Ni 5.01705388160671 4.5974860256407295 11.379518004648537 1.304355600723328 -0.13335232234262195 -0.6834542418774423
Ni 5.521628809232815 7.924928811600654 12.297182517382275 1.0699080162995767 -1.1667442459940358 0.14395169512502307
Ni 2.0706726276046585 6.357536176858631 0.36572195057229695 -0.7539677745169724 -0.03216167233420913 -0.24707478626945836
Ni 2.824819253081544 1.7527841283784458 0.39396142027866404 -0.45838578467574603 -0.7238488436444049 0.07394749802174361
Ni 0.4749119289401759 9.005012315562801 4.653619649116539 0.10986580918490756 -0.22309076465003513 0.16403638169004006
Ni 8.618339399629905 2.3457113758036323 1.4712671093211251 -0.8630743369383523 0.3847337064072342 -0.5085464646905371
Ni 6.821572452306186 0.7983641513480368 4.819271480952356 -0.34761494717806585 -0.3593579466466069 -0.9294828462705733
Ni 0.6797912915065332 7.218703764974587 2.2517890380011356 -0.3273184017125589 0.3651272450302163 0.9126626893894412
Ni 7.541816966267291 3.8361363255420566 3.8211762319829976 0.37104900983129 -0.44444577755588616 -0.871919446033808
Ni 7.526916223884891 3.8850201128629536 12.627393579847235 0.42216151223638904 -1.0304323268024576 -0.7291396597296991
Ni 7.967913451665753 8.92148902331915 6.785967141872344 0.3528823662245923 -0.25905458433915385 0.527153281158447
Ni 6.659085117298592 0.8019162293450482 0.26038350386548126 1.1202119067604515 -0.13435505257552344 0.349432717113095
Ni 1.8052559641064503 6.405250925851398 9.133441067770697 0.5076890017862482 -0.24371409732734156 -0.1558034522572865
Ni 0.045733678656711484 4.987477211905013 1.4050779577028898 -0.3373942978913222 -1.1596374597459256 -0.24662947120192363
Ni 6.250299391758983 1.9667541128363952 6.992906709676969 0.836414825369295 -0.6178620577989294 0.36766518096072165
Ni 3.3926571394645486 4.236118293210592 0.507689965140446 0.20594073523330986 -0.05805242405804195 -0.3021835543181441
Ni 6.000781649523346 5.5980839158925395 4.775838110021305 -0.11515636815988556 -0.1477931803583003 0.1954346934956634
Ni 5.2867780017139525 3.1593800373874004 9.0477721405648 0.1484675807175056 -0.9636453510848951 0.4972595789228082
P 0.14604795833332393 5.426010466594277 12.434813399753061 1.1440221218061717 1.4819175277036285 0.22845691405795493
P 4.165823119279862 6.064044608280247 12.605427349661666 -1.912844444837473 0.9061120327551169 -0.2897281021636107
P 2.386303983597328 8.303301555403824 1.4550660366137433 0.6799079192870806 0.343846224164253 0.21999438511289854
P 6.3141738474875195 7.8254076794666645 5.833082202092797 -0.6853774270420842 -0.1296342500610864 0.3682364800831594
P 4.6911349883264934 0.9714888358813644 12.412451495056434 -0.7103711208729444 0.9656520971022788 0.09776902592137356
P 3.8677543160167205 6.252484594172334 8.046991700481751 0.5296554787550103 -1.0740786027374984 0.9159986957412095
P 4.60861886756554 0.9174073243015498 3.713843226036341 0.27425957421436636 0.2728593514327301 1.13964430445345
P 0.17619206125429104 5.513499496551047 3.640059821586521 -0.14282915148480563 -0.10109037698512269 -0.14312997055467608
Ni 1.4837884090756537 1.0584293170841657 2.6331985836766894 -0.012243850364359559 0.1285207052819335 -0.9634046958289988
Ni 1.7866322842790812 6.400188090630341 4.8042538347371435 0.5042923173998735 -0.023106247000160205 -0.44863950392225965
Ni 6.036994859887815 5.670753136889626 9.268438916122431 -0.5693168019003744 0.35806648152869297 -0.3405896649001683
Ni 8.574743262593167 2.1729005330983955 10.291976036152917 0.022311519013006733 1.0328612479589243 0.173995549785281
Ni 2.4891343934601773 5.016145628751778 6.7252400970272355 -0.36158220799143537 1.1842056360035929 1.2657173195258395
Ni 0.6066625485204657 8.899142406046813 8.927685825718495 -0.41961894832019353 0.06870630422746232 0.540397804873179
Ni 1.4718012699110554 0.9422808628831539 11.476952852996938 0.42793929526043073 0.49059399397717446 -1.0061811675645769
Ni 4.199563363950208 6.725405560913679 1.665124238973718 -0.3884587206673052 0.7776319509031318 0.01787199518441438
Ni 5.5668346221213625 7.790408470442946 8.055059863466356 -0.587693247525033 0.3608013639613528 -0.41777315336070625
Ni 5.322955241668325 2.7655580024478597 4.926235790195526 -0.8802768168595678 0.1025322516379718 -0.8027313170739208
Ni 0.8278338090796981 7.355202478687592 6.917727653315412 -0.6661944263557301 -0.6046650994926813 0.2950559421344273
Ni 5.203452546725831 4.714129072980565 6.933943114186832 -0.39390328872164415 0.23047754403240953 0.35319629792058527
Ni 8.351681756983373 6.861076955194467 9.217490427262007 -1.200417726987081 1.4412272490731177 0.11968433793722616
Ni 4.578898316223457 0.10394369405533095 10.346373188081326 -0.7558459653762918 0.7742812892633439 -1.1155111588506723
Ni 7.994063939805776 7.143741430333861 4.680640621180894 0.5802046524574717 0.014876660001516313 -0.11410118742249382
Ni 7.2692691689674875 6.119888669954781 6.988155917763497 0.23540120658627198 0.2369770357138241 -0.07096861789907778
Ni 2.3099927585779887 5.11929077970297 2.442723571833403 -0.22500906471867058 0.5348923016739175 1.5676913289363388
Ni 2.3290211055189403 5.148822486392048 11.423148313574867 0.24542439515022893 -0.29312581499125 -0.16492546916321274
Ni 1.1686156758117128 3.3078568976624783 3.8785868050172265 -0.9585149718368654 0.027076544501817883 -0.4367193554459059
Ni 3.6039203505627495 2.5750677031802818 2.678540184863351 -0.8985347346284913 0.5528727974117382 -0.5327796262062888
Ni 1.1155683135221672 3.347496289588621 8.228924639187415 -0.7351251878891726 0.544936573283797 -0.6578478541632476
Ni 3.785696817984494 2.847102922136213 7.13705273257645 -0.4603364806442136 -0.8271398278252722 -0.2347059802914603
Ni 4.184626651157712 6.99889758147851 5.962789702379616 -0.16055202268586544 -0.0936262073975936 -0.5753640365357188
Ni 0.8695208166005737 7.353026268876765 11.442956319154655 -0.06207337229197697 -0.4433201485918752 0.15238439927340852
P 0.20689820183301316 5.408429928659702 7.932643565306061 0.30246663277620167 0.003871310029948171 -0.6979951158060946
P 8.578097503334648 1.7012385307104216 8.13608231294806 0.2944172801091639 -0.3798267560239201 -1.4333131364323637
P 1.6916344312147047 3.0837522501598906 10.294687305813927 1.0251659361971956 0.6355628175128022 1.1268348113936077
P 3.971322119286545 6.054269649336573 3.858830956532076 -0.4775911539596033 0.21830902699067561 0.28186206915197265
P 6.962504519063561 3.888500250039772 10.336580243932604 -0.6557637179407094 0.7767963423757138 0.8218274144734233
P 6.389909545945319 7.888230000699885 10.136155816656673 0.5962655625750762 -1.7168096558639658 0.3287361079956919
P 2.3064946361961214 8.399675276654387 5.745834173883672 0.5185154029777909 0.4279040711471211 -0.09424738592136027
P 6.79905497558589 4.058541371167593 1.509751851083176 0.4400134528161454 -0.9414862984893528 1.2091664197139886
Ni 5.295779596840556 2.848092108413862 0.220685660022932 0.10984164081519146 0.4524383088430595 0.39166154387531904
Ni 1.6527773957081568 1.1411432751006496 7.031483175984766 -0.30090648737793335 0.24705396033385194 -0.7856769326947952
Ni 6.901570644360398 0.6843127720556405 8.940360898976184 -0.7234660063836895 -0.19630346925386194 1.2584994616211616
Ni 2.631136579917918 1.5165844304809717 9.135138871127243 0.9322519243752783 -0.1976666681499757 1.0785788046006972
Ni 5.970836283118162 2.115446795572051 2.5306964038059685 2.334212771748606 0.8839108140677293 -0.036309118843679405
Ni 3.8990935358131376 6.750270106892758 10.4363846430461 0.6020456595919631 -0.24241851844436962 -0.36202649461770553
Ni 7.927042073193812 7.328692286446605 0.24360510607605357 0.34779672417156876 -0.19093809117689053 0.14096972967856367
Ni 7.420902432728517 3.838636269043751 8.21377570097535 1.7873159894146446 -0.07670680593443564 -0.7180034406072215
Ni 3.190719257183818 8.321169856619171 12.559387922519134 -0.5446792058573522 0.147226766331869 -0.42793672415726947
Ni 0.1447206502007698 4.924151304930444 10.315153569898479 0.050972891503441246 -2.07403127289386 -0.6086004299913454
Ni 8.750206923043008 2.1548703650376155 5.883608937894842 -0.40528376264444393 0.6351552976617384 -0.18908766823171305
Ni 3.6230925791440876 2.850349251647406 11.490798763103266 -0.9582174952011047 -1.38636967780329 -0.8438152315984241
Ni 1.1081224386322295 3.2618777209568592 12.414360624572295 -0.9365839760917289 0.17692686449946304 0.6117983681033529
Ni 2.9676037959588792 8.324434171335412 7.990791531747264 1.0298299173317684 -0.16732096597858281 -0.27663501642507843
Ni 5.527680830731521 7.813852185223222 3.6004824786177942 0.27637302101294337 0.2472043698687872 0.6398154221415691
Ni 3.091198125049829 8.177207282811182 3.53733372591295 -0.23250305910287053 -0.011786451111966799 0.21690828998840708
Ni 3.3259230361333536 4.297654672282868 9.216990438561668 -0.43872301613949605 0.8100183376536372 0.014835008130303482
Ni 7.309124383354208 6.12023938145322 11.345021482105915 -0.6298768228716184 0.15578314054231235 0.1778617176089066
Ni 0.6763129528502193 -0.022673048743961827 0.3655079266322238 -0.22055719959490405 -0.13512844040643823 0.2979440623154998
Ni 4.606901280483441 0.5207049587735464 1.5320741883286988 -0.9852181921596646 -2.0300569241954394 -0.3726837172212356
Ni 6.027147960123948 5.6966788099665475 0.3955513124049213 0.17330186615236606 0.32798277476943516 -0.42339898418791594
Ni 8.020682043277052 8.854943764640963 11.315091403125022 -0.7552561543110928 -0.5324325272795153 -0.6919599653556083
Ni -0.030131513277433422 4.655767082599289 5.762943499445986 0.3051184685767519 0.4220208728934668 0.48741791024203796
Ni 7.7871891187393265 8.88784769727657 2.4057001279815147 0.7711306594495041 0.231014390372486 0.5513257646395925
P 8.49645366501853 1.6903484890537612 3.5545482649247955 -0.48024787485616005 -0.3079219994638181 0.8193542703425826
P 1.61767027545415 3.2379484056402834 1.5953946997417527 1.4064142551589909 -0.4087987177762379 -0.3140412249876785
P 4.657035039555184 1.1003798078589968 8.268764566149844 0.1135165185636174 -0.09500688979520412 0.063481051272781
P 8.526857654152444 1.5422493180846948 12.494448742651747 -0.17840653436878307 0.7813343394553834 0.20559877851285882
P 6.177908941440142 7.786065043423816 1.505277132067194 0.06143599581829419 0.21804728868885676 -1.3033117328398458
P 1.9492724935295846 3.1315839029854704 5.982320735801665 -0.90317506161398 -1.1121815802568071 -0.3061191419271244
P 6.926381234724333 3.6882889474436644 5.975543011279265 0.4184827778332213 1.6398264563396923 -0.4895452409976859
P 2.365872790662619 8.346241232456306 10.161189423563208 -0.1322241222754497 0.546716033781723 0.7292319623331892
