# total energy = -381171.24136777426 ev
CRYSTAL
PRIMVEC
9.22065885094948 0.00000000000000 0.00000000000000

0.00000000000000 9.22065885094948 0.00000000000000

0.00000000000000 0.00000000000000 13.49536626684195

PRIMCOORD
 96 1
Ni 7.344725028024984 8.525006243524443 7.1053917627696235 1.6402638009874269 0.6903373421505208 1.5000270928201456
Ni 1.7955850012522048 1.2800671855795753 11.975234787235413 -0.35620603128118655 0.687022675954991 -0.5679682582922799
Ni 6.244359262782811 8.785535959345333 9.185188820034343 -0.9833178898131582 -0.13061281192427182 0.8725221126148135
Ni 7.746367706893932 3.9263870550143536 6.350676225526736 0.739256950669359 0.36233399855579534 -0.7510009785791647
Ni 3.3934975180673814 1.7475269273233967 -0.01147326580767771 1.3620609258545961 2.8120867470559503 0.7208756199486939
Ni 4.921701853972775 8.57633765134518 12.296249258917932 0.0937251948693031 -0.13859428746785163 -0.06002111774863857
Ni 1.0350189559686753 2.468481022185176 3.3491719668412556 -0.879575419917169 -0.8370354896724294 0.1891753428495129
Ni 3.960420506831551 0.4172532543028463 10.341216014493448 2.1470791419194697 1.6822185481526577 1.6044444772959723
Ni 0.3070986533453427 4.254181477149644 7.8247350085302205 0.38278763842445684 0.4248339168622296 -0.10665475844677762
Ni 5.750380906184951 4.855515964743883 3.865909675679806 -1.0626832164163633 0.07681067850215159 -0.33375387292525743
Ni 5.3843115291612325 7.902113855537736 1.176178944376872 -0.06514866878319102 0.20108572113385367 -0.683279663972791
Ni 3.1963874938202332 2.5204209934900454 2.5732691996916888 2.5589385008989027 -1.2015757518509242 1.2664423706173222
Ni 6.817616844177274 1.0474207421225985 11.434731752275582 -1.3520256531057813 -0.6709494245422122 -0.33731767901711585
Ni 7.197959801101568 8.252591098445258 4.966982665455812 0.2020851089326455 0.991701743001479 -0.8496050988073238
Ni 8.574392092327724 8.666045441301698 9.49722882445767 1.1295172433217773 1.3548818916076537 -0.2700468216845994
Ni 1.7455352650116884 0.35665324020558725 9.751886824722561 -1.5633101691495075 -1.1785332682091638 0.0980202227002312
Ni 4.579799823796217 2.672017845651123 9.870483860923583 0.890198446848654 1.1628788495013584 0.9948343750931901
Ni 8.318740105038748 7.081060288194923 -0.08557140239618437 -1.2669424501821924 -1.3164284727274618 0.20508172966712424
Ni 2.753971061514371 7.22618423784295 7.209021825524513 -0.28530554761588284 -0.4456752790876131 -0.2606648662490672
Ni 3.733140486825565 6.203816025817161 12.284143455913108 -0.2820880691198497 1.2492352627104164 0.013121624983622564
Ni 3.1204277062098105 3.9119382825956195 4.765875485596972 0.6177856960350393 0.16885231502144468 -1.7852285107579964
Ni 5.560066507510621 0.8384446520007414 2.1363842406302416 -0.7436537941854742 -0.09228332021645397 2.4223923542093315
Ni 5.069324602169287 8.534946113765283 7.171207903578611 -1.006285040132293 0.23433574143623512 0.3307973614000948
Ni 2.2476001394214378 2.9743724700178835 6.481122730416536 -2.7661802143318233 -2.0030346299703248 1.528880012496096
P 0.6146020936142224 7.559529496606242 7.61863391983795 -0.05200647497427817 0.3375251670422316 0.03230154034618307
Ni 6.60913774756746 1.8068710876852174 6.227611780112647 -1.7186557079337694 -1.0871066395660502 1.119819299307723
P 0.3877609769695206 3.5172203185233966 5.095688309954637 -0.4195567276236904 0.07147743921469625 1.3401980643432339
Ni 3.5901465093720044 7.806080693609773 9.35277429464219 0.006051091290086353 -2.26938523375026 -0.9048053981285514
P 2.662170181998788 8.525550262396623 11.682169054594647 0.15961074181851867 -1.3754941685413664 0.3931612683492971
P 2.4721877270430777 4.974112078879019 13.539496509575688 -0.22457917627010354 -0.1356992253082437 -0.28242128408955236
P 4.817877235316139 2.2706610072065394 11.979350889346275 0.8490566825030216 -0.4266380599505039 -0.22077625758424557
Ni 2.9506292734778445 6.8999020037591405 1.5389436372685708 0.07984560867373346 0.3606180443059531 -2.2691111541532663
Ni 7.315956572411421 2.661515515220403 4.179434206178063 0.6554333311844841 0.33045720445185667 0.073956239772492
Ni 4.700369158925362 7.068400323593186 3.3093064483011165 0.6418301385787527 1.138894313661303 0.7370655994449952
Ni 7.251043134103898 -0.034669677277881686 13.6980669460254 0.29902803940829786 -0.510777668013901 0.3553740222981944
Ni 6.0212008772829995 3.734320731158429 8.211052952389638 -0.46808115758663904 0.25207121104278524 -0.054527698734235124
Ni 7.683805536593287 5.8435003399161545 4.313658414998913 0.867606420480751 0.44603960440556734 1.069568630682287
Ni 8.990511205591957 0.5530293000082356 3.6476760440720466 -0.17837285291737023 -0.8367644953992299 -0.2948967908487437
Ni 1.5511729971019894 0.9145851645246339 1.3187404729303442 -0.9920436997219301 0.2760881427826729 0.4960380478108812
Ni 5.972792418317871 6.320162299192775 12.967858997941256 0.5347262084096984 -0.267794535315313 0.5503808842278198
Ni 1.2780294199736149 4.733010291256133 3.425704357366294 -0.7093370231814752 1.477526340614468 -0.042516533205971936
Ni 0.20562991302501052 4.581118378011839 10.31048724680827 2.806234659150548 -1.190048210827299 -0.01630850735203643
Ni 2.1411015296981577 0.8399190353509365 4.624254464246251 0.1859025856355121 1.1072340064435449 0.005633801247009652
Ni 1.7463466829905325 3.2510383388271493 1.2581321602401196 -1.696462973886814 2.0069198239573436 -2.2126926661542217
Ni 1.4101430199835854 6.777073607211624 9.973763538642153 0.13072979711811034 1.9076027368225597 0.9216972887878836
Ni 0.638325926770675 8.553368990148583 5.422492433329384 -0.6376490106178696 -2.5875451088920016 0.37378954869090464
Ni 8.349795284047234 4.2333243468298125 2.7464018226639952 -0.17083952065480254 -1.0853027535880921 -0.5948383432102466
Ni 7.989470377487376 1.9393074107549555 1.9998106079342843 -0.5579098456150134 -0.6214580026803039 -0.10606571871252701
Ni 3.274597122190178 4.0003828422896195 11.617998801390474 -1.2057273121254524 -1.0518802122635884 -0.6183824490787737
Ni 1.8911940128730442 0.3450084701432903 7.101450853176919 0.55082517085409 -0.7675221161626394 -0.16153212721094762
Ni 3.110985751546898 1.7484213312318952 8.61034067498817 -2.1560957435957833 0.6914514011503059 -2.403057915546778
Ni 7.309225491450556 6.1730743492095925 1.9676111451624514 -0.19011868059938872 0.498259223831916 -0.5101534041663408
Ni 8.752350808142381 1.3026577997633015 5.939607267114921 1.3169177536590546 0.9733916318383816 0.18501864036866197
Ni 8.295965077678012 6.416020268602578 6.4624988436702955 -0.12044975534834094 0.20011101592541022 1.1362219090354626
Ni 6.0419289183789235 1.829968838105721 0.3101433148977779 -0.273051155728562 1.673003457312293 -2.2082258886321195
Ni 3.3165603406188056 8.930042124850376 0.4649360474164393 -0.2955961309086135 -2.462448598800269 -1.3717046195919473
P 1.7090030146460058 2.905789209487861 10.091942878997248 0.22944370345125645 0.12776120140808964 0.27921743244027397
Ni 0.7030614063623835 7.945672247947499 1.570118684842113 -0.37121021799950266 -0.0028405547725886566 0.7181795611737697
P 5.470939619061683 0.4651730183488972 4.516804282529598 0.4369571824883249 -0.8559917190599581 -0.019306670748411914
Ni 5.846626143266474 6.613453015909493 5.756650954203291 -1.365805737609009 -0.762860706131228 0.12369757286167728
P 8.900683547070383 7.432975953883123 11.32093867933567 2.2431813216613823 -1.4671054023914605 -0.6409222820525027
P 9.164062446476077 1.9359142082979712 0.3017681904638684 0.4116053339870976 0.31641409609522925 -1.8553008420950499
P 5.228666807764784 5.7511185588929905 1.621859489915811 -0.240181915804367 -1.4157010797775553 -0.6661910839216204
Ni 0.245915893608732 8.958174355003253 12.819437740688292 -0.1400821848672878 2.1149827756055575 -0.2516436365870634
Ni 5.470229628330195 6.658237755946374 10.54762783938898 -1.4715243573947627 -1.1899016579471056 -0.9631167322749347
Ni 7.389528209379565 3.1337884408841856 11.967731015062876 1.378482561745729 -0.19659477524203559 0.6497398803441325
Ni 1.17089458478965 5.665689154643104 5.679821658463266 0.6883809897550983 -0.30028119508910867 0.19650324396949384
Ni 0.5486255133412365 5.391411436476117 1.0438274513685584 0.6772864225038336 0.8074071252830354 0.9150401884826822
Ni 2.4475777885710914 5.015309982623054 9.014013742935997 0.3015626329046936 -1.4160587202272903 0.5935610191597197
Ni 8.541326809689828 6.351613966531832 9.051963208567003 -0.9207040716366789 -0.35860152809655665 -0.6213309901841364
Ni 8.912181708656956 1.9119589366043712 10.67781708789685 1.4440472350204163 -0.031997893062835216 -0.07514511787427058
Ni 6.025193422565266 3.3661398232579463 2.153631483010103 -0.1956313828875018 0.3922978919077373 -0.933732622685863
Ni 4.960299531920969 2.4910347537335005 4.19302361319193 -0.016166325347217316 -0.08580131203653611 -0.9346700468984677
Ni 6.9728835185608515 8.008077667047687 11.262098889012973 0.2773590390752965 0.4783498865024987 1.3104033495793044
Ni 3.4148525639651406 4.816097648157992 6.892461854132671 0.7311217231567344 1.7874612567432573 0.4984070622636901
Ni 0.6139289855181358 1.9097090958448488 8.217828292512985 -0.606178193703098 0.32403150343117104 0.4971675334296341
Ni 6.302513958152918 6.457301158276269 8.139919257621568 0.04379514280807941 0.16926317730661816 -0.4018299997678886
Ni 5.066217240136668 4.053217217502987 -0.19583019679869862 0.01902102118719305 0.642120673235978 1.6307160093979916
Ni 7.367979529645946 1.7607585727738646 8.985201028159954 -0.6918082702690924 0.23179086352719439 -1.0050768787568043
Ni 3.2964777456424152 9.264733599805842 2.6597073440198202 0.5101929991550245 -0.527685242402517 1.6219709162155098
Ni 7.204995163804499 8.449950080481369 2.7520559306711223 0.4436785603725585 0.1765391421427411 -1.284556820829846
Ni 2.124236944660592 7.217046564922103 3.6287146812118776 -0.3970976272892258 0.15291893162063985 1.5734452007009805
Ni 1.4001847084250445 6.982334693882614 12.906940871113655 1.5765485222166526 -0.4239039488487925 -1.0885888805385315
Ni 3.3649687995839326 5.062621183184972 2.710125906614356 1.6542688570172672 -1.4151040696235047 -0.48394357854019243
Ni 7.878601175468959 4.5227147248527695 0.20539386415843772 -1.0184985514793492 -0.38720479365554605 0.6564157497024115
Ni 3.719825855445442 8.488999570713238 5.25042664058608 0.21982726340741499 -0.9153086116527205 -0.6768971574852148
Ni 4.158212859833636 1.5421275307696487 6.196681079998643 -0.2914846798434012 -0.11719036787077881 0.9183278580950185
Ni 7.68422968690041 5.435052814815537 11.470373286996306 -0.19011919482002096 1.7290121114674286 0.021311874103898783
P 3.768252755728271 6.00150554997833 4.91637507935484 -0.3805487217916091 -0.059615654780103784 0.7858445686209111
Ni 5.432950504597622 3.9724073633372012 6.006436758331578 -0.32949895430364545 0.10076436110427163 -0.4075584176112336
P 7.591064149874953 4.230180102161792 9.499550586356225 -0.506343029281315 -0.22632238421345535 -0.04530772279786391
Ni 0.8735753622211481 3.5232321880939224 12.34302381713475 -0.5009671096813824 0.03227788619709925 1.1954817231380441
P 4.572958094929146 5.471133252897545 8.80123228690654 -0.7104906771699441 -0.3224183933077802 0.46365834592859506
P 0.012966090475573731 6.736705562764133 3.223786681594495 0.5094322097296 0.18337570544860032 -0.15457189384303058
P 5.174827380736712 1.2647977745231465 8.330217059109966 1.201143549409512 0.02939593666361389 -1.150498730669451
Ni 5.720745708639441 4.225293152971027 11.0709915136775 -0.8212376034082244 1.5256262814454886 -1.24817905353176
