# total energy = -340861.6468889305 ev
CRYSTAL
PRIMVEC
9.35797519847718 0.00000000000000 0.00000000000000

0.00000000000000 9.35797519847718 0.00000000000000

0.00000000000000 0.00000000000000 13.69634262159950

PRIMCOORD
 96 1
Ni 1.855115614806216 4.5031792449908625 12.949658510249892 0.8208745636418509 -1.1721690165540328 -0.4930056887424606
Ni 5.037098511143177 0.11573382056282769 5.764365707078207 -1.455361888702287 0.22276397743823573 -0.18537756636997751
Ni 7.5402351818168105 0.7651230123817206 9.998658511931293 -0.5982617670694987 -0.14784511664215827 0.2787440923482812
Ni 1.0468860261804498 1.9310555822906792 7.044193255453789 0.55402825117242 0.13379300942446634 -0.8193085047063114
Ni 6.747315240363513 7.668617241449509 9.477526918677007 0.40894244244295375 -0.08510402885919537 -0.07251410800932673
Ni 1.0539419393638492 2.3545320269702112 9.390307783871656 0.726352326792549 0.9526060625515981 0.7812623485668674
Ni 4.533339998558629 3.679190826390502 3.9194961391479906 -0.13910979365168946 -0.26060393110414476 -0.5044959487702473
Ni 9.111888374556253 3.520573149389683 1.2964220455216322 -0.8049347524831427 0.36168865166231257 0.12364666501908382
Ni 3.662917307788471 2.3718349228271145 0.17234956958081915 0.8520718151802615 -2.044904530731233 0.529628739282133
Ni 3.1784736556953503 3.888247988880077 9.573141092894598 0.02463451071922854 0.5348347089631047 0.4876567657257214
Ni 0.5868723037379683 5.070824653202821 8.368889486774258 0.14160376371813677 -1.1801823737768127 -0.11868417880748593
Ni 1.931879084094577 6.153879252929475 0.8110032924288957 2.3940305152371866 0.4791744392863232 -1.3585585691282924
Ni 8.316423063890907 7.029982234551521 3.454737923358051 0.2568660613282673 -0.23745757489466846 -0.21524812867716478
Ni 5.96941484885631 1.3748269036327625 7.490337523083119 0.3064371873881755 -0.14343516049992072 1.2038195535797784
Ni 5.051565940561659 5.968497767301969 8.275480987274607 0.33737450039698025 -1.960496756608114 -2.2483566952147345
Ni 1.5265571110009797 6.859367633543914 7.227574006016824 -0.5710983192808293 1.7527994436950136 -0.05098163325418961
Ni 2.456178351901355 6.591373944225362 9.686916289280656 -0.3989843027889774 -0.12241202128103433 0.188875552220907
Ni 0.5420878425684805 0.7772874441418012 0.8215328859487375 0.3329470607532459 0.7358106439919715 -0.3548757425055372
Ni 5.6932890792242645 4.166993991524525 10.004082394266966 -0.459157629844764 -0.8938879798850993 -1.1352742004102125
Ni 4.114654837101777 8.624749625650376 3.6972180295158337 0.6973821648124441 0.05291176039736694 -0.7115044631464391
Ni 7.340030663719139 2.8745921320819225 8.684960708680386 -0.6058022984209179 1.3820823632818455 -0.9413235476592432
Ni 6.787077276326727 5.201630428371991 4.872556300141815 0.8211553281070632 -0.3745873620018516 0.6684544260345003
Ni 4.718206795558698 8.967607115323297 12.673828452629246 0.6073513880755927 1.4390744643961733 1.026646120287148
Ni 5.265554755899578 6.868379363511571 5.4177388250574445 2.0255366677275823 0.0386022857532303 -0.2561543799732234
P 3.7022675928497364 5.371917500253048 11.42737892964166 -0.877321847996302 -0.43885259973882484 0.3162606012365005
P 6.409323897713626 0.9623835115304561 0.07353028891055667 -0.5253607080343985 0.4648986460935993 -0.017659879173608294
P 8.057909003292227 5.096512294699414 2.7235721950195675 -0.6587328278713622 -1.517271224612574 -0.29676212619225667
P 6.063649657552372 7.6346571500137586 2.88197089540435 0.8269004581209566 0.2893691761622952 1.5630569154881209
P 3.4945299048414067 8.195349582767804 0.6113892625565198 -0.4656141841033852 -0.23986772699805786 0.8173012444682957
P 8.755377599293706 2.4179510238454056 13.122575173118395 -0.09352619148461958 0.07338751175321555 0.6683924624483134
P 7.047163476732848 5.9405922857198785 0.1287638650145056 -0.5986168364160722 -0.653845417872074 0.2911229256286083
P 2.27922840178876 8.944951457741055 10.794033050238708 0.3652552859676484 -0.2767795124227427 -1.0003655893240644
Ni 4.618085820559775 6.1787059607219925 13.728940138873632 0.45683540946949064 -0.04593764307237895 0.6472163425913305
Ni 4.231330069954061 4.7476095531478775 5.8357782862362395 -1.2727451729068986 0.532339967565709 0.9787904342564498
Ni 8.590555584838516 8.846449412424795 12.949042755491977 -0.6865128261981079 0.8219400287918875 1.183069979737253
Ni 0.7089527029758377 6.5695230724969305 12.26293754858679 0.39102365318100396 1.009064916870275 0.28054977809845233
Ni 0.6675052957071458 1.698584766240275 11.605239410726066 -0.35802354410589954 1.0289230892467829 -0.11295344697129578
Ni 0.901939414921843 5.331481690086644 2.610166638647761 -1.8172932525030252 -0.08985157084650977 1.0786687932113423
Ni 1.7219797038510154 4.086955230970661 5.525994687762375 0.49251280826644217 0.8225336965118286 -0.1981847454369748
Ni 4.610356133173187 3.8322592241900533 12.620946535653928 -0.5186272459653068 1.204360513684913 -1.1277979466378254
Ni 8.838803946813604 6.422490568600951 5.785882499097557 -1.5985980458175244 -1.161250569869316 1.9364392014382779
Ni 3.0187798115644373 4.489535317376279 2.463793871992403 -0.8990535832464387 0.1601442457244855 -0.35186163826956174
Ni 8.275266689646093 1.158011979831466 6.223508202044064 -1.9012055750469643 -1.272026292463003 0.5772720521917091
Ni 1.307870592190824 0.7882680920587782 3.9248648094309035 -0.04636316064557176 1.8867636885900216 -0.1403189834684422
Ni 4.043749460191146 8.013992026409344 8.254429286614958 0.0931433542239041 -0.41529049614816865 -0.38665252069650186
Ni 6.306882144903716 8.347145295961331 0.9362738253593654 -0.39080459519166244 -0.6507765491387631 -1.1849150033657916
Ni 1.4940849375972722 9.18445947102477 8.682741932797382 -0.7651772700795467 -0.5841633799949036 0.32252509408897356
Ni 5.843877613637077 1.7764056867086415 11.718330539136383 0.2881221911290715 0.29080179484376373 0.30248694449117586
Ni 6.288053899114593 0.3114277946891479 3.723295898571774 0.5668176896276045 0.7053795811956239 -0.9536645857230994
Ni 3.066421262514949 2.022576578223895 5.680092462816798 0.2567405914939966 -0.4474683664322938 0.03168576113905511
Ni 5.033392753025637 5.803292075869965 2.7297082192561124 0.04248773685056554 -0.17649749027152828 0.011858699110798931
Ni 7.639551370961925 5.65027982592068 7.8942707726801435 -1.0882196701245712 -0.10742223274042144 -2.497120182040525
Ni 9.346408587141358 6.943383533491605 9.828550177373582 -0.5678528157603382 -1.042379986082637 -0.8386115759102977
Ni 7.7857135831787865 3.098238377665555 10.948513566472444 0.38468048457179554 -0.24245142856483407 0.21902173678698406
Ni 2.8807403216860252 0.6189579927723464 2.0417959873698703 0.6470944723014855 -0.5088876500800398 -0.9412520709913597
Ni 3.1039654583926644 7.406462928558598 12.243269892436192 -1.2538550208706147 -1.0158420876931085 -0.8095542535330251
P 5.909495734647682 4.143664559739095 6.904051964380428 2.3245248550368807 -0.019541412467037313 0.4050762746193281
P 1.3038466629217769 3.2083723859618765 3.450888988222332 0.4618074087627853 -0.020504033490622756 -1.3071866424142198
P 6.112966186035813 8.309030263605912 7.075530306484624 0.7430745246432364 -1.0331288997980144 2.029364526114105
P 9.16019424173491 3.8749035164669112 6.643616711505154 -0.6990965764003896 1.6402483743684588 1.2349201316393248
P 4.836893993045506 2.1798186328932023 9.573071843879273 0.16040289870251084 1.050379716458662 -0.6413092330782763
P 6.427768466525934 8.732244684984204 11.429145715330023 1.4908348847979163 -0.40986084049216503 -0.9545883830889496
P 2.7974449858167456 3.199894060571744 7.486954615104606 -0.25006857879045963 -1.1360157065619274 0.6271673943602554
P 4.757847177846337 3.9641318085142743 1.3098385743426395 0.38044716321673827 0.0881153048816934 -0.5242944715534132
Ni 1.2741912400064024 6.431258991217455 4.654660530222902 0.5552837208460759 0.06596627958847993 -0.20352184137917204
Ni 0.12464542019751088 8.90653697018422 10.843326183784539 0.010657993934478418 -0.05190363084782673 -0.025842929205032908
Ni 0.33096069599910716 8.60582780011081 5.455225937287389 1.1920793823247147 0.11271279171539944 0.5133382296522256
Ni 8.282949587157459 8.260892839978053 7.778207551395756 0.4393578215100175 0.5986965406140721 -0.7319370199691781
Ni 5.179554965242497 1.9121992625764224 2.149572721752533 -0.7278790478497206 0.32365329415614585 -0.8574775595768652
Ni 0.7615108340146224 4.649575406583831 10.758627151658615 1.0069260161504014 -0.14551364029550423 -1.6092236438521708
Ni 2.1582485004161 0.3910913004437362 12.751801908090835 0.6592177379275809 -1.1467068677271866 1.757676569281657
Ni 9.13684609399939 2.790510726308922 4.917151730215408 -0.5610897860048917 -0.5934633172395908 -2.2994090338058593
Ni 8.397556707524954 8.918140859239147 1.992996019108875 -0.1914685097590638 -1.4383980071544389 -0.16680905933917078
Ni 6.587350014956315 3.3335259442042924 13.72181778406742 1.2801082981401888 -0.0784916657490003 -0.0009302251237532366
Ni 7.447282415701817 1.673243369820321 1.8423223271231588 1.1152000553681567 0.230226604363868 -0.12665177039399478
Ni 7.729051044285573 6.911482196565599 12.07168206202398 0.8006530943886534 1.1914628317866383 -1.2353579905076917
Ni 1.9435671949249027 8.067182756561124 3.110932470813143 -0.9171158400647883 -1.2745333751555727 -1.1944743649194525
Ni 3.239562516784515 2.0251313054109876 11.606033902807326 0.022888474562399293 0.7935974730934526 -1.33589146654808
Ni 7.343642842086237 8.16728501560996 5.233865845007078 -0.619804526237281 0.5392024990134973 0.5056496027587163
Ni 3.583870492589302 0.801711759007414 8.069378137506517 1.03086915722956 2.8607011656295445 0.30607440473211805
Ni 1.9207992416421305 2.604174727226898 1.33603061069412 -1.3206833913490739 1.1867065480485757 1.2418335709297064
Ni 6.05423553465781 2.443414073940935 5.301881479224031 0.39336181439587736 0.0010850055340626476 1.8879453676029485
Ni 3.2665602747873095 7.596560833608429 5.639236479570906 -2.516108035996938 1.5973484896811394 1.5079142088777062
Ni 8.728538926866662 4.529493870815424 12.42091139690456 -1.149491372450859 0.9622950077045879 2.8733790182075287
Ni 4.50454550934733 0.31129023245599674 10.400481538155827 -0.7921764243762099 -2.3781302990671622 -0.8038929414821898
Ni 6.157285555845599 5.400318954512486 11.758611006917054 0.1628235923288615 -0.31744922222796296 1.182398407591525
Ni 4.794025109367586 6.781864884227054 10.291513533550026 -0.288674978308748 1.1125027110416517 1.5948419212092018
Ni 6.783830058986356 3.374345431347512 3.4347689404110273 1.6647440455169782 0.3678875813841729 -2.079297406388806
P 2.332849598792577 9.388294883439626 6.556658664203537 -1.0233337680844632 -1.0313304131366947 -0.7941443467358581
P 4.417188812308826 1.57813826944514 4.144951281307685 0.0023810986376668667 -1.7162033897385345 -1.311511752152135
P 7.8394377179080905 5.215817118539145 9.825126094304874 0.34633016692837126 -0.6034402259466446 3.101742601220729
P 0.5384588198463024 7.507856588163546 1.2379524816473657 -1.4321666815327465 1.9831348057226037 0.4685123315867866
P 8.831242702977812 1.3948997601027777 8.396940016969536 -0.4234046406148708 -2.0617195454060426 -0.2602555466257905
P 2.913062767489024 5.363691840189111 7.539439753938045 0.5758813424917695 1.1775914731211847 1.0293519492540855
P 8.485933423843287 0.5234186823551098 3.911620467350711 0.3536431556500167 0.595365162247994 1.314247663026059
P 3.276685603785238 6.087315976439397 4.153867559929891 1.0360740984692671 -0.888645243428921 -1.308540585338953
