# total energy = -340866.1523482346 ev
CRYSTAL
PRIMVEC
9.31075862197589 0.00000000000000 0.00000000000000

0.00000000000000 9.31075862197589 0.00000000000000

0.00000000000000 0.00000000000000 13.62723638916599

PRIMCOORD
 96 1
Ni 7.599115357004088 0.4664839070169341 1.0505468678561403 0.20493389123535025 0.0010952899467077909 0.9647015602635515
Ni 6.678746861614242 2.2624864266489277 3.282842228413504 -1.3055164538006483 -0.5992999785260259 0.70293651897177
Ni 6.362600050678862 7.575763974237899 6.953025052923226 0.9227609541657076 0.0525291802469676 2.3294893981310074
Ni 1.0926268417045408 8.86596511510453 11.87590528234176 0.3411267683505609 0.9532308406197906 -0.4505279791942241
Ni 5.282998960365827 1.246738519354442 1.0992356182146847 -0.5007025431660861 1.6636014472721028 0.7006196979131353
Ni 2.2041172804921354 1.402870631637622 13.02983229703515 2.6862795840504377 -1.178645625417312 -1.355892078039723
Ni 5.9372007974075744 2.4544277168104016 5.812534394079074 0.5343798808138733 -0.2502976640821302 -0.9406288355850639
Ni 6.099161444623624 8.383714369341078 9.620433581281368 1.0668422328900593 -1.2013574651925312 -1.1559186161334414
Ni 0.11076823384880047 2.1943689161555326 11.311641649832817 -0.39139183515370013 -0.8531987296958532 1.7022461562274944
Ni 5.229685556171571 3.0467595624321646 10.495724969604138 -0.9694491022508659 0.4990796628506824 -0.777220574397326
Ni 7.515532676345366 0.7406354720078887 12.282078750017392 0.6229929512675916 0.04469425758358109 0.42766752965628274
Ni 6.879570615555198 3.2463170531928176 12.21326107047136 -0.4011100908827286 -1.3114713858325027 -0.9777072284946001
Ni 5.031962284870621 7.235762999567681 11.425456363921288 2.7427394668103795 -2.181728099451907 0.20104535481422153
Ni 0.5392986952637352 3.0231940322163657 9.21338862659341 2.291990372744285 -1.1618470658027344 -1.048608483490852
Ni 0.9519226565519727 8.066031283223714 2.92132502151267 -0.7854164799445571 -0.7030349922228473 0.4932049492374603
Ni 4.096352077523737 4.161266687031659 6.187609927767835 1.3290420477264144 1.1286304698414498 0.8317860683480319
Ni 5.52507868601212 0.7529722272571711 11.050189959679614 -0.37173703703725014 0.09311352942723318 0.5321044545161352
Ni 4.781242175170493 6.979689203627297 3.2006561615565876 0.8294733610544553 0.6683394977231909 1.0755680427988314
Ni 1.8982774794140809 1.6371013877177676 7.4102736184067535 -0.376429557416913 2.907874480881237 -0.16717981241502822
Ni 6.762860255517649 6.682154599290646 4.802496775082236 0.0009423093086112803 -0.5123303572130015 -1.0941897716650768
Ni 2.6337529289622323 6.038148043002079 11.437025912655447 0.5834977213864467 0.5244608219279484 0.9277982594792988
Ni 1.1290132866209144 2.615252451467648 4.793039837492278 -0.6800511297331643 -0.04090702262700697 0.5962560494933796
Ni 7.728851468433143 3.7228137500928296 9.761366811097432 -2.0078860445253546 0.2000228270869781 1.2327375221657093
Ni 3.487772958007637 9.084888983916885 1.7404433604444338 -1.5099600356631415 0.5601518475716547 -0.3756512844899918
P 8.351275686104476 2.1953093027820816 5.896955043018878 -0.09839457532051442 -1.226804701621042 0.3413093166750122
P 2.667299592481601 7.100086624101613 2.2362431222371337 1.4807435620001852 -0.8552916076691398 0.403854229286769
P 1.7709994082762033 0.6836648018046375 2.9461270204810006 0.5536209884316724 1.860915617178666 0.4701089866499452
P 6.617258611300082 6.0957164639125025 1.7743205558968969 -1.6919303761237827 0.7539659747447596 0.35862698201785337
P 7.969515958760272 7.583277756491612 8.688998318126014 0.8344057653590661 0.7303496208774002 -2.0818893354856987
P 6.286801164275536 0.10728321687536171 2.749035949694336 0.29891928174457555 -0.2154011093152613 0.39192096818429273
P 1.0682698970010525 4.851287012710379 13.105476624844409 -0.05365558054192694 1.212848496551266 0.21651028321904003
P 3.4316290831750544 7.779837182957723 12.619529507885513 -1.6949550218827196 0.5668038056705336 1.625320549414033
Ni 7.718693430714676 5.324869442143957 12.553424052342587 -0.28306843075524796 1.3859469884435744 1.3582407807775576
Ni 2.8557400373798822 7.170019732537355 4.9131225543232535 0.35099440517326 0.0879363561016679 -0.47981335842190265
Ni 2.5153852538798738 8.935916845057628 7.217338870294262 3.7655574716006894 -0.39410434898885677 1.9418452029451976
Ni 4.974254202580017 4.871109617937339 13.15498472196668 0.28976306916660416 0.9118131969049522 -1.5399085023961157
Ni 5.089921757645551 0.20871462192115825 6.673462074988209 -2.0879237146052367 1.2683023066441965 0.06702583120124586
Ni 0.18294430405024256 4.566545390798267 11.074228476436293 1.4706147010962998 -0.4695405157409849 -0.7478166673139122
Ni 4.541685665126129 5.582367784162183 9.688215904462329 -0.164488124515478 -0.13436739387069763 -0.43619562173195203
Ni 3.99090773548742 4.918343096714403 2.4465657121821045 -0.8917578209159738 -0.15106465202072047 -1.5378544480805643
Ni 8.661165667207765 2.4950412461669065 2.2486571567834495 0.07867627095598063 -1.0631753255614336 -1.2727845107852662
Ni 2.4873133164635823 4.572187710557561 4.261808914623639 -0.2024291225356256 0.9805184726911499 1.5678345393824225
Ni 2.3819248389793373 6.038408744245083 8.905181099583361 0.42181647019214447 -1.0220330469951688 -1.2049559811770665
Ni 3.1744100639171906 1.4447597349331094 10.605805138386584 -1.332742122285821 1.1340606397180857 0.6222457886889219
Ni 8.034048827162367 7.509527236997601 0.7252606162017456 -0.1687615550798513 -0.6901650782387146 -1.5063437790667928
Ni 7.89498333553725 7.8425265211414334 3.037892926942435 -1.26154724730855 0.5511198192763734 -0.12536544748240344
Ni 3.3216969554556015 8.374412921421053 10.536592682672572 -1.7053530772875922 0.7343908808263094 -0.8024965753552954
Ni 1.482896602481079 5.3329977344704655 2.1270484066050344 -1.3782488484683684 0.5998694778762508 0.8287534521692953
Ni 8.374925013148383 5.886233704400352 6.603145363294904 0.024003562003448983 0.7036726258068462 1.7674632163547757
Ni 7.843103788179514 4.105839740617336 5.053170330988973 -0.4412815208952916 -0.6270871759416233 -0.4468605576449659
Ni 1.9861710413410425 0.3128470780596467 5.188352305169202 0.4637601616137819 0.03331584054331037 -1.214244091347212
Ni 2.907880285980622 5.543206733159555 0.4341941959191901 -0.6307072891927138 0.12489082183883006 -2.3281318556618484
Ni 5.255522911504973 8.859838635893942 13.183356465812425 0.614971880735328 0.7524297406058913 -0.4764619254511665
Ni 0.2680800192565721 9.40079371512662 7.86478202761114 -0.7740686590319056 -1.045875143720089 0.5723702440147175
Ni 6.185332516195025 3.283960450530816 7.990534065401578 -1.1562554306475699 -0.178534318195899 0.1733391471482047
Ni 0.5014197357311655 6.606709521717112 12.025137191368152 -1.8374165056154614 1.089817353628994 0.22585778587221103
P 4.22187041527134 7.738450860630886 8.685168803081464 -0.299150166808459 -0.08231463903951632 -0.5583528466897029
P 7.774381078372003 7.9000483882584644 12.07378590546438 0.2780750913057146 -0.04214886545390806 1.145804153407259
P 4.053038428150408 2.133262406947201 7.155007996319681 1.23475043883068 -1.6259556118948706 -1.3733994907958669
P 8.711732397591804 8.0118240461963 5.1444045931298525 1.2324865824971678 -0.2889873673428442 0.29474972374791825
P 9.28076872499945 4.117264041516106 3.3468769712262874 0.40024337200705906 1.5583859923750127 1.4957456918359724
P 6.09552093798025 5.016580911533404 10.952563861705805 1.1827213381485824 0.520966949842077 1.109787626103334
P 2.816364838927645 4.261478382690545 10.444690839134429 -0.562362224959412 -1.204718154134648 -0.5141512124718242
P 5.046952606343334 8.016488736294331 5.207349046101361 -1.9769217349333568 -1.178175627759429 -1.2392745519532786
Ni 8.417540355620808 5.057408588339518 1.5873009327729857 0.23208808305263898 -0.4555287748429252 -1.167200359694848
Ni 6.905417281647279 9.15007360542649 5.390784958209839 1.838544191462001 1.9146871544731672 -2.204459736721468
Ni 6.304500916523752 3.6221830702934015 0.8262646574241896 0.6729607985452862 -0.07855440066613568 2.1147770873526546
Ni 7.222290331759597 1.0736422047586645 7.605687821555383 0.3634963942950127 -0.7830196975776064 -1.3780231056108074
Ni 5.5243338253178225 4.465877467964124 3.9900688361304684 0.9313890621543507 -0.3376807187834894 1.423440100293026
Ni 1.6544752634122282 3.0779133609711065 2.566540424212407 1.6709082653461609 -2.0304269059403484 -1.2778207876575927
Ni 3.5431440398698872 2.4612618136805704 4.911487585099273 -0.9400881325902456 -0.9787950622421402 -0.15263353916973713
Ni 9.164821847173556 0.7059957254196401 4.224920619814483 -1.3452433400766253 -0.33911616567843533 -0.14615384498266443
Ni 4.485634897880333 7.194516338621025 0.9304269079904499 1.3694140237855577 -1.6533653713663914 -1.1190361412847953
Ni 4.267651415694526 6.440456614750181 6.959280020603579 -0.7454381397794065 0.01566110357602464 0.18563313402420933
Ni 7.835524830615049 6.45863121569101 10.463973420358023 -0.48700036308864514 -0.6497702193614358 -0.21204967634452512
Ni 8.461459204308253 9.184374440398834 10.22038628288165 -0.7205120659616882 0.2031184352931663 -0.23242566889771585
Ni 3.543153350628566 3.189800748013087 0.7005880367790491 0.48464446126195887 -0.8651443320935036 0.03965438116682848
Ni 1.4101237126483321 7.249068073719548 6.8654424703361325 -2.4471777886841277 -2.751068041280733 -0.929611658538954
Ni 0.8817102253558693 7.403896679787709 9.731414100428042 -1.3332152052674975 1.0279905501301845 0.09452763616594043
Ni 9.26490319221094 6.029926643088784 4.50170340520804 1.38923337250433 0.06774574008640591 -1.2142456340091088
Ni 0.5386003883628324 3.8369636514937353 6.753658432715485 0.2419544343237575 -0.37484035855292214 -0.4912501395039346
Ni 0.844956005471687 2.891167474152349 0.04328385494555709 -1.090422848423477 0.8295592359000421 1.3583569946404477
Ni 6.519383916069551 5.649693880167888 8.27691065653767 0.6578087733951962 -0.20775696250644218 1.4685670745386517
Ni 4.525782889302903 0.5937982901136586 8.880420067953217 -0.43481416800339306 1.3912169785932622 -0.4485510579735114
Ni 1.076444743120954 7.611200721769045 0.3790651937825864 1.5201228351287561 -0.5753509239095962 0.9483421450689218
Ni 4.360358639858377 0.6477504123532741 3.79057931390817 1.04633665673754 -1.152642259375015 0.34325127089273144
Ni 3.3386146039748064 3.350541685842225 8.629597539907621 -0.5331550072678367 1.1782226789472807 0.3910051412382427
Ni 0.8350363231753962 0.5203503702767056 0.9483082200329002 -0.776392936289708 0.3587287977030403 1.091502454640901
P 4.8363153127550245 2.11323496502931 12.623917668450787 -0.7495914998261477 0.20154697704098834 0.7716312532350066
P 6.219437825235116 5.19148351331285 6.225739346708862 -0.8807416723111282 -1.3943624662007794 -0.15018070675387038
P 2.2994315170860236 5.144268656053144 6.759013981107476 -0.24411493231018608 1.0647030750598696 -0.4593322077494154
P 4.378421511695062 2.7824271235437705 2.9103550856374216 0.4272096161832578 0.4346177357218708 -0.9672443812900631
P 8.04665559441333 2.3826976319496698 0.15090784558855935 0.23033536202759042 -0.10770453986753063 -0.26929425978929106
P 6.933079545681708 1.672538135248913 9.542758577004284 -0.3908981833467332 0.11343758569656592 1.4711404916927826
P 1.0398162184789344 0.9282742605839336 9.826422944137269 1.3249030858573763 -0.7357993311380618 -0.20930682349206534
P 9.051621643157878 4.7770802660411125 8.498584923463715 -0.42259937110475604 2.300408421604651 -0.14006135893168137
