# total energy = -340876.0821996298 ev
CRYSTAL
PRIMVEC
9.20556038500214 0.00000000000000 0.00000000000000

0.00000000000000 9.20556038500214 0.00000000000000

0.00000000000000 0.00000000000000 13.47326813575494

PRIMCOORD
 96 1
Ni 6.70848767808539 7.034972082039839 7.775800599197651 1.4211795863936234 0.15652361825276268 -0.4372981107675114
Ni 0.6744103991142959 2.285897133501289 4.723875647591589 -2.151145341569044 -1.4137485840368749 0.40704856785435056
Ni 5.5870571086911855 4.723667601927309 7.694421604446674 -0.4521567730468987 0.05583613313301352 -0.32135241393711106
Ni 6.306655762532026 8.152932155175913 12.859533568739966 0.02010345561809441 1.1872770758400648 -0.7373628189704398
Ni 3.1864494874642904 4.686228587917193 6.966285713922043 1.1051863798858967 -1.3623337199000085 -0.30576535813213146
Ni 1.4324588374934804 5.17823817281973 2.534982106451152 -0.6603348822511595 0.1666427089646356 0.060838728553927475
Ni 0.8989211286660767 7.8043359952213915 2.498186561110648 -1.0355624489401714 0.3523804868875092 -0.030856066148908148
Ni 7.235644092466812 0.9797569953554355 5.6513487422900655 1.1351682709599675 0.2995044648240842 1.3643543498744632
Ni 4.205053947565899 2.0407438553839112 8.21461125074281 -1.5642529926787512 -0.8828533193374924 -0.625077344600446
Ni 8.02757083410639 0.012858326719775933 2.2571767057141834 0.7341044599341421 -0.114105558297868 -0.2531911835798414
Ni -0.006076590397855164 6.397321326580618 8.786187255560181 0.7475610996596803 1.1311516936014068 0.05208772183417481
Ni 7.278109342436976 6.101390177482224 13.241797224622493 -0.29286639068227627 -1.0794527225652184 0.4029651418135963
Ni 5.970256970062974 9.586762621163984 7.9575413747311385 -0.6441114784137617 -1.232553174069045 0.051548818611569285
Ni 4.79961347495004 6.862119275040101 9.057162130505288 -0.5370682262793137 -1.3255134657478655 0.18112727573405582
Ni 0.4073709012258222 6.366105271378183 4.961045863759232 0.5737421846615797 -0.08151579728730478 -1.1921259192919342
Ni 0.9667311274369913 4.41170036667066 12.588829337269633 0.3780696641234973 0.8466681276661869 -0.722005362677763
Ni 2.6547179095807727 6.590509216429714 8.160866427655705 -1.7051229635546572 0.487835971616063 -0.8633998385985711
Ni 2.7543312783054974 3.109104369265867 2.4797551881450586 -0.7861212193210655 2.46147620758467 -2.757541821930535
Ni 3.4624598039298125 8.477916052790638 2.2172015598231276 0.48075978149557197 -1.837691613653719 1.3400160302394148
Ni 6.3465434555996 1.705155152227102 11.793703663402733 -0.44872126500278847 -2.207998860222978 -0.29447435859934445
Ni 6.786136579775904 6.110466860003486 4.919561926524124 0.12930977684213216 -0.5689913002401555 0.10324187611048671
Ni 4.664485054331776 7.022480136622645 3.9671500482370545 -0.2535195134535376 0.18117252714969442 -0.096162343555886
Ni 8.483835228106228 7.996023378730766 11.715074369533198 0.035900570551351076 0.6626357624701943 0.5435854585725413
Ni 8.73742079951922 1.1634263357856827 11.830068388518091 1.567313633881946 0.06074925416391474 -0.33665202040865894
P 7.390039750931933 1.8704962219678634 7.608461922857382 0.8597411588000613 1.8097362660913734 -0.17137559566393065
P 1.3099788568186388 8.260388661332803 6.927240329627993 -0.23300725243279868 0.2246215994722648 0.16912870861128293
P 8.248126854924768 5.805679961832623 6.612868602003643 -0.2626762402521412 0.13911262186516687 0.17306172511710194
P 7.597496259348937 0.5919396249038659 -0.019108902208555902 0.08240848430490325 -0.8966933105443783 0.6246027189568727
P 0.25600018989709683 2.7288042594094932 2.6878496418954527 0.0030691258436269723 1.42718285516491 -1.852655691162719
P 6.604105829090875 4.060664733219045 0.7113062850627939 -1.9759141196044487 1.613809206340324 -0.4271466241558063
P 1.9341434663410955 3.765258301061535 5.4086008770964265 1.0907817744247925 1.2305595406777838 0.27085543362882386
P 4.542262829347193 7.57003607277599 0.3855850220627196 -0.8382202540091499 0.0661197744472087 0.5829243653814798
Ni 6.190960279847215 2.7221670503853246 9.256202915635335 0.915875539899784 0.598482367720737 -0.0503555696344165
Ni 3.968019973691679 3.6778975331844777 9.907136374147223 -0.40443452727027124 -0.24367193123549646 0.10763383453059526
Ni 3.678882528143682 5.926852752935437 1.9752619428296574 -1.8070291515728558 0.010200594682085657 0.7758964562692637
Ni 1.369225843336736 2.521145228664429 10.92465089590145 0.43742666592557566 0.6591568027826583 -0.9778604662430126
Ni 5.9389948870587075 0.15870938405281282 1.4000073960898762 -1.945611611966165 -0.14397972014948107 0.5663098967532505
Ni 7.441682944587391 2.387139886410865 3.866760650773443 0.9424280935773317 0.6293268639054194 -0.944582163805857
Ni 7.790085787774217 3.3621284014965096 12.277987021489757 1.7927561865936092 1.1051259589616065 0.5102703893601792
Ni 2.590665620551419 6.773727484402008 5.7856099991218155 0.9172181699706075 0.27710218586948404 -0.868842349770381
Ni 3.503074736266333 8.34024689751125 12.003630944222076 -0.3738312005621175 -0.3049490328784232 0.03438284835524401
Ni 5.740007494178784 0.8583853641487074 3.851522686698955 -1.4841129926930503 -0.2644279328359252 -0.6216302665921101
Ni 3.4826660089340424 0.5780337054143946 0.49402284095466725 -0.7649600118624181 1.210728621994786 -2.419774199860194
Ni 0.8383117192137537 4.763076605855831 7.188945205284143 1.1330748787660485 2.172337659375943 -0.7811469060349256
Ni 0.7376765332883596 -0.30531897956004045 0.32926264207302525 -0.4571264583473482 0.6531985283166944 -0.8030897288546041
Ni 4.72029836683321 5.341627663762817 0.1265847400422157 0.2796136394374281 -1.780496652499966 0.19620371045120402
Ni 1.7729172820841113 4.822875925995911 9.56414732101187 -0.947627121279768 0.40993797358700373 0.9898245805834243
Ni 7.547933522336283 2.304980260140819 1.3365737207171442 0.6054711403337443 -1.10364140399628 0.663880690620889
Ni 1.7215686663603784 0.9910153956835326 2.2271711816999296 -1.1611076165335488 -0.348361081315471 1.068232428369367
Ni 8.438755598992008 8.007281779058863 6.1000627356773895 -0.34908176153157944 -0.15277494984360787 -1.8919606594099283
Ni 2.2361042574794765 9.080871051228929 4.55877484297639 -1.047630178737983 -1.8165046951634587 0.6753902339223852
Ni 3.8357268656662638 4.753834223247974 4.1512888722459875 -0.7773848678893321 -1.0129845636396555 0.7952409222341466
Ni 3.454266855203724 2.653502775612409 12.314324129924014 -0.6354802851013248 -0.16811903639984596 -0.22044612793833648
Ni 2.3003866855179895 1.6805118671262713 6.526154985020343 0.9200710660383703 0.002837469448795113 0.20729082150330105
Ni 7.497183268036366 6.120924376579707 10.768280644737738 -0.17455527894349293 -1.699566809623118 -0.823468292510956
Ni 8.68022665296283 4.390177766534036 0.9687388601529012 0.862437731795618 1.1474265195020303 1.062741066237492
P 5.956126434900562 3.9464329346324902 4.482960609466898 0.745345322955284 1.0084378248092374 0.569205987354123
P 6.6909694967081474 8.022627448189638 3.492634710254808 -0.48980929329235 -1.1706366390699063 -0.33509007523817774
P 2.787277978856813 6.947694164206078 10.173583954504137 2.0442938937304276 -0.33231765469936314 0.3059317085066667
P 2.4945963925677552 6.974417905949714 3.4842677764377945 0.36746952001014777 -1.2481196610487344 1.7765271263292564
P 9.090757823062434 0.1730240304225519 4.089016018035458 0.7653474771088238 -0.41941377428792287 1.3446165051259036
P 8.9903527761462 4.081064254990969 10.567501849810515 -0.2896175447276754 0.32186843434158113 -0.5650174031940721
P 2.2147933852312796 3.038221554444651 8.570615125124167 0.5217809611029401 -1.1880196104330445 -0.6026328995540008
P 1.8467550817829392 0.7968563192157819 12.122518915241951 0.5553888789653726 -0.46471146978345773 0.581718775109153
Ni 3.296106122548748 5.192589641430935 11.500660298591276 -0.8951326509254777 -0.09525037326457789 1.1278617099962254
Ni 3.815410193937637 8.999466280908928 9.720006663575248 0.13055419077219452 0.30492769272218456 -0.66589026485175
Ni 8.566989054895846 9.224063542728153 7.920031477906202 -0.1606021591975105 0.4230403152969166 1.1247632735765598
Ni 2.26867353005577 6.980843387085455 0.32709197093863007 0.41864784265617583 -0.364288808289321 0.36002643346854124
Ni 2.9395011250754663 1.9621559865360254 4.280039680642416 2.260772038159952 0.40404166270722675 1.8926522861603146
Ni 0.8696511289250977 2.3804658551452307 0.4232670628665074 0.2468716691197168 -0.2754471667645643 -0.1590579546388422
Ni 5.20069053455336 2.2790021687868616 0.4309684346690307 0.20902914435064646 0.7477930131648283 -0.2569848462943187
Ni 8.055123076283001 6.265065040796668 2.6955160325685843 0.541585654533693 1.0297612688773619 -0.39649881736296233
Ni 8.733048158345186 4.459044563635012 4.02690426113134 0.41422245989497053 -0.9324038765721102 -0.6746605548452123
Ni 1.3995029313817982 0.9338764824893392 8.640352768235804 1.3609836336300174 0.31096952804089023 -0.10215841323832084
Ni 7.626355691097575 3.702034512465157 6.063320582587011 -0.8425026834345878 -0.1930857336475126 0.35672616545071467
Ni 0.38892387880760987 2.6971923651113037 7.387716267495455 -2.130293952041331 -1.9163133772226804 -0.2815432523599732
Ni 5.562110040098265 3.862662335298326 11.877507402754215 -0.567346565547881 1.1766388793999283 -0.3340842596814827
Ni 1.475264693197202 8.624726329513853 10.286610745238733 -1.4559972082934407 0.9183741379519216 0.6706452630382321
Ni 5.243496390257081 3.0911351154306703 2.682271992869456 0.7346281936480961 0.6792489455468431 -0.25377405266650493
Ni 6.011148069210486 8.212667036393428 10.394680341716024 1.3052485448512425 1.5972261051706622 0.19859175106740637
Ni 8.521798959057227 1.9668784390039844 9.528739974174618 -0.04693137444421595 0.7423649001707215 0.6476403175026265
Ni 5.174095670654854 6.475007050512597 11.765558583138526 0.6209337547457177 0.15653853065109816 -1.9937704310595792
Ni 5.7897083145969335 8.367329656109174 5.47130547208814 0.13634611486362325 -0.8077213140893444 1.9709508620619023
Ni 3.4053024796148867 8.726364921519185 7.31983814757783 0.5390670018768975 -0.3161338458506491 0.17306789576468903
Ni 7.876562821856101 4.536813137610289 8.457870945092822 -0.15967527650786695 -1.0989177732683653 1.1342581004408725
Ni 1.376986130725604 6.765341218908225 11.635622098566907 -1.4217177182852805 -1.3703671317274464 0.846098371205646
Ni 4.868949755629702 2.894752896134436 6.096572907742491 0.40319242733305405 -0.224288127392246 -1.0511361350087123
Ni 5.820942780920101 5.569262760502951 2.3758897710870976 1.8103134787510824 -0.8756151497178403 0.3270540923075787
P 4.749673309962365 1.6047961331126996 10.372584235168574 -0.7129188269954626 -0.4462080116626315 0.6522436206025928
P 4.797671101712732 6.597615909032569 6.7082860763133665 -1.0905953694455992 0.12354716332674207 -0.1341413939028206
P 0.08924238441594774 6.706167876873059 0.01963822192962342 0.12411589134601853 -0.5323929322908315 0.6163353367417579
P 2.6562184159204945 4.241636844461939 0.5212243512813182 0.31394480861913027 0.3391485615782675 0.08437614955423534
P 5.821218947731092 4.867753032782072 9.889216830338004 0.5246446558039803 0.994284673237307 0.05852704970161533
P 4.033084874361335 1.3359661537329626 2.5135055341163604 0.19121936986273522 -0.5126867121111558 -1.1640895819800081
P 8.004860716682503 7.965746290685703 9.558973796085958 -0.4832401247152645 0.6764287024892286 0.814330591875746
P 4.276857318423754 0.7188695734598214 5.852235242273576 0.46043572522623927 1.435771111054553 -0.8167042343142451
