# total energy = -340892.08334288216 ev
CRYSTAL
PRIMVEC
9.07231670095371 0.00000000000000 0.00000000000000

0.00000000000000 9.07231670095371 0.00000000000000

0.00000000000000 0.00000000000000 13.27825253567513

PRIMCOORD
 96 1
Ni 6.53175957991341 1.9171801139865794 11.387973851066164 -0.676501464708693 -0.15678227123078806 0.3384273671415268
Ni 4.456730227308738 0.47822177342862254 5.919125990882154 0.2141744359970118 -1.0117787162570122 0.11349697817959163
Ni 2.6784744992615144 1.641780867622374 4.719648687560701 0.7367336700268732 -0.8255408587692686 0.7432789273445586
Ni 3.6484503137388953 4.110276596390427 4.864926416899347 -0.7079398857236324 1.6504145162681836 0.35456463902302165
Ni 4.914900366321951 4.6436290240655245 2.6236096638949467 0.22211451677969488 0.5360955779533993 0.39345848787474175
Ni 7.417480789008514 6.347673201339946 2.700623653302678 -0.5529409316455123 -0.9241385512395245 -0.4448923781750015
Ni 5.072513724705313 4.212585112046282 11.834415299023254 -0.3180966260039747 -0.1412360959660729 -0.8603366262922152
Ni 5.357157661807598 7.653896290425197 12.53520186793154 1.7057246016943979 1.4272628164732257 -0.7612159714389535
Ni 1.792907519550656 6.249347432724342 0.4097947317967415 1.0208804214479645 0.6347367220670811 -1.2602367560272425
Ni 2.53841607373211 1.6219760002217591 0.3420227114320726 0.8787467533682867 -0.6330688474463548 0.6086227985888486
Ni 0.41469559728909694 0.1468780860081228 4.779971428666256 0.26247389443334795 0.39772960444626987 -0.26451689300530573
Ni 8.653701882279226 2.0275992807904646 1.2553627743190654 0.38678210429583065 1.302578454218247 0.7748777851967623
Ni 6.944894738726599 0.9184813447724387 4.9481141178353045 -0.6352267743296222 -0.5728944919493036 -1.3548556663554085
Ni 0.6818190763409612 7.449424416181013 2.221040125134325 0.6378423575755983 -0.40972868578967503 1.151190871640469
Ni 7.885058920460773 4.098654958671605 3.9882956691580738 -0.23191941868525864 -1.040076534760441 -1.3259796067510066
Ni 7.4519102309624 3.92035671816575 12.817776409589902 0.8803338953497484 -0.8494197222693951 0.9088888241693055
Ni 7.869762994470194 8.915683172213972 6.898410909546329 0.12405958418678635 -0.17765345825284243 0.7328801006087378
Ni 6.871835372177286 0.6573501309143931 0.11546337490042304 -0.5881035955895743 -1.0838145990783399 0.9308699564260872
Ni 1.7679767932030201 6.633859432284696 9.180610243387829 0.2569727621094607 -0.9767006416069565 -0.21245488220274378
Ni 0.1958087190078825 4.946417594608591 1.53584251804669 -0.8976250783300284 -1.4251012900455327 0.022771232258244654
Ni 6.241173275359269 2.023344364248601 6.947048506716021 0.9763964801029765 0.8220305316231649 0.7025343984373449
Ni 3.590841102564409 4.328665404483692 0.48874838251929276 -1.2183239178435403 0.5124103185213176 0.07818699002438793
Ni 6.055208927224683 5.761138853049912 4.707020929917588 -0.6502422739018479 0.049064104516502595 0.3460928541065846
Ni 5.200759993864768 2.805368993229631 9.418383870617555 0.4262896754721497 -0.22023709725132393 -0.023096476808147318
P 0.04474466606497103 5.480232710436429 12.32073139342981 0.6187385468666118 -1.3080559323930505 1.1590710457194942
P 4.011832887657458 6.038633804576528 12.550683776414887 -1.6934470698786255 -0.021083560143176593 -0.10655371409253908
P 2.328809268224184 8.629769110770832 1.4368798727973153 -0.05127448190426008 0.2062904052632447 -0.34141756011810237
P 6.186421843951706 7.911423072850232 5.977417440274014 0.3832059569087981 -0.07256912961697824 -0.9333772962289731
P 4.693726356995526 1.0577504787471692 12.575699782539695 0.7084600198931604 0.7006266398916708 0.9889897433869549
P 4.059680286040803 6.149225345398101 8.33203744956771 -0.6642077349430044 0.7643892269606126 -0.4223178353085953
P 4.841995229156885 1.2088862029921716 3.7822443045728695 0.2784885246940494 -1.244762057430411 0.9033840923009927
P 0.2857906779357418 5.593500584690518 3.5943702337686414 1.4008033367301167 1.6111709973865285 1.495101116273438
Ni 1.406916732364878 1.3137349673297365 2.7654353767214834 -0.22978463173044295 -0.7628612203518603 -1.2437953226417675
Ni 2.0503980127088086 6.294636437792536 5.043757202396688 0.307408035941877 0.7520301911746273 -1.0663426675458214
Ni 6.028926425685709 5.477656172487838 9.389583801188673 -0.4395072026036882 1.0242223413370037 0.7234228118505799
Ni 8.617693857215992 2.210007280770657 10.139366323777102 0.3607746244884754 0.8710856372786031 -0.07825075338278781
Ni 2.383433687197661 5.141808079815664 7.178780878241637 0.08872671321344719 0.2819237756278435 -0.0077449340527415
Ni 0.8112320454306581 -0.08191394766841514 8.692807196270802 -1.5549137175556962 -0.7248168639846291 0.8160617156342397
Ni 1.4850293793274492 1.0903200957733747 11.39436076203732 -1.4019839873017792 0.07931339031934727 0.803391576365739
Ni 4.057140037359093 7.087257532702983 1.5531171163139876 -0.0984007459681015 0.19148136527487022 0.16171853219014082
Ni 5.655373784723587 7.892044604335475 8.21299776741611 -0.38538676661020077 -1.272590649606905 -0.3412121289755156
Ni 5.582087610256265 3.078745112965189 4.5938374282089995 1.2907002147234223 -0.24740877257010938 0.3003832678846117
Ni 0.6472254254544362 7.476586932441865 6.704614430387029 0.20925797253200087 -0.6673622214115861 0.6931619560835095
Ni 5.3264115804421905 4.705710887383163 7.392693405265061 -0.6961398077649108 -1.5532170465795638 -1.8342797597586926
Ni 7.979701328487898 7.15810325397252 9.018549635348132 1.0928869936932533 0.5035284426506554 -0.6391808738813637
Ni 4.491159669262624 0.2150483810768168 10.598489056045956 0.18665283353797535 -0.13784326823444001 -0.7197795586710378
Ni 8.09583605482563 7.41319865551649 4.730045562522269 -0.49518495578196653 -0.5432586713607418 0.29220895960393545
Ni 7.190573075514801 6.075240602543308 6.874456364477807 0.9528482604693913 1.0276501360716304 0.5989950456910974
Ni 2.3693353070141727 5.544963690236423 2.7271937472816887 0.4286903144938424 -0.3616143467809514 -0.4822795605742081
Ni 2.228478517613374 5.064294205756639 11.428154234589107 0.39467667655255895 -0.31045402185705245 -0.09358506974701303
Ni 1.5106133124789531 3.4659969521751015 3.8587529659392756 -1.8388275270303749 1.123328340902246 -0.017907219297724
Ni 3.638262102061896 2.548032729455725 2.663311936326724 0.8942227375166988 0.376421586997113 0.04148294973513501
Ni 0.9196335289959284 3.1542721496624484 8.07323056325343 0.24103603627454617 0.9673305132459663 0.5000610529273452
Ni 3.8686717298096798 2.6092708673183673 7.1736287095761275 0.2969235914707854 0.5291541136385596 0.28702715829267983
Ni 4.201961429166703 6.925715861179691 6.137447663831688 0.041787882570063516 0.09971637945573149 0.3245161563770733
Ni 0.8456197547276302 7.1395412939625995 11.324437695378245 -0.5085752610459434 0.9824213461408177 0.4978573604078071
P 0.19969348502755413 5.693550093482995 8.037179898301611 0.11535665709614971 -0.7861168484456913 -0.7933568178375563
P 8.482960881601457 1.5266803853907667 8.052676322491712 -0.49826076649381285 0.41838276192024715 -0.21451510716588218
P 1.7005059737534682 3.1867601158381706 10.279518194168727 -0.5581556430772323 0.347559411349782 -0.3874480200146037
P 4.080809711682595 6.423953240324997 3.915517544427093 -0.22159978192680546 -1.197002787768261 -0.7835454881740893
P 6.8618376791514155 3.875221942481802 10.592672793796515 0.623567849934455 -0.14718048647496587 -1.1725695944265613
P 6.643494232641752 7.692843746105838 10.505859795099086 -1.9381279019946107 1.2610610517007508 0.4172561045149717
P 2.257927257687765 8.488395199316972 5.667157816911704 1.121994452582171 0.2048986671220407 0.5484492144227459
P 6.918512441703701 4.150176645326709 1.8085509152716273 0.02397270876551355 0.2303955258415645 -0.4814467802602676
Ni 5.266797387272498 2.8573080064538723 0.673614980330711 0.14071210514180282 -0.6077869329511146 -1.5875500155334787
Ni 1.7436085504920484 1.165538673702141 6.978318967987866 0.17570584760816838 -0.6424911692015193 -1.1133578599530953
Ni 6.592271932438421 0.6820322757838904 9.216182797248484 1.6148990969703931 0.4899249929346079 0.3487840277855025
Ni 2.5896837355190425 1.4289352450452684 9.25170182444049 0.7915223357319788 0.564397510221886 -0.45281240435302667
Ni 6.464914750317565 2.047404148191079 2.3552831956459586 1.41211516219851 0.01819903950652995 2.2911853603444863
Ni 4.007632405015917 6.831899033974122 10.40696337776177 0.15066227437597923 0.11976095681143246 0.5309744546767501
Ni 8.200857193180884 6.914466188446406 0.4551681094104356 -0.2881360750861425 0.6448614692059087 -1.0625631458987312
Ni 7.645631409892921 4.007505392581831 8.353361930018993 -0.3775888678323368 -0.7676509284310199 -0.8612961619920071
Ni 3.168869507265558 8.506240446305982 12.641878704088263 -1.2034115195080823 -0.5176823655535342 -0.30861131222135885
Ni 9.171295695811004 4.726214323171249 10.033220218148521 0.09145233967472637 0.583012554219912 1.1911152186392326
Ni 8.853728321330419 2.304994436833156 5.836150582157454 -0.34197111862872714 1.0193994660270638 0.25246896070183616
Ni 3.3552693266027225 2.4290583679845104 11.345111690720675 2.0565940512540193 1.2216943769776702 0.8863605611598026
Ni 1.0696442859676025 3.4072537014105664 13.002529603442316 -0.723928804952721 0.6570132740770943 -1.4244153197221017
Ni 3.1977285467531233 8.319250926381992 8.179430195550662 0.10291714578121629 -0.22721584256200222 -0.6141930935877745
Ni 5.739673751689466 8.160639613159388 3.640405890502924 -0.41620915130769615 -0.25278134973593236 -0.03648292541738233
Ni 3.0096231318725257 8.447424617007684 3.5412037360921307 0.3867414808658824 -0.2948515394331051 0.17407705375549376
Ni 3.4462555909915293 4.266238793130677 9.187395429063011 -0.7351866372547273 -0.053054199512502176 0.8933832723345387
Ni 7.071217676741331 5.887452718747924 11.53748653784989 0.49282751129338354 0.3781205719660907 0.3562402269532316
Ni 0.4739069795964043 9.024705202242917 0.14641902678207097 0.4237987907294959 -0.5536752387083754 -0.03270571776313722
Ni 4.812011222395991 0.5189138356145946 1.6430246822447396 -0.6943716601208945 -1.057893508337204 -0.7004592610758711
Ni 5.841655663943387 5.697296960288517 0.5242855543447386 0.8026914649749208 -0.6119366934534299 0.5000674806852484
Ni 8.39124883187502 8.99206300668295 10.930192914440255 -0.5527043901546739 0.04064631276645258 0.3639239687507345
Ni 0.2585365312760136 5.008880495228487 5.918675096741151 -0.7344595292807157 -1.046063605581811 -0.187343946067729
Ni 8.116611660115327 8.99027576028903 2.3574877686090137 -1.3116328511110313 0.1737960321799652 0.5087367263244722
P 8.434668939698813 1.8429141293134543 3.5469664716729237 0.6543866350875246 -0.3449242877197802 0.6676131610801276
P 2.051649992416223 3.3551876757522394 1.6339550872193642 -2.105897525474838 0.7027316020498156 0.3721072758924753
P 4.62245423684013 0.8962786640626245 8.340057377548538 0.3685180158793202 0.6207005556889891 -0.697829793872824
P 8.537902831660148 1.7488160602895533 12.483389867141383 0.18787359331895387 -0.5727728787697748 -1.8217664577830304
P 6.306938499265388 7.766910139811115 1.3664786950470769 0.06986535753256999 0.6234626918151585 0.17407988196897115
P 2.108733009220926 3.215991120311272 6.154257759482902 -1.4476305814963004 0.3572578695844686 -0.7678059659516454
P 7.103288316347915 4.07490363349762 5.992834028076975 -0.7749019535664784 -0.7084206820147929 0.7844597724582426
P 2.2512591048982773 8.486172481720477 10.293739957859612 0.7447400852711175 -0.03611371500342167 0.28942445488026286
