# total energy = -340868.9321421197 ev
CRYSTAL
PRIMVEC
9.21622429480455 0.00000000000000 0.00000000000000
0.00000000000000 9.21622429480455 0.00000000000000
0.00000000000000 0.00000000000000 13.48887584567283
PRIMCOORD
 96 1
Ni 8.943792753841628 3.0438147659134134 7.832369551876202 1.4536235658549417 1.3933746483662133 -3.843914668654354
Ni 0.8806471011093762 4.061285933656 10.926380483687351 1.784859557454352 0.14043339755911943 0.8589741987270496
Ni 6.379166356547853 3.528062841698728 4.262929549355943 0.2321402764468131 1.8976538531399643 -1.153128454982814
Ni 6.239485260367539 1.8375584586777187 5.636704558407517 -1.4362377662783266 -2.075187240875174 1.6067219604762393
Ni 0.30568925882596704 0.18648292665160368 12.968070017015862 0.23094085682207324 0.694210709062998 -0.48745390568629593
Ni 0.2937874267061955 6.419800689687138 3.2775004287953364 0.5573323758449885 -0.040457336684098066 -0.7795229972782575
Ni 6.745861490806386 3.783591877901907 6.860604405530227 -0.3920124994568345 1.3794428687764693 0.402652495669184
Ni 3.397044996403179 5.615086060960291 11.40450714326239 -0.2500644650254016 -0.3447119145986579 0.636363973257859
Ni 3.9989750408561124 5.251137361556715 0.2968508996786378 2.006748845597118 -1.0013842603965657 1.0291418901258083
Ni 3.9677596889979223 8.82396340490151 1.8412182213653145 -0.03926897280295172 0.19981405351028167 -0.5615991215411424
Ni 2.980619115576358 3.5486426706622174 3.6189034785825287 0.1463245662325738 0.09804207707710211 0.7898223223217365
Ni 1.0467050313664952 3.991030655470296 5.963216032897259 -1.300021235014032 -0.028333556837370554 -0.7450265061632846
Ni 0.16903661396558267 7.252744613584235 0.5488584165594034 1.4274029415955158 -3.214976298436605 0.4751344648889946
Ni 8.871473041402533 2.3704221178855165 9.806520749956059 -0.4215691300680288 -1.2183136334308955 1.6563211115606056
Ni 7.670700387652408 3.569600364823872 11.824551313767252 0.1147907572903507 -0.6648669657935582 -0.49555776574035304
Ni 9.127610348412516 8.133640552750938 10.763529799502464 1.565758373579684 -0.24215266637749264 1.139855392022992
Ni 6.870741330687835 7.521296174787597 11.633926615894781 -0.7685739544659215 0.24664309804867846 1.4418846801514589
Ni 1.7347883410011102 9.045005329603848 3.192398734811475 -0.2703880070741021 1.4797984244780966 1.3811611370191568
Ni 8.098204170142512 5.036869361748314 5.2138420664978025 0.3067215513978137 -0.22428915583351053 0.024255015892622744
Ni 4.258826486277328 5.397564733957931 4.471967341848274 0.7492384873621032 0.09767903731072855 0.5765223185098781
Ni 4.301626632137805 6.926379677061586 8.718629333611984 -0.1325578514657846 0.22700784031625423 -0.7529141364414775
Ni 7.635273221268327 0.592915655420605 11.32686506126377 -1.1826388057371053 0.4715192367339105 -0.3783468290442839
Ni 8.144764535535952 4.763783418166969 9.488453180211659 -1.1019146511131603 -0.9367752661669285 0.18367009676056753
Ni 4.149577362885837 7.728006870632692 11.006262108201925 -0.17100509969838937 1.4788967385994336 0.6934288365916509
P 8.480815723845716 1.8457424658965178 5.746558266116073 1.4243749534024697 1.835114596955162 0.7493747558296514
P 5.421913998678726 1.9619590548932027 12.200364980393214 0.12433032134966975 -0.004776081232404678 0.669027524929151
P 1.9900777553713065 5.348580501561627 4.708548742419551 0.019873084774843192 0.26066872290380916 -1.1158034932801106
P 2.2692279745719874 7.906718676916175 9.861299222598374 0.28848008868912256 2.3370510125283492 0.3666387965787363
P 9.280922240399816 2.0793829692791475 11.770730406834431 0.9112316133698692 -0.9645295534620616 2.390011109665148
P 5.783014884759544 8.790462429405636 10.031568967381386 1.9408830961422447 -1.1289310318010042 -0.11288582695815397
P 2.562027422028346 4.230090298768077 12.806743696337719 -1.2814524708729091 -1.6615178252701965 -1.0565969010129674
P 1.6134290988196394 4.373752803865644 7.952892882509537 0.1690744583345798 -1.0497346266754952 0.19392751282251763
Ni 3.5005063309057 0.44171888692059597 12.993577761136887 0.7522201956982464 -2.278355812679986 -0.6250333787363881
Ni 1.635787659081809 6.051446635046416 9.256808911022263 -1.2239425495818985 0.20146110219540142 1.0451585772690386
Ni 2.159342931700657 3.8596994585470004 1.4298207125413953 0.2532618889167767 0.048968973699535026 -1.0077325712120968
Ni 2.872826155631455 2.654613611803183 6.83675558179139 0.1546492840481853 0.4146726600585116 0.8130244714698128
Ni 7.591357912262046 7.074217131787662 9.45509505619314 0.5071632111897653 0.02698732722212126 -1.201692994155079
Ni 5.868393987096206 6.818881636295739 6.053038276990883 0.28629773632582306 0.35475772887043416 0.07793887856932384
Ni 4.811652487417467 3.080624365949318 8.454921819924614 1.0031531793715305 -1.0468956145648034 -0.4008280408659355
Ni 5.640863840454639 5.880301348950584 10.166673286551726 0.3803947127122481 0.6827651862302176 0.5376909474649773
Ni 4.854056335631086 8.516777431241835 3.998264469959075 -0.15244404886675036 -0.9579326169708342 2.2797624632195252
Ni 4.299313359827085 1.0087526195117489 10.283419808448278 0.9823293006476437 -0.28462137706466467 -0.41454410490044735
Ni 2.057770923188963 2.02603024654308 12.993537209749766 -1.7326011143702675 2.401487228625548 0.7536199042592505
Ni 5.859233060096784 9.293456305509688 13.392053201805988 -0.9871532043988482 -1.1616418917704638 -0.034767742498488505
Ni 3.4729313876639805 7.321276457817332 6.399203349897393 2.1388662670913745 0.22920767618105045 -2.061548052825185
Ni 4.178737496714981 2.1667251274013983 0.8808434066879351 0.12622239616606004 0.5962298242411345 0.07413827387631103
Ni 4.927620238356824 4.099597778260221 2.3536061949447276 0.07486435340905817 0.582142750020449 0.10715843755607352
Ni 7.740310530133927 9.082478497792629 5.710259244908908 -0.9042729226638492 -2.1592725986618686 -0.2891354628849343
Ni 1.6082034996157442 7.639779954973275 7.397367449258603 -1.8598385820644034 0.7402707366458541 1.9661989491992138
Ni 6.555380566033707 8.544204914894026 2.5595141576493297 0.5449962228771389 -0.3010499549343331 -2.0941506693515546
Ni 9.068405323217059 -0.07500439859093742 1.788651642565918 -2.4107393433514352 0.3516834608204847 1.4910847960251934
Ni 1.414893193968998 2.0968477144138595 4.558201709804197 -1.3037457350534707 -1.2266748609113969 1.0615372757373784
Ni 3.377847601091514 4.695933574535439 9.33721586032453 0.7139562671210414 -1.6902727859157018 -0.6205056660693636
Ni 6.232010902423343 6.107204792336657 1.233361223035794 0.5260921868837843 0.6354738573434217 -1.1858161750238223
Ni 0.4369338232404152 6.8794967438160555 5.562798733758562 -0.1861427266707762 0.7391469074540561 -0.942290539558203
Ni 5.579391624070191 3.7874442596783235 10.694938971433556 1.275591384106442 -1.2227868387109004 0.0760732861154948
P 7.612444633564538 8.147907268037764 0.3773638355608773 -2.3279495644477133 1.0425229394184046 -0.25466468280157434
P 7.113607274640305 2.6768339287001703 2.151664895198426 0.09476314921551422 0.3743891299481165 -0.2564174038266229
P 8.633980156243487 8.006687062391753 7.355308287835504 0.5737239298291346 -0.43216593174726864 1.352968990855657
P 6.348328869887829 5.939764428427714 8.038169684755962 -0.344288196797678 -0.7394454125310813 -0.554430114596529
P 9.285899001546381 6.014627818786166 10.849709791734748 -0.9656487546681694 0.49187388913086255 1.0062223052151575
P 2.8678033133631606 2.197193965087603 9.102954183421014 -0.285725665872437 -0.3455220692047791 0.008199762201972974
P 3.244903564907757 1.4932587495787373 2.9016729378328527 -1.4442045865338868 0.34051947378386516 -0.9242190267684729
P 2.161149311672374 8.736630463003603 5.3656323598456614 -0.6094488940345697 -0.6132034759809956 0.5053600965427555
Ni 0.40542263058073513 3.8958823553274113 3.156680335738077 1.8437822999324893 -0.21929530216334492 1.96765496491945
Ni 7.839136103790664 5.518260407986526 12.967665424767095 4.920751036642648 1.0017529565898942 1.6253316051576265
Ni 0.8692963992054652 1.8822755792020578 2.2467615844849758 1.017396833774738 0.04267697004323618 -0.21674091117260738
Ni 4.253868157579452 7.401752528802189 13.419664088322653 0.14447774283182213 0.5137732603071151 -0.555381936986837
Ni 7.767784094907846 4.844397732517009 2.628914170215772 -1.7917696543106236 -1.0946937078846888 -1.5033857248797335
Ni 7.412526295062071 1.6931402231838206 13.525700435907307 -0.04792947669142713 -0.16179592239529553 0.4140134292079579
Ni 3.371396244049668 8.9354612870333 8.146970899644263 0.3908742720873333 2.2933129482104504 0.3770088269591507
Ni 6.852852639233231 6.430897023799113 3.825620625784665 -1.2654368121709434 1.2112834660569913 0.4015978291524245
Ni 5.331779324579791 1.537856059186585 3.0365348703029076 0.6481668794300579 0.30764303477081856 -0.08405733276223588
Ni 3.611746158755818 2.9500212507493164 11.226103158872045 -2.174666050398803 0.6111460792313346 1.054749049170951
Ni 2.740499606478846 7.181005523278906 3.871402220220909 1.0135540629898803 -0.8809118793404054 1.4402743982415454
Ni 3.5751485318798593 1.1171538502634546 5.042492180221501 1.0582310941822808 0.4119894567993937 0.7145905582709307
Ni 8.000079029536034 0.8769301978308383 7.871406713336413 0.21278963983434318 1.178121377482726 0.3388791099669648
Ni 6.452509069889298 8.490207056453775 7.961215133093519 -1.951141797755775 -0.8192136309996602 -0.5397683988192962
Ni 2.367666466806214 6.46465605357666 1.749359191691337 0.02883260796097615 0.046510999077345704 -1.5039284847570809
Ni 9.12962870154418 5.788673646507679 7.585685326177394 -1.1107538466713451 -0.43707596745437627 -0.5396712111197997
Ni 0.6728000448024818 0.39577140044613335 9.273062644277976 0.8239935688868067 -0.4202583816764053 -1.9819299867812255
Ni 7.5827591749477 1.2453423146849367 3.777923899929428 1.8449652644969967 0.19262473485069406 -1.3127312263815325
Ni 9.161028377889277 3.011594845601565 0.37347458888707863 0.590400619153867 1.8791732778372734 0.22441925365347157
Ni 2.112810214980256 0.7831975097474214 11.04672870605812 -0.6597021337631671 -0.8081134073214404 -0.21822778013077904
Ni 4.233905815647111 5.213055922561132 7.074699140320932 0.5329583178759982 -1.1960576502461724 -0.13075525103940708
Ni 1.720355733676066 7.407770723299797 12.374694472000416 1.583194052557628 0.10662827608421638 -1.011168336366523
Ni 1.1533643957169022 0.7970955760604271 6.74953692107537 -0.38707315317368823 0.78311508550489 0.13469340975154867
Ni 6.180059045787791 3.7267922872606247 0.381365520171691 0.04948730809685026 -0.24559820172393187 -0.7862436038315427
P 1.8656863753801678 8.620340144212156 1.1622930738628172 0.4894477961878732 -0.4774222324819068 -2.817531572220606
P 7.038154045923742 2.8068472055420606 8.912896283345793 -1.9827038888327722 0.4136503894415844 -0.26733713606292026
P 6.009144165300596 5.4573227326141165 12.404194684507909 -4.475357807571828 -0.07917737896211526 -1.3667146225765237
P 0.36265750637277183 5.141058777974129 1.356198747602282 0.035628804947203156 0.5334231733275587 -0.7069050167012149
P 4.843789461710206 6.580734399208161 2.6267022763728534 -1.5848747826941607 0.8192601679668794 1.189988818344273
P 8.318665472711086 8.144967292471552 3.7738097773815995 -0.18464840151343684 0.5886098458020314 -0.0520031325401685
P 5.203351238325326 9.092238479374506 6.256437583428641 -0.311686865822889 -0.831142264116446 -0.6630983039289097
P 4.632046707372471 3.520975565177043 5.697633939178016 0.34198654524769484 -0.4950733699047668 0.30387816841174764
