# total energy = -340894.6617955202 ev
CRYSTAL
PRIMVEC
9.02062626025840 0.00000000000000 0.00000000000000

0.00000000000000 9.02062626025840 0.00000000000000

0.00000000000000 0.00000000000000 13.20259835076895

PRIMCOORD
 96 1
Ni 6.204864767067877 1.8615415178184327 11.216689481956553 1.007348962620433 0.9100193382293231 0.3822289377075095
Ni 4.517078550372303 0.28205152644215864 6.006006867462789 0.3153943965814633 -0.18401848123892178 -0.6376405259774373
Ni 2.760970111129509 1.5765438548719275 4.661784729067274 -0.004271373681844257 0.8056919423641414 0.4985142772655156
Ni 3.2785646196503526 4.476061763215951 4.795698630622626 0.5738743393640696 -1.0790107499317934 0.2447044862650689
Ni 4.738246262600017 4.474401968002234 2.7936301902098446 0.47428188708071223 0.4041776740644587 -1.0249296518166735
Ni 6.952918232762783 5.758857947764716 2.6463423083074504 0.4978509326499039 0.6159391297446037 -0.7759833595561153
Ni 5.104086777205906 4.564905910280587 11.509497203033686 0.3286939419038468 -0.9496595783287645 -1.2206517946457687
Ni 5.709957133343212 7.744992354125819 12.43572517460797 -1.4042668697986849 0.3031700866011295 0.07384362545402766
Ni 1.7815375843920684 6.507109867235174 0.393272238763018 0.6650893662170094 0.5405227604868175 0.2235841593466859
Ni 2.7482780901202752 1.8518804271994638 0.3574612549644698 -0.4416167927475233 -2.836689376095979 0.2139525497941928
Ni 0.7471333618264322 0.2156795632710566 4.794840769074667 -0.5689424492800911 -0.7804123418617462 -0.17206645108336818
Ni 8.542099984886974 2.3314710377018977 1.3358257395643887 -0.08728715255344321 0.34461087024441944 0.10752456264624062
Ni 6.742638416312001 1.0388604118894182 4.899880548349665 0.09655032302292405 -1.094031905930974 0.6626375622424071
Ni 0.965234061159236 7.197828233047571 2.7087109175880775 -0.36606904011819535 0.3236558652593071 -0.41680256191732085
Ni 7.540882645969505 3.6369721382991638 3.8090685462709217 0.41589521961170306 -0.04065839695131062 0.01782340133466608
Ni 7.644105671135577 3.7094167870021892 12.562245770961354 -0.43803190360974237 -0.11972598980843896 -0.27238061202409863
Ni 7.92957240664248 8.702062748608896 7.105889109146923 0.2307318261350607 0.12804427986614722 -0.8158490854028013
Ni 6.821099822664749 0.6285031071765148 0.2443417008366142 -0.2988827720796853 0.0655998973879967 0.6883694197908725
Ni 2.029514597571768 6.594510714113971 9.242888075683457 -0.6844073498193309 -0.5145664456323719 -0.9389069677979508
Ni 0.10300021569988228 4.936005449938633 1.401983913895463 -0.4174718200702036 -0.417980384275506 0.07361582571393774
Ni 6.245033615365046 1.9894990999193436 7.088831105075522 0.852748529532312 1.0303965884685158 -0.943406141219885
Ni 3.2396767002681157 4.2649700904106345 0.4511079833974903 0.3109684995996257 0.41126389148727877 0.20579855322849075
Ni 6.039985762087937 5.6753089082568815 4.831200206943834 0.7251739902137317 0.37405642919904614 -0.13209762399991443
Ni 5.116102251253027 2.9534612527898076 9.134231025317694 0.8293900573120296 -0.01337179332121568 0.5138097699720056
P 0.10823217887355366 5.626805001386483 12.330962328556131 0.3642345580126179 -1.6315660161031127 0.4730091910158757
P 3.9796747468007996 5.95192640949935 12.73486988556356 0.17043251502437098 2.364125500147638 -0.4905626265186067
P 2.385540670913943 8.50226489975778 1.4521539304178908 0.4523071825818339 -0.08298672540587644 -0.731464965428766
P 6.580059671003244 7.9299693141935865 5.529855821715737 -0.6381125805178495 -0.7272951503217926 0.961669458305447
P 4.579997417848781 1.007306261576483 12.473748918003936 0.36879260969694555 -0.36736256211863827 0.5110460911839392
P 4.052561406185739 6.128649496629343 8.241048313560842 -0.33736447309465123 1.348683990327058 0.3404099447891944
P 4.739509150262627 1.1478836996773356 3.963644192049194 0.23946740623584567 0.03731519151069058 -1.0475358192519635
P -0.06141693322058876 5.434764891034259 3.677940214074243 0.2705006213925664 0.6284285204608661 -0.08676239039822477
Ni 1.441234462449392 1.214401796992254 2.5160718376587305 -0.10562631718226326 0.036732065313710933 0.052637423690057736
Ni 1.9163959455065285 6.421440980579386 4.771669486653615 0.02182249519173016 0.2844984783335552 0.35800477505282213
Ni 6.049033450127924 5.690995777151733 9.16570579412041 -0.4194451417464905 -0.3845766120040796 -0.09359561126997429
Ni 8.739101439628024 2.292483891431884 9.985745660709338 -0.7239012941488953 -0.2811974389847802 0.33097605306980415
Ni 2.3939929976272705 5.184144834389239 7.111262696151329 -0.28759202965721437 -0.17440538362918995 -0.7764443583529338
Ni 0.5144914131212867 8.932323252007404 9.184466892411104 -0.07630957049601697 1.1362576473694044 -0.6176643399658266
Ni 1.3978001474817585 1.151122104469315 11.456554246029214 0.37814242634296164 0.06246238020027952 -0.7635335638285367
Ni 4.194257401930618 6.821668122112922 1.7139081459340528 0.09745329445316765 0.03959473157348665 -0.7161820711277666
Ni 5.534839717669967 7.853519507474854 7.835900420456207 0.23371122047835877 -0.24710718216929053 0.35870360089205966
Ni 5.343719711186217 3.2227359643368145 4.679964899033166 -0.41243348631534776 -1.3197066292581014 0.9559125012170119
Ni 1.0286129805699515 7.386675041738623 6.949926993127629 -0.7379737130815613 0.2390866258576592 0.7356062412906492
Ni 4.939117565964351 4.573349216367754 7.0948911617308195 1.0684581712269277 -0.02184383534796883 -0.19817060436958775
Ni 8.213749192608288 7.047337126795227 9.047053889967703 -0.4865923290169491 -0.35767593095849365 0.5663263518134827
Ni 4.527226754803992 0.36792427924919635 10.331191441626684 -0.2319502719231941 -1.315279446724683 0.06755239312867721
Ni 8.583098730791002 7.156378455835468 5.026730397557944 -0.8900372386804414 -0.2644757553547252 -0.796087329394842
Ni 7.224222585196127 6.282505296439927 6.954349806134612 0.08879227634405999 -0.7099988251351901 -0.1903354245958851
Ni 2.3348718137647837 5.334545734379969 2.5161512191689512 0.5101336066719989 -1.030840875094786 0.7466606993325979
Ni 2.2108562452964495 5.319409123680968 11.473665471794966 -0.11312776776563097 -0.42294544159026515 -0.23637848289787677
Ni 1.0539248575791271 3.5069578534334305 3.8711737532676334 -0.030719797681359993 -0.28468436909211614 -0.591022311898266
Ni 3.707793074293119 2.3674994185909384 2.4135668543351145 0.006072945666957283 0.6196592589086682 1.1726909504957739
Ni 1.1732136179388344 3.3159641357159413 8.218512083221562 -0.47272482700623747 0.35395554468411294 -0.8610274817116526
Ni 3.691456720314638 2.700369544576536 6.944421704981263 -0.033683765405690375 -0.9332574828216572 0.3153419460769731
Ni 4.241471359259921 6.669372890628279 6.0282932264573965 -0.6252889463906199 1.3163670233619071 0.4657208848845786
Ni 0.7611604355075684 7.370879925329832 11.229879441529903 -0.17308949303124385 0.3174474224557501 0.09158680837006163
P 0.3565835480389556 5.549182513266755 7.890968636984331 -0.35311273706784346 -0.031130402856217355 1.2388919718028795
P 8.567456965026958 1.6288003422255106 7.777901402488212 -0.5043825631208345 -0.21728572793248385 1.9662488286005426
P 1.7484769895101622 3.333915181777331 10.347853440209597 -0.7541876038372624 -0.6659910520956724 0.9875175297168025
P 4.110455784890261 6.223970453277938 3.9256339795924715 -0.49141828965068274 1.036079497785906 -1.7358499603248687
P 6.926830581903718 3.884182398255136 10.262023084345516 -0.5662903563692246 -0.2419186959898156 0.6172701898512015
P 6.198126359325235 7.6006442942894585 10.265733267885743 -0.08403856370915849 0.795673638896191 -1.2430689859987043
P 2.4568577413467803 8.410281574788941 5.759765422756564 0.8613668673289423 0.15777960214705083 -0.40633380117551315
P 6.560069963429355 3.681831712200315 1.717566009842542 1.0632077214612656 0.5284555449096382 -0.45446665212699794
Ni 5.061347050452708 2.8494714744000085 0.41522844284011473 1.3660363655625765 -0.585365884943437 -0.24417278213131496
Ni 1.6135194015079255 1.167494540952442 7.0140519183219 -0.5382645605802601 0.07541662636810238 -0.4495787279070773
Ni 6.716099734144861 0.6038434214388158 9.002931301223947 0.5160291462208274 0.035791041556680295 1.2374120448232429
Ni 2.7917575082187165 1.691674106571182 9.208522196195979 -0.4090404014733987 -0.32262331022973467 0.2550140957211931
Ni 6.4706575169165435 1.60357867147795 2.64713431928443 0.06158460558101652 0.6966956802683808 -1.148883820773847
Ni 4.0425124286418255 6.721827831757415 10.575940874765799 0.9784173671877472 0.23970137662352264 -0.3157281257717982
Ni 8.354759620764893 7.221417170459899 0.2989056643623096 -1.719079425734749 -0.5029075212372048 0.5221265173678169
Ni 7.70879258133971 3.9119118030755944 8.160499534314324 -0.059900018789742 -0.25634027073178434 -0.20373627138282333
Ni 2.9648001798748163 8.263182223973322 12.209974082227596 0.6733135538990146 0.531800293012155 1.0683710108297602
Ni -0.011687123254842446 4.806586526399559 10.17670780623526 0.3426419194435067 0.12322988919663938 -0.08874291116336329
Ni 8.669074318736282 2.2695444391031843 5.736383959745949 0.3718074852638693 0.9251585078636066 0.4553372276574094
Ni 3.4492078047474926 2.8691815425628913 11.65241549362345 0.2213516704717414 -0.1760341774818646 -1.865468526656671
Ni 1.0768462686555047 3.3832850687592333 12.65564082392447 -0.7881611325692297 0.31945673957629495 -0.5249182211803411
Ni 3.1607462213549704 8.488427259226036 7.842370013539237 -0.3834648669971396 -0.8589130064718111 1.2465299479641112
Ni 5.722820546249514 8.048319929432498 3.4564531716804114 0.17002448095267492 -0.21812853554875336 0.8900030430083963
Ni 3.0841520846176538 8.405094714746077 3.5108746093127547 0.5616101772847361 -0.3222985799004643 0.7933051386640143
Ni 3.288965401614565 4.402697010644452 9.389938715117804 0.9146892329011667 0.07456764810424577 -0.19011842348907254
Ni 7.152995721024904 5.988288553556367 11.386844651178357 0.7868077038651288 -0.18767664681679935 -0.04643258043092649
Ni 0.6138788680434871 9.018172551186423 0.30427744724148426 0.6235760774645712 1.1340040754485372 0.01192246246919882
Ni 4.6213028650423 0.27928309627319353 1.6773105635342216 -0.3458051476628367 -0.3314745899727775 -1.4871355815694582
Ni 6.0475179849327905 5.473310026622359 0.2850120959483637 0.021523990114704867 0.14368018663119128 1.5753727567409965
Ni 7.8200439637895185 8.72725735747797 11.158823067193133 0.21266674110323375 0.5218982034070947 0.3102197943590593
Ni -0.09073306618285525 4.734628991509254 5.90454557058606 0.731664740144398 -0.0963315221438986 -0.3245382678642604
Ni 8.274494089179846 -0.34472503288704465 2.633575416101076 -1.3462586687150169 0.6123763520940099 -0.39827442120614637
P 8.552067776795434 1.6031366607960362 3.647798693818199 -0.3732431892691314 0.11331931495114676 -1.1375030897407312
P 1.7641277759003686 3.341745085285515 1.6120111528137222 -1.4034495161037122 -0.5664790753412632 1.2644682776100868
P 4.652135365262316 1.0105717282469469 8.17727970309995 0.631955559777518 0.3044726074626369 -0.20125258572902113
P 8.425490350497233 1.5414085159728756 12.27532671464245 -0.021987302904368587 0.7657308285901715 0.29806336150218343
P 6.44152089441489 7.617927814014896 1.372621775739773 0.0496837403783725 0.07504253085813528 0.2625291731513156
P 1.94294364829983 3.2547862490886326 5.907092995414068 -1.7339578855084783 -0.4644412468412066 0.6173648064475368
P 6.8268188996511405 4.053932541362287 6.146614975692591 0.009060310430055365 -0.3144739416497229 -0.7614010908665662
P 2.381544533524397 8.523743010648317 10.091590981900557 0.6199307674025001 0.6950527453483192 0.746856617393488
