# total energy = -340858.5345962888 ev
CRYSTAL
PRIMVEC
9.33430937267499 0.00000000000000 0.00000000000000

0.00000000000000 9.33430937267499 0.00000000000000

0.00000000000000 0.00000000000000 13.66170529336143

PRIMCOORD
 96 1
Ni 8.081579548904944 0.22958666862040464 7.982097281944638 1.3021614212854864 -2.4355815992060954 0.047097724818751144
Ni 5.066803038184459 2.8208842404089283 1.4296567956539319 -0.286865435903835 0.6071662686479801 -0.1156739312262524
Ni 7.291010232804554 5.724143759341807 6.0333231489192505 -2.319499119687515 -2.453585491982684 -1.4278896514239474
Ni 6.734909429026329 4.301903072332326 3.84855714431333 0.9414397615221335 0.9739924986471742 -0.5262348831092357
Ni 2.8575307382542574 0.7173911324126601 1.861120302659478 -0.21977429868229245 0.4843392713167142 1.6870949024083526
Ni 2.6632744298846345 3.431217380529833 3.3303274997450045 1.0996094000187513 -1.996483459115368 -0.6754151736230496
Ni 8.680898204192053 2.77075900010597 3.811274046581844 0.15806473748763744 0.13201020649243073 -0.6353373317655574
Ni 0.5959573705509632 2.278056824286347 9.636761334134684 1.616396507451526 0.600385755391037 -0.5785542613382423
Ni 5.9757313947022626 7.095885833681082 4.3569092229061255 -0.1412767193960212 -0.31721448050933754 1.090739351222631
Ni 1.979900320420964 1.736816240724567 6.940610533883002 -0.7546563159435647 -1.0991252612934812 3.2772059938007883
Ni 4.077991663694081 8.513702058138682 3.928300147648186 -2.6070644098718523 -0.22511293728638648 0.6018057756670152
Ni 3.4370513237680735 1.6140420720644524 5.294661926175426 1.8627704109992178 0.6862035224878053 -1.3154745934546248
Ni 2.965089982949042 8.81103714279612 13.596620781124455 0.7399434352134224 -0.09189122698435788 -0.6445809618510124
Ni 3.0696622487058476 5.152930708999245 13.263752781707002 0.313194303606351 1.569843342282335 -0.6913030484978997
Ni 6.876352216048812 7.149688791801427 12.87543245173689 1.8267438563929637 -0.38074515407313136 0.9476564318558065
Ni 5.855346809192531 6.189281720149393 1.7054996334216943 -1.544488408457314 1.5016510015768136 -0.5769619771504578
Ni 5.885011243770334 8.91028885231965 2.7757444546396406 1.5111879945329716 -0.352356061407477 -0.7256614713731115
Ni 7.491539196943933 8.974564905341285 10.615144418407844 0.3189528033566829 -0.706895503619518 -0.8894453707327133
Ni 7.73840367185871 5.078909637192455 1.8079212743431554 1.4266925457920525 -1.7038620945643626 -0.8021193945215347
Ni 8.251949360079916 9.22621788086601 2.3176398958000766 -0.31648248743931945 0.3466839507233642 -0.041181102224000045
Ni 2.609350125744934 3.0141977835512517 10.452064702703376 1.2432397072486137 0.0450531835848966 1.900098715136031
Ni 9.252251269172332 6.845885030881428 13.074551935189909 0.47483236026754355 -0.595759055252303 1.42152848509261
Ni 1.2420325139575406 2.938720559512197 5.260507688881473 -0.3053681226937128 0.9187243222024887 -0.8000535131314415
Ni 7.029360212146783 2.017125545435526 7.994447506422262 -3.399936574763506 3.005587713864011 -0.5845071364875676
P 4.947305212046939 4.895154426651663 10.4910961165445 -0.526795383598396 -1.8844543237305544 -3.522332140984308
P 1.6141167465379018 4.983541000288296 7.586399113997716 1.1925550364095525 -1.4239648624482446 -0.09728977229210987
P 2.230993237394817 7.535205095293512 12.037041602839457 -0.5569760209468342 -0.8967434470560235 -1.0820467085446395
P 4.349620060866539 6.715466063001924 5.886350717137834 -0.2746262135251657 -0.21793673125292146 -0.4175713217625453
P 7.7196323760953485 7.3596547425229835 1.229284647908797 -0.025323309256137034 -0.19850433355992264 -0.04990099859550116
P 7.558951577850445 8.840608234282112 4.6331216993174635 1.0208703941456354 -1.3193546452353213 -0.2952857987570463
P 7.64664741260767 2.122733919511443 0.8606177059196672 -0.6424009234805581 0.3672692310738836 -0.0621852152794929
P 0.013507678816091542 0.6143711622726853 10.738332096964685 1.4782763314066152 -0.15113690001955263 0.08789110468602929
Ni 4.216671495198934 2.971371973027979 7.525345264505428 0.8830764910918921 -0.8290396159511463 -0.6390178659409381
Ni 5.877459787642756 0.7835461818724663 4.838251544452247 -0.5055809543043099 -0.39519141140544845 1.1512980866422946
Ni 6.690048739101559 3.565491418101167 11.487854721871736 -0.5105928056966045 1.7326131985551256 -0.9865263694481268
Ni 7.910668347797462 3.3308548882137416 6.174106933713542 0.9952606639973312 0.21743202370236103 -1.3938009372703544
Ni 5.157961901647902 6.188208274593557 11.895957253289533 -1.0442062406580985 1.321625443547369 1.8793216304896796
Ni 5.507401100154712 3.0908137933104105 5.19094281627778 -0.9671497646937279 0.05098240458513801 1.0418243706894832
Ni 3.3094326486429244 4.47346767508249 5.730169989349179 -0.34708375726494417 0.5486528457931197 0.25428133132022657
Ni 9.082674874277759 4.04826188895201 0.3070212972947538 -2.381458592109447 -0.4196256331884128 -2.0742619008474277
Ni 7.754458683650347 2.0329285308792713 10.171631251680308 -1.3423372221734238 -0.9260943894143147 -0.27020571585996694
Ni 1.3943217682485594 4.662664787875911 1.3273518335972359 2.2491413958995587 1.3189846634904123 2.797513734337782
Ni 4.496066037610137 5.460692217012066 3.4687067664942233 -0.08837678607319618 -0.7129116279066109 0.46017938624105914
Ni 6.307454074383184 1.714908617076328 12.759937177376262 0.17922748760818163 -1.1260411118477187 0.8949423892915426
Ni 5.858865843753837 9.15093667731976 8.87350980728395 -0.05407904123259074 3.1826683303325187 0.9525903788223141
Ni 4.452596159753362 3.317058779243952 12.307242784138111 -1.2787245304187849 0.6088878793247772 -1.510357013991244
Ni 8.023193444976638 6.576347518965555 3.3942647173433618 1.2456902256716353 1.690267129488747 1.4014147450618704
Ni 1.2998492250257947 4.636650068187951 9.735686342836875 -1.2787975497485653 -0.2567632172018159 -2.15417332976209
Ni 1.793848869821602 9.30143374424799 4.908404478534354 -0.35342332632972684 -0.7758401491100315 0.23320728425874673
Ni 4.761449781940383 7.351272532878279 8.446308345850532 -1.2387837283597891 -1.4265891874449688 0.6939654258214113
Ni 0.38422536853232764 1.8120227697973674 1.3646283973122944 0.5134696130237673 -0.5672110684112812 0.42602330918464054
Ni 1.3751677658087695 1.081202366765738 12.702256747222053 1.0446867798389428 2.254483634048079 0.9727092610593764
Ni 6.013572684122783 8.070191691703899 6.71627161388426 1.032932724626808 0.5706427198006494 -2.407446017312144
Ni 8.861171717408261 0.983052105725587 5.821799301995355 -0.19398202020953687 0.24813948008854683 -1.0176940533001828
Ni 2.836920583582203 5.669836748525678 11.031376199691534 1.2460722916014024 0.1428450923244056 -0.5232698869436407
Ni 4.124383180324567 5.240365183099397 8.076280461582785 -0.4597230154299309 -0.6512689153941494 0.24189221362725438
P 5.471482678425516 2.323505575689533 10.177902040588226 0.09043906791886361 -0.6885015744933626 -0.09954668664708663
P 5.184751368997902 1.0224802277069087 6.91229023982729 0.1582460002605081 0.6569698224336685 0.5727757069832523
P 4.422343663697145 1.6777207292984904 3.2315257039240075 0.1893416932240481 -0.22495532866259965 0.8094172137345286
P 9.16513416158434 2.3854013798699647 7.6762110366463165 0.3582647135824282 -0.665990023654408 -0.926626864879017
P 1.648999059947987 3.7895801786138543 12.569314715570874 -1.2470133153584329 -1.2694163656439816 -1.584330994375549
P 7.185364521491913 7.487936153599996 8.429299367660578 1.4090722616071283 -0.48542273418888016 0.033120950923684896
P 6.43536211309295 4.303284550091141 7.322674076408968 -1.9593482448259676 -0.7186750127529494 0.7898302927415365
P 3.727955069399677 4.81810903867017 1.4694256199203668 1.0526505147707097 -0.5479146820755144 2.7838321230856313
Ni 4.207701224075816 0.7607835355032305 11.691099969982838 2.5799474990504017 0.8587744240114178 -0.11889886592145328
Ni 0.3813784042320664 5.316710497892301 5.714322199221365 0.33680165861264577 -0.37899397570997956 -0.39891539722425495
Ni 0.898342316475423 8.09021378489754 2.9086183458337964 -0.03968292041191875 0.4140491675418998 0.7984044075637927
Ni 0.04197078780227628 6.232462234421551 8.260809486354695 -1.033639777996162 -2.43173008667049 -0.9364615915812518
Ni 7.297236217028405 6.512911553770228 10.433443689317832 -0.31171566217829544 2.279463443921868 0.5169724839707033
Ni 5.863178294595545 9.016793320076962 0.47151982799476155 -0.35818115272968637 -0.14582037290264563 -1.277899206304012
Ni 7.104520069673677 4.581530972473058 9.443763290642686 -0.3547459017958922 -1.5218693855062178 -1.7586397045258744
Ni 0.5413619295811355 6.470300432358122 10.832530211497522 0.00401914846172211 0.27926062697338355 0.573780751208999
Ni 3.775784069644064 1.336057010339608 9.282445892511626 0.8942967852877437 -0.027637044990978212 -1.7270364757982968
Ni 6.138400400802758 4.356686132916695 13.450577113106565 0.7442842286806214 1.6410685562769092 2.2321841992199296
Ni 2.2276515547079527 5.599194696642477 3.6894118399287312 -1.6516247345262007 1.6486833925096895 0.5147222544839458
Ni 2.2951759473246387 6.799064136028608 6.767270545526578 0.1473625205787849 -0.23730073760183 -1.6485175563557866
Ni 3.9258704269683236 8.112737472951736 10.629038537624037 1.0136983018772283 -1.9737767615464716 -0.1721754658574067
Ni 8.520581444005215 7.308950775050791 6.313292684776015 0.8870776418314851 3.7725516435303352 -0.2764869208829884
Ni 2.348978905444984 0.3702061695731072 10.730067499615666 -4.465059510969613 -0.7325039482162418 -1.699628001878357
Ni 2.358098525515001 7.257920106757258 9.045797818995656 -0.1561017002239957 -0.8919707082577285 0.6035016753121994
Ni 8.928621435551497 9.198672334472334 12.628156333787222 -2.7434213233687523 -1.227466503574757 1.3305111760727732
Ni 0.8273838315109793 8.767352575828179 7.064726976203372 0.36812463709564347 -0.21280043846762062 -0.7403838651849507
Ni 6.660048269393233 1.810361262763117 2.869012871978032 0.5956181587990644 1.020449761668449 -0.4886258145072101
Ni 3.662269535691684 8.796074245178682 6.71394923775998 -0.49365720628353044 0.38160004587425894 -0.40728253824202765
Ni 0.10939343644888731 8.053352597941043 9.235927429276277 -0.37955164798566243 3.891840031580723 1.9668581800497675
Ni 2.4070476428611305 7.043249664208385 1.606520485726254 -0.38552714884280703 -1.3621311169708994 -0.8459451334572334
Ni 2.6740835599164456 2.7307428166462335 0.4830626347282138 -2.4133307582276955 2.3155252226414316 1.7836025451187993
Ni 8.602667358944547 2.64510986421805 12.28495992126079 1.4925220426923522 -1.033378296804659 0.0349924569147849
P 4.261840217326683 7.868850642665757 1.5725576017705158 1.5519507782726305 0.8976248212197122 0.8544434007362317
P 8.30557496632582 5.039024134061254 11.594770832663936 0.8774254634537018 -0.2221281436264497 1.0790053506151547
P 2.244845352219694 9.287908330244456 8.42623864768007 0.8035674398219709 0.5745140298305976 1.0599380495710584
P 0.8475506064969277 8.603432772297404 0.7210044434966963 0.09362157941190329 0.27817125056394676 0.5016939605450779
P 5.806033653788335 8.478409035124624 11.681932744935997 -1.2682544841253967 0.3166007581847386 0.6155187543777334
P 4.094205358741798 1.6376952115295729 13.48467627797635 2.399258082184713 -3.2605251907109976 1.4668112681898091
P 1.1869787584069165 1.4325737672730519 3.55250739403014 -0.29664025590241166 0.6738874241246136 -0.6490690795293531
P 0.18872946390344364 4.851591205703078 3.3479646769428526 -0.4407508452028022 -0.22997695024690715 -0.0939707352212059
