# total energy = -340862.66695432225 ev
CRYSTAL
PRIMVEC
9.34308191020654 0.00000000000000 0.00000000000000
0.00000000000000 9.34308191020654 0.00000000000000
0.00000000000000 0.00000000000000 13.67454478878298
PRIMCOORD
 96 1
Ni 1.9514988555546973 5.2353398734958 10.418731277425364 -0.10643878578122959 -0.8009459430387238 -0.5708604922384105
Ni 8.592654887348647 5.4308064895270345 4.703277521005294 1.7700829133658096 -0.11451076415608666 -0.41506372484934323
Ni 5.608390446838141 4.187597328284836 2.7346219641926193 1.1034115473736612 -0.13434785348667186 0.2342079576091192
Ni 4.119290056653253 2.9662790078896903 0.08028977414389404 3.0291909551052476 -3.1730945706011546 0.9154047709109525
Ni -0.057569267625813915 6.954149274805582 6.389855158442195 0.881034778071515 -0.35951581238070984 1.587008284097396
Ni 7.2422338615226165 3.0987265366339556 9.421132118361239 -0.2098930350128385 0.1545001600648307 0.3562104021565607
Ni 6.749769358659928 6.491367743078654 5.428041871598463 -1.6968386120586776 0.1965721495342163 -0.38034380486965463
Ni 4.843070580724358 2.8981118824863215 5.217617915784025 0.7221796834720982 0.48817535723335287 -1.576189339105021
Ni 3.2715548652676616 3.93105498599787 2.9258197261124494 3.054474926483017 -0.5001541268617837 0.1587170263596557
Ni 5.568458114878985 8.728493954815697 3.580241881840365 0.6918676627521181 -0.09440679431736 -0.688810363983033
Ni 1.2664360627982252 0.797095687590874 5.489755730346664 1.7154816810811617 -0.31579985954999806 -0.09297366141525924
Ni 0.6962361843778933 8.819850609447569 8.712791037098393 -0.08251029999009016 -0.9032226270224637 -1.7303909940928264
Ni 5.489322211347388 6.618041247220495 9.372368705408215 -0.16664836539159042 1.4175365903243973 1.2185643159891206
Ni 5.1894373122147215 1.7885648506329113 9.367692492926802 0.011554537606818809 0.3821032107629226 0.5484368731275716
Ni 2.0854786497274374 6.14539342102729 12.781788218294711 1.891809478544045 -0.08050663929650007 0.2212899639958705
Ni 3.751228689035337 0.7055914122652825 4.740117292861857 -1.5166580165086074 0.0444955113092137 -0.5306846913504731
Ni 5.23178015929916 3.616921886996764 7.456579108802485 0.5663286658063279 0.41068359350377653 1.314125535625898
Ni 4.67724956350136 8.500289179873635 7.757610404081944 -1.192591546074443 -0.815274443846254 -0.9399770609336779
Ni 0.41101992379830943 5.132360425004033 0.7979094700227042 0.642114502588391 -0.8442371496271912 -2.1303183775213634
Ni 9.093780427114972 7.2068142381119555 1.0275932548265199 -2.7235217562313485 3.3958608620322353 -0.4642759249079359
Ni 2.9947473783809273 3.3391894350038167 6.731732539088765 -1.291397240790447 0.3732455032619766 -0.7815909355508798
Ni 8.276176674795426 4.608110757582373 2.5205327173562875 -1.9553491509689036 -1.4628841652212614 0.1377314252469241
Ni 9.005310784784312 4.408038002183834 7.930975959923804 0.26568340250958117 1.3383304150068756 -0.48353862979228984
Ni 6.992091530324097 6.61760212237209 2.7093106210689535 -0.008067093278850622 0.68113459260533 -0.29188602904687794
P 2.7888725691343215 1.6227344903280325 12.620702274968977 1.0537195794651724 -0.9716250268562623 -0.5379871385491574
P 9.041720774874351 1.9235723838125551 7.793218757746598 -0.5511838397450894 -0.042428087257223704 -2.28734644621437
P 6.817908454817654 4.225903963996707 4.704699538067574 -0.9036599716701986 0.23733570460482353 -2.0384569753336765
P 3.8491255009838703 7.7767235466857905 2.5330589872340696 -0.23660833952049573 -0.016562532344371474 -0.0678832941055347
P 5.369571930879325 0.9004525965906313 0.5441392201298144 2.1917885690117025 0.7019389309451911 -0.6250819725861364
P 0.15355074778875374 6.454154247946853 2.8361420232945824 0.18165897986780974 -0.7578123450740433 3.0459542906065153
P 6.160379724364325 9.11108381475848 9.123806289355763 0.025491202292569005 0.3702136584141882 1.9245707321354661
P 1.4885584914357928 5.042517349636874 6.644570928221436 -0.5099903962259152 0.30220618002596344 -0.6796780626644617
Ni 1.6293026768903365 0.8349333005923218 10.156768079031073 -1.6334375220942126 1.4941567500822976 2.9731766445231567
Ni 2.754172363028495 7.322808599663879 8.881439270898564 -0.5735012722953671 0.4892264242056865 -1.1783183239848805
Ni 7.425199433997146 3.2711250835011376 6.441408415644869 0.6920247571552727 -0.31539851034652133 0.5687215915185366
Ni 6.900445240153915 7.730447262129474 7.645834443999267 1.7418570857508968 -0.38841886856830526 -0.6718534244137203
Ni 2.0639802183193847 1.4986490198672124 7.678024164003684 -1.7263265942154655 -0.716294942556547 1.1509491879433082
Ni 6.758439738645444 8.381220944382882 0.7892138637161095 -1.900081745855166 -0.3197130785614752 -0.6581856971186406
Ni 8.41743472975342 1.8176685506920525 11.631854780702731 -0.013263035657493287 1.006023044720158 -0.16373761950269863
Ni 0.7382305345081731 8.58803006181758 12.657322484401337 0.19851256109003876 2.4219470391417963 1.2101586084239289
Ni 1.1736405735566875 4.066090548423157 2.789934877544185 -2.8463338411642787 -2.2289618356278904 0.6869823096353588
Ni 7.107254357588614 2.0880666834084587 3.8388957606324245 -0.7621312841643713 0.3925002377265305 0.20581038030303264
Ni 4.931745770856399 1.0839843598271468 11.989813473882784 -0.2336122330066493 0.49758996567903335 0.2390640001498399
Ni 7.0540641924404 2.606944078748576 1.457993533370472 -0.28045927526717507 -0.720649619980817 -0.4543789775091981
Ni 7.734717050549066 7.371943867275765 10.110316144535394 0.10235098886510116 2.304101297075206 -1.2695040402617814
Ni 3.1429006277670597 5.1397788320175035 8.377381872038002 0.22639206110912624 -1.5514571264656636 -0.7030648170195183
Ni 3.502366360054507 0.1930290059684954 9.451202827395058 1.6272889859943136 -0.41235841010303825 0.3115986769844569
Ni 7.830334150518649 0.1476823580593327 2.423088110570792 0.2823775753358105 0.32873816487822094 0.5178872824754888
Ni 3.543868329769661 -0.12335951299867064 0.7484556033186784 0.6611692052269967 1.381437530608995 1.3929553014406075
Ni 0.4395742506428511 1.2277463607292354 3.280016894527232 -0.6775926408903428 2.106823636833533 1.2468937590614333
Ni 1.7905922994010763 8.604772864548233 3.111341565789606 2.2093890557022853 -0.536150856671367 -0.38411587031757716
Ni 0.367041103076517 2.8587775077675466 9.538925023175242 0.36800636635022427 0.4429337117867339 0.8841111030039935
Ni 9.175429619672544 8.334141154784804 4.232531011974861 0.13739821027722143 -0.8641485438391375 -1.0740323228805955
Ni 4.559657534947796 7.804089433515077 5.467315516285012 -0.5261433518366939 0.5109830991564877 1.3570308196298564
Ni 1.731338474112128 6.390359684863766 4.649892085445767 -0.10685273339019662 -0.5985037078769757 0.4051107274016894
Ni 8.351612717902169 5.318082206633442 10.370911515742314 0.4161898680339865 -2.4825402273438213 0.3461964695639844
P 7.047664181351952 6.334058273449196 0.21851506472333498 -0.06348002283151648 -0.1929594924822935 0.8676629847502993
P 2.559826916822974 2.808735961213209 9.440139684139831 1.1228496014936147 0.8003198794189507 0.30904505732466775
P 5.7395766595284785 0.6013347644803906 5.579023271869957 -0.13278436565429388 -0.24345210191520653 -1.7524356325976915
P 0.6750628922192975 9.567409276905677 1.4778905605441306 -0.4580170884824177 -1.084744567091777 -1.6634471810824254
P 8.764866572578212 9.051493638521817 11.160001116469408 0.17361734051025585 -0.12828262112919842 0.25429881482172334
P 0.23519620311357278 6.743883217074933 8.648752619578213 -0.24470808580949466 -1.1997230149129015 1.0301762449275935
P 2.3632578171297896 8.79243800720888 6.8123166203119085 1.1706327824151646 -0.4829233648057941 0.5102904439648372
P 6.828980006846573 4.931727084692637 8.377244528734352 -0.6779788205851678 0.5030921264441851 -0.10571476313101147
Ni 5.144235482074714 6.002780619196558 7.25861228405991 -0.60256322265833 0.019284559261224854 -1.699142834711822
Ni 5.659515790890667 4.530535148724893 13.735943915228821 2.086323459997652 1.366163120948428 -0.22345791818146676
Ni 1.567563591821057 3.109368306896351 11.624320519473939 -0.5459076789478147 -0.41906616114051704 -0.857334863351414
Ni 5.873556453701219 6.43462720681568 12.051184441525953 0.19754325519823399 -0.6785963995645087 -1.4728132514095151
Ni 5.231182202058781 4.467002191934473 10.157137130765369 0.1060808882211786 -0.9746972380236827 -0.3946172840695333
Ni 2.2155810649195855 5.950683594628413 2.2698653049560593 1.7438440342739385 2.0602385899851425 -0.07520939545330273
Ni 0.8234487843442652 1.7371405279601944 13.498321313750768 0.053922718160384554 -2.080947283287403 -0.46478603177513506
Ni 4.363462158529849 1.4380965061968132 7.1079737748934475 -0.692085435189879 -0.6469934279472469 0.003900363495670702
Ni 6.668082793774833 8.76020437471962 11.75420150362551 -0.07686698566138374 0.6235243982910293 0.3389382453396743
Ni 8.173533577251373 0.6885430907571237 0.0244816774526381 -0.7643061803285031 -0.327990488078919 0.5595378681367397
Ni 0.40092752675051346 3.311290992507317 5.133219054228892 0.5988389797292074 -0.06978411067267337 0.47842264872196316
Ni 3.115702916411631 8.703669386258028 12.179219232697848 0.24185981772742216 -0.05820617602708685 -1.2278321144442916
Ni 1.3856164152715496 7.395740696826529 10.866641425722394 -0.7263178740101879 0.8893728656235651 -1.3034045496639681
Ni 8.746554132091562 6.793597755763438 12.418729136715854 -1.4187041282699375 -0.8455211585459373 -0.7551952191661704
Ni 4.752779037426913 1.48536315743251 2.5408399058245195 2.032587661037093 0.5593411787449012 0.10034912794372394
Ni 2.1410326145915315 3.460210374607687 0.33293791990288246 -2.424357448355502 2.874531129534101 1.1230038676832919
Ni 3.6429890854445985 4.221606146331473 11.837574494790113 0.5890754725845404 0.62972795599858 0.46548305784215965
Ni 1.9276739967582897 7.766763821400705 0.6578062199851935 0.5930527120647334 -0.23735215966505574 1.669064784379519
Ni 4.552734311274016 6.064622478166527 3.987073302031447 -0.0411096255561163 -0.020369821905603627 -1.512368130884002
Ni 2.576485631816698 1.6438031399695618 2.14679449318751 -1.620717503424383 0.40260647292259694 -0.06176895367768072
Ni 8.186305570182624 0.862690662552419 9.47637776152326 -1.275805299889461 -0.7614463422822048 -0.7086060585527215
Ni 8.422124956857655 1.0739685760507747 5.499451046414519 -1.1808585739082307 0.20715018216037875 0.664470758796404
Ni 6.67736047408261 1.1373987589405048 7.375502647164216 1.4069194769301834 -0.31371700887904036 1.2832740974626802
Ni 4.462330650994001 7.098238283573504 13.848348664722085 0.011404899402831972 -0.02026363534504252 0.6146625770250252
P 7.777452307072505 8.334879258253398 5.660167938005957 -1.5019770174576648 0.3383723455338753 1.5648705716580922
P 3.711847598907157 5.189231764413341 0.8178718987695296 -0.5001212167413193 -1.1914638602279028 -0.18487877235668806
P 6.72882216908285 4.045760002250222 11.662335651031123 0.05559984875249134 -0.18014100056138654 -0.3704926231071877
P 9.216978304797102 3.0493203196475225 1.0968348346461974 -1.042740197635533 0.7963986899876735 1.2224759923387012
P 0.49729487619513635 4.957102895081282 12.2043119477055 -0.6801735142436415 -1.1027955110562169 -0.7968818002716792
P 3.919805915413213 4.921898162553885 5.622918004854821 0.5240355614650716 0.7408394646651306 0.7734762768635454
P 3.7161173873267486 7.030622400001111 10.754482399282598 -0.003255016602187942 -0.507122844870133 0.8403915506288558
P 2.301070264130225 2.4598465976149906 4.297130014407897 -0.06309024359226553 -0.39127253596701644 -0.33174712690787383
