# total energy = -340876.84510138934 ev
CRYSTAL
PRIMVEC
9.19354707312190 0.00000000000000 0.00000000000000
0.00000000000000 9.19354707312190 0.00000000000000
0.00000000000000 0.00000000000000 13.45568543949211
PRIMCOORD
 96 1
Ni 6.9014302380997945 4.870502160647359 3.777629375658707 1.9911941856919708 -1.2302448376508426 -1.661044485178204
Ni 5.15309340788482 7.956261045017529 4.25719052834913 0.3814604349726011 0.34108974446503837 -0.09624487596736328
Ni 1.628020880816945 4.978838918323403 2.8417198570613174 0.4138020845281002 0.6493704128198559 0.7447318577410013
Ni 7.3504338793201205 0.8727590443546246 6.697957736864054 -0.5397501439868511 -1.3386893410081913 0.36495755222157145
Ni 7.779790910632628 8.721108992921534 11.518686034132415 0.10530184396330895 -0.3979656317164759 0.3043993310225403
Ni 6.458742563658445 3.999229712840275 7.961567560337506 1.3082703623967016 0.3329105510883557 0.9223745173605664
Ni 8.815673817213437 7.842040417270824 6.817955589536389 0.6801436894469705 0.3635940962151415 -0.20775053474853902
Ni 3.0515037283025404 6.903011528181286 3.6829560675123765 -0.7477855569656605 0.14688609516299864 -0.03608748975117656
Ni 8.190963106008 6.2611456583010785 12.25142827725398 0.953711636910951 -0.9719196752785455 0.45504077946291305
Ni 5.9644147358000605 8.054935384811909 0.38738481190532853 1.0705929581817433 1.728492748628849 1.42332028688571
Ni 1.1780151429752108 0.9366201797793618 6.6050459123201275 0.09393859643168984 -0.13067683239298786 0.3978872130700567
Ni 7.343529525534079 6.591883511101119 8.328974794643543 -0.1741873540811129 -0.07345076089098318 0.04917311929054112
Ni 9.102907805678528 8.367948079024083 1.1001016709832778 -0.36704323110600656 -1.7692660738914692 -1.1029065827127844
Ni 2.643209113133601 4.919972636975838 12.404635060347006 0.7093061699435398 0.4287147399738746 -0.8913767834274713
Ni 5.644653978100596 1.0861716085909883 2.78201696293808 0.05230703693383249 -0.378619108869064 -1.103070104873842
Ni 0.3538384783102745 0.5024383750089112 4.503389119844854 0.9965896672213996 0.0628336474967692 -0.5263531538546549
Ni 4.040453577522842 8.314855345183354 1.8462545410924565 0.34729355928290506 1.0641554300865157 0.2117519425984482
Ni 6.6942904309715745 1.018534683419344 9.310741725604146 0.4683405818956128 -0.47430528411947986 -0.6045555704980105
Ni 6.281316300387063 5.407754659380612 10.4113637513468 1.0199872202097338 0.9593991742140315 -0.12382818490227061
Ni 7.006438931767121 8.323956956698908 2.6742768664613887 0.5781979064400881 -0.6063388876506783 -0.39770954984161183
Ni 9.045034427405387 1.381229305540662 8.725500750316463 0.07629182988420409 0.46464924908695465 -1.6616170698522221
Ni 7.155723747716171 3.94138391520809 11.86410690082285 0.47405768688504807 -0.3537208029654876 3.01855018756195
Ni 1.3954057549921604 8.886022838745776 9.222149948788664 0.37511058149517335 -0.7717477242082128 0.24861950504875893
Ni 2.5406091287764516 7.099514401447388 7.929933484515416 -0.4798496109764768 -0.2850132131864446 -1.0592916742363112
P 3.8077924839631314 0.4488859638189116 13.372502267620371 0.08077172003242865 -0.17913389945311084 0.2578109417400399
P 5.046172456444529 -0.19278316415580743 8.245509339627123 -0.24952350492026706 0.3269857009634885 0.7294417643511502
P 0.7691054795129474 8.775277371759556 12.419234412959833 -3.2120583534588616 -0.23666953177573433 -0.7530236654361483
P 5.9027811968098876 5.8149368553643175 6.334478905184881 1.5149526037817265 -0.7991464279361398 1.2313915496607761
P 7.214286642013217 0.6731487522074534 0.9381398730960497 -1.2673224592294303 -0.06950411753840934 0.024349375378641937
P 5.2586169401833285 6.641243664865773 2.508086036960873 0.27418604066395363 -0.871701673596047 -0.057702754028107074
P 5.024935362908236 3.752658782691641 9.49173416575117 -0.4619362210311658 -0.5315889483322973 -0.14084400273397676
P 6.323799681006632 7.124327784761004 12.037240697006746 -1.3741916476798592 -0.5264120321170482 -2.1020544975796636
Ni 5.8492103985259165 7.943647498553549 6.569496304836952 0.9191701514906557 0.7417023268860581 0.16193707595885015
Ni 4.836780230304884 6.003597633051868 8.75526485868172 -1.3285427394924927 -0.17725725125568825 -0.6704447169916518
Ni 1.6256581392416953 5.627103496905454 5.601844226563046 -0.36048331850030174 0.2148688909608751 0.3990812333781579
Ni 0.2666854915980069 7.496850308609723 3.8956901479812167 1.8888197997881018 -0.3280948748672672 0.5250164373211021
Ni 5.811700726825454 5.59499963083241 0.5204420980704351 0.4643417451488648 -0.470400549748435 -0.6458683132038683
Ni 8.436467584706326 2.48521800818937 0.012233852973481977 0.19294303742206126 -0.2712812083123328 -0.8126843145215745
Ni 5.279017420943949 1.9786719563873787 13.357795350507812 0.9881734181332466 0.30634976988069174 -0.6417537768148626
Ni 6.865722501608471 2.821214569865064 1.641539991658987 -1.1629130451734035 0.6983283307757974 1.3395871702321123
Ni 4.9435908591813496 5.394994016164866 4.481080058730064 -1.598063513470293 0.16476554654658074 -0.28881047544534777
Ni 6.041888756246091 7.89551928008494 9.80418881166133 1.0830975184066574 -0.7190313676511036 0.7243142133165977
Ni 2.6211354068216375 0.17454592500085428 11.548341658643245 0.35351640026416536 -0.7026117886424996 -1.086440209626645
Ni 0.21734740234611818 3.94861004313862 8.50178681668295 0.18507751863105545 0.46502977235482496 -1.0288390141734087
Ni 3.5954767098821265 0.4803950074019993 3.9825866347325913 -1.4791445929441818 -0.3203190875765903 -0.8646781910903625
Ni 7.375495488402342 6.973351356166639 4.849724744460338 -0.37754618751985947 -0.6698721323176334 0.6023696185902851
Ni 2.8354737612394314 2.468173172078424 11.718704519765739 0.00575438598527396 0.3839945142483645 0.7674357270964203
Ni 8.193583266898843 5.290978225571964 6.64338116453988 0.6311921992489323 -0.5979213530109444 -1.3727988810973906
Ni 2.226346112174261 4.045932931526146 9.89280816911777 0.38787353758779647 0.600555705309998 -0.06126450323743642
Ni 0.9370614700346614 5.662930749507587 0.2915282942619755 -1.3441002276111174 1.0775519059980796 0.8217096579486365
Ni 1.7554894097696223 3.538899621733928 0.8069295705203116 0.8274535024109492 -0.6588534126096266 0.20271065833178636
Ni 9.265072780954133 1.3100896389675771 11.093109389340306 1.1125140238955615 0.5146381794105718 1.100656610336343
Ni 4.736754439103648 3.9469643982282325 11.657978383863027 0.10435799199280091 -0.05275183778073495 0.3348743596829458
Ni 5.2722509703626885 0.44273456153097535 11.218071757384761 -0.35714705503821714 -1.2954536702480077 3.0127595490221015
Ni 4.338140628910343 1.4864310636946816 9.59064753776717 -1.7831942539367869 1.679614534870907 -1.0566755767697027
Ni 3.6508218627342806 8.009280230482375 9.731232500203928 0.049963476402320406 0.8996539358345991 0.537802533342177
P 1.950760347739681 2.5425857413783137 3.0173837173755973 -0.8195702430081304 0.18672045355111713 -0.059838055203555014
P 1.7537150552014387 8.017940551742628 5.887844441022695 -0.06125036217004935 -0.797091345179324 -0.4391616463388114
P 2.1560798325647905 4.897089898529158 7.719096032789666 0.294697273243428 -0.36365246025690273 -0.2643124903039835
P 3.0262674418275965 1.6850116785794873 5.601978452349033 -0.25669508296804183 3.0916309667080237 0.5097993632610317
P 2.0891232298700664 1.6540110381446924 9.823484228074303 -0.4601554749816591 0.653645643156442 0.06683248424351716
P 8.457631129866735 8.418567748725739 9.01272554523457 -0.8107927539258165 -0.17146918381900145 0.06425932419970223
P 1.5470625060634453 7.023741187193659 1.9845116974325097 -0.11456038644709947 -0.8268636913457502 0.7465126037905079
P 9.011459593814678 5.082018096140633 4.354488594159795 -0.3388932510343518 1.5331891813944112 -0.09015059014416732
Ni 9.062594102147516 3.530735752010886 2.3342921441034252 -0.6493963809617849 0.33742052314356724 0.7173501232939387
Ni 1.434432361945216 1.2346657794992928 0.15748270179593765 0.46041181396683933 0.18408301592827006 0.15685451922962018
Ni 4.13579065976152 7.425958867805244 12.53442863733229 0.5150235877744485 -0.8076547225174672 -1.5966522349450631
Ni 5.217163236826126 1.8383416552021161 7.385476003009699 -0.5809186478053608 0.8855668616139135 0.030354186811825147
Ni 3.5976647740646532 2.033033399712094 1.7357425901996653 -0.5083821711985309 -1.574668017364488 -0.41003233307302284
Ni 7.868002993957615 2.0167240473599812 4.274628848271051 -1.4198089312983417 -0.023700428940733376 -1.439324118513134
Ni 3.8520961868858103 6.684646400183882 6.038009998772948 -0.6777188820555617 0.523824216785214 0.33729736730214166
Ni 2.575176865441584 2.5327210654629715 7.835810869833511 0.39447561628534644 0.5112566645328486 -0.20697868957952098
Ni 3.533015751663267 5.924340064490669 1.1223463772691704 -1.0346695048122567 0.3961308925005823 0.3515695609504397
Ni 0.6938002168007747 3.6152520294477384 12.020367780224428 -0.3530831693814887 0.3437840034677499 -0.48872043110354535
Ni 3.6558967006702257 9.152819572262306 6.548895404752051 -0.24458878662281103 -1.3423053404942238 0.4767529743290241
Ni 0.5715922354331476 3.1589854861089415 4.812022008273181 1.2653267689556402 -0.3358632059587764 0.6682775341370039
Ni 4.396666749019448 4.3119298264549455 6.858699551066319 -1.5644085444200089 -0.321196347975221 -0.19067763842665225
Ni 1.7760553743759793 9.090855065580659 2.5017884572758686 0.039903778173473216 1.0709631970369684 0.14520587924709832
Ni 1.375032854872497 6.986066031647458 11.315706307015093 -0.05961102679441346 -0.13041432276022055 0.5830146111024411
Ni 0.6033973112291655 6.535453519704687 9.096985322710529 -1.1076916628062536 -0.9522252821734115 -0.050725294269009416
Ni 8.244818904248518 6.147366320809673 2.4744873001480028 0.7752930183573099 -0.1040898259330788 -1.914811081645541
Ni 2.308104325515491 8.07050925340519 0.22959872305887244 -1.1162904602188581 -0.9934305527671279 0.45931729535107996
Ni 3.0955316248156577 3.771845715250187 4.577731818187655 -0.14527761302529818 -0.6768040835507764 0.25733400210362134
Ni 4.519336246445742 4.098988891178934 2.4498228522955507 0.10072090946084587 1.2241839761687432 -0.21962543180925403
Ni 6.7730147738076205 3.458952537148823 5.662004039971458 -0.8157349284224402 0.08626102528177401 1.4739710191630422
Ni 8.913557511967072 1.2028653004767678 1.9917506963288196 0.7701757517354026 0.9525672388938626 1.9800440826124222
Ni 5.443278524932228 1.289670771112987 5.122740912512497 0.5415002939087384 0.03490915317235923 0.45760391220439905
Ni 7.850424932121516 2.963383580447408 9.93881359758745 -0.26903329281842053 1.176520351544193 -0.5254774361179207
P 8.884000258408987 4.878518933618634 10.606416802253303 0.013485693191260644 0.6280726797833441 -1.0129375124518039
P 7.426905803144741 9.151026830600152 4.671639303870101 -0.6955854779233376 -0.8905046652351631 0.3400235079840531
P 3.3201759454040944 6.16939405938671 10.704562513096024 0.5207342650059806 -0.8400452230330308 -0.12026926390641866
P 7.767113009339751 4.702416541113151 0.8655356744881897 1.0027911680464214 -0.5370623127420429 -0.9780851806593089
P 3.9566268161098956 3.811442322116338 13.86904390159284 0.10430245616451714 0.16476451810531625 -1.5118834779380994
P 6.898828464302925 1.7458913467168566 11.443899287470222 1.0552915519379826 0.2077932150610163 0.813164853702419
P 8.593401431747235 2.4760704289388893 6.723348474928353 1.3056820328442353 2.1694186859569347 0.33952291419855074
P 5.7093581617838955 3.0513474380037886 3.747448799615011 0.44902722627898156 -1.0298363450896715 0.6862644576327278
