# total energy = -340865.0218549655 ev
CRYSTAL
PRIMVEC
9.25813368437247 0.00000000000000 0.00000000000000

0.00000000000000 9.25813368437247 0.00000000000000

0.00000000000000 0.00000000000000 13.55021447357164

PRIMCOORD
 96 1
Ni 3.415112545335049 4.605162295495434 7.711521640388609 0.8606006785868793 -1.0649216188285788 0.16524788549963798
Ni 6.578950086826165 6.679002736564249 9.37119299448712 1.5138994799268637 0.5010313872604145 -0.5068834751658174
Ni 1.8719390636756286 5.578664300918721 6.3012023757867945 -0.8216057853809206 0.8559181855095452 3.027892805119114
Ni 5.3936960498668824 5.583534079188568 11.141541632434889 3.54286677060255 -3.1865787211305183 0.48948970516940216
Ni 3.4211488484375963 2.674609988043381 2.9423070692543365 -1.4368394044180672 -0.16197409984437267 -0.09423350196428933
Ni 0.9349789115433778 4.449301616459561 3.0414264991262616 0.10792822584256251 0.1588306691193845 -0.06967432456768646
Ni 4.858196344722011 7.491663187078703 11.988240536916866 0.3990598932219192 -0.42729651947010927 0.129945353543602
Ni 8.082924630853396 4.9901617809547005 13.128707426807308 0.10621844224030741 0.04467574564081983 -0.9722667742053192
Ni 1.9700197309584342 3.830441676444539 12.63110311408475 0.26803364790931256 -0.7084044840648768 0.2702941618087151
Ni 1.2879730291721123 2.47712474037399 9.097424429265965 -0.17761746280858443 -0.3884417513864407 -0.8865071140399958
Ni 4.518533939467002 2.539552335190675 9.28811605850491 -0.02189294341834939 1.2081320649122032 1.0933675328740977
Ni 5.0280182892159235 8.371537687477351 9.409242071927075 -1.3639450302511864 0.36182003503385424 2.429886348593531
Ni 8.079239893683436 0.6763335075461652 12.561888381531135 1.4329626950714804 0.3818203894151811 0.7042930329996645
Ni 6.751197662321407 8.880614679348188 1.7177337389261602 0.11445908498254481 1.1248211233976888 -0.1005859265448784
Ni 2.1670698463489604 6.969717389513785 2.3314905957047953 -0.10013135550596304 0.10503830588927716 0.6300102631256893
Ni 2.6596766185580902 8.104227596250578 12.87575207171627 -0.9715805467715718 0.6354869699695442 -0.8609588332572462
Ni 1.7512963248270121 1.4424635044362408 11.28537692174699 0.20615285124411595 1.9210336655164852 0.11609070704869684
Ni 4.152171076930171 6.247508904201617 9.410014200268721 -2.809210196839104 0.24117770405873298 -0.7749366634591557
Ni 4.64981427381382 8.825371396199564 0.4555353536765823 0.4601382485904785 0.20434973659710615 0.3433942242284989
Ni 7.297418286166814 8.565514102515047 11.013559971087208 -0.5829701310177509 -1.7603366326123233 -0.1893622620493384
Ni 8.531694140500313 4.507303823418857 10.130004436772037 0.8145149399724101 -1.6556251139348455 -0.9616082660502085
Ni 5.028110870551852 1.6887483742736202 1.6934515061387954 0.290598420583706 -0.5790926503402156 -0.023575987547727138
Ni 0.40624875368160934 1.9593451029258613 2.4987952536748077 -1.5350195497349306 -1.4021642216333854 0.31437726817085854
Ni 6.218206911380202 6.119765176887275 0.40911784928203804 -0.533003826401953 1.3941691192430505 -1.2726580125097307
P 8.225953536729559 8.346716631314882 4.813699903047986 -1.4503464377655666 -0.4255926494051251 0.17468434832218946
P 6.171481111137015 1.2569119909680522 10.49485822353323 1.4421104230090196 1.8375239777276031 -1.969103267330202
P 3.0164758290934928 7.176220059302626 7.715315623534965 0.8632370877684618 -1.037919379208122 -0.9959211803994653
P 8.214843776418121 5.489638088289736 1.9941445754747202 2.353654425412985 -1.5991780866907102 0.4637550194074594
P 6.7119431758876615 8.040864929941014 13.133924385086887 -0.161774839349373 1.7632808028423117 0.4591185490767125
P 1.7018393751739307 6.389241671374779 10.747691371260842 0.8895016778919455 1.2219198627249148 -2.4292386877072034
P 5.7259426901140085 7.715904440831472 7.444393008580256 0.8605996501456147 0.7222948688937239 -1.1751170434387632
P 3.600617768135273 2.34787193728401 7.274391456294643 -0.7814271562795059 0.1638746593011952 -0.910067160748123
Ni 5.5044418439047265 3.6445661283006 4.2457837689410605 1.1338428672803247 1.210743020172489 -1.1877357606440382
Ni 4.476353882817912 7.563969210438973 2.4755702997437483 0.802650070214024 0.07453859463852323 1.3184020515140649
Ni 8.737178415593938 2.3218102912200966 7.555965553947943 -0.3616986789646416 0.15740627796803214 -1.3631986390034652
Ni 6.950247534567992 6.891384321184559 3.276847875005774 1.1186561322375574 0.48948302030118285 -0.10898983433785746
Ni 0.37030867907410964 6.801691522936889 12.086763742985411 -1.7658058832570107 1.1286584948659077 3.2898475938241987
Ni 1.5110477580921806 3.093559049387682 6.2903212913751005 0.5671714734225973 -0.08241105540806452 0.3471547197121957
Ni 9.204686387632814 8.715856933929572 2.886656428227629 0.1332852165501124 -0.018218065669923462 -0.26214067946364533
Ni 7.162629119188301 9.234747547408844 8.739806799720952 0.22532119664245065 -0.47466652411364063 -0.14572215676188455
Ni 9.089728142810216 3.3568696269023386 0.9084562104265397 -0.37027690755195586 0.14117361815925364 -1.243846230484361
Ni 4.544965910874629 3.103076410721146 11.889025748268935 -0.16858851983709675 0.5175728365588634 -1.418043611867803
Ni 3.3055703086642767 5.744042341288058 11.826708325242006 -1.2401834369207931 -1.2222353370828045 1.0576757358994429
Ni 1.706190697962577 4.73133214009899 9.509770589731835 -0.20534886728558185 1.2041825933461519 -1.0351073636806238
Ni 9.055760050657996 1.1567297273596664 5.02188570152401 -2.0885304949513 0.5314171986411235 0.5608434743220406
Ni 0.614854871422749 8.853710543127322 10.80336886087497 0.46383729470862056 0.33215156143514407 -0.3284697417081827
Ni 4.900478240840624 0.35948406927733256 11.750610170362096 -1.293097254200689 1.3154018312351603 0.29349116875046877
Ni 1.0061276682045408 5.514486918852984 0.5713314595893341 0.4393601355028626 0.7376777791076973 0.5358904039211287
Ni 6.362781925566372 4.610957887124567 1.9749441322164787 -2.1259302757559966 -2.5013679015732855 0.6813132842750396
Ni 6.48517445166404 2.289943795393457 7.9941928268726645 0.26608475171305784 1.3090843736575648 -0.14740957176663647
Ni 3.972479962026265 6.440550247746433 0.45639728591407797 -1.3261775816944255 -0.4885311979108748 0.4655735606734369
Ni 2.7021529354821525 0.5529586934742946 8.678939200414666 0.09111372538838501 -0.4268815434198778 0.9500051345936413
Ni 8.852164434817315 4.86268653951455 5.5544635397069735 0.5368951910365591 0.48137273248922263 0.8264407448757186
Ni 6.096018064221577 1.2339610777913415 3.890754713548614 1.2263904969017587 0.4474544824752229 0.40522925525742465
Ni 6.85812910531899 0.41478197541415246 6.4672331145744275 1.4949129115220319 1.0557376383364656 -0.9649956944652026
Ni 6.206041723839178 1.7276788260316152 13.162894936725678 -0.539184244181052 -0.11712891850522408 1.5923381809507415
P 4.155716942096237 0.32783976865692194 3.671050871069707 -0.9098223917271686 -0.3518544391807102 -0.4427773887145277
P 1.442648667108098 2.3100061708891944 4.188587945417703 1.6292864760403165 1.7431297818157336 1.6685683043590749
P 7.338820659594104 2.6103029921073446 5.667472021594913 -0.6622737511450852 0.5506781037532645 0.10307269752247411
P 2.818277705137451 3.255798582469038 10.548747041737217 0.4686843383882767 -0.24161710558899677 0.3294544742189552
P 9.29220352448616 0.30051809061101975 8.62754359758724 -0.5346434188879051 1.5525148783062166 1.1636285831831894
P 9.33997549382534 3.1586900192134824 11.919039691563643 -2.059047397890518 -0.7935851317982784 -0.1927121523581778
P 7.186746557197713 1.9521145005898344 2.077939016810377 0.5466615263947037 -0.14512514660783396 -0.4008023298343226
P 3.0438428719939994 9.09458866294647 10.658395746944306 0.39428921130615324 -0.8733451227367411 0.7449894822777621
Ni 3.3686830053668335 1.5324247885581046 13.16587605574258 0.6071310445346706 -0.5345261765837505 0.6355602464096409
Ni 1.09756099556767 1.101236474604037 -0.08785598454284621 -2.3414401427349802 -1.7166170802371854 -0.43548651148006934
Ni 3.045398238437601 4.286265883889219 4.756558702512827 0.7076087276364588 -0.3044862343093917 -0.36445207334006263
Ni 4.833384546693135 0.6637887365278339 7.918352048106638 0.9139559542795679 0.1044711205318975 -2.50555957105713
Ni 3.421963564193768 4.991689372997524 2.3483876153251324 0.5231726992441441 1.0037774432190907 1.6335989873727415
Ni 0.8540341237276049 7.7092663590453885 5.672539923923647 -0.5064587289235729 -0.6851781665470845 -1.3473035650397636
Ni 8.25282064041605 1.7858291631283967 9.92711706815121 0.5277680319243104 0.2221749377039851 1.3404538891077817
Ni 8.209224089327252 7.139752271080333 7.410679515101839 0.39797411635690816 1.2545024246466265 0.015802000029263106
Ni 5.659061933039156 8.370880359992258 5.102739759630573 -0.009384269428377386 0.3138972432106465 -1.782656636265762
Ni 4.171502059872072 6.759150399077677 5.650195418497269 -1.069588685286945 -1.2656237313707688 0.8534586682254592
Ni 8.380277365589015 7.259228485096249 0.9917081251336545 0.3174060276948533 1.1211182206248047 -0.9319418493340272
Ni 3.972544768961415 3.775244683963882 0.5595495587790548 -0.5084605898449501 -0.016891119328383816 0.2575417472390532
Ni 6.960746258062299 3.2526137845130925 11.57279105007067 1.1182092745081258 0.17222251704525823 -0.7422553711760507
Ni 1.7982535784100204 9.460701555876293 4.49959272394936 1.368631122872946 -0.14404554039041 -1.8293782086920172
Ni 1.3210708567666025 0.7665762389292518 6.916260000335226 0.15272558466291117 1.4503826903201409 -1.9784057756780509
Ni 8.986407371913849 7.152685883709565 9.617075135513211 0.07109048818892273 -1.2856153440013471 0.3038599135793025
Ni 7.826150295655302 4.1044916889269185 3.7296418953255093 -0.024421880487790197 -1.1144053273810035 -0.3398139630764083
Ni 5.556417005895067 4.20048927615133 6.581975644884312 -0.07320650609066102 -0.32103308292447935 0.19942864514640493
Ni 6.7955533803648205 6.50960666621561 5.827676616912557 -0.701960785322062 -1.357431911723017 -0.9304194991522299
Ni 2.3585095327822105 0.5598235995334037 1.9059321527885489 1.0851603144729567 -1.8639878283460865 0.9814664384267162
Ni 4.1717242550783 2.1905021824725 5.11385044575537 -0.9691164015017953 -1.146300376317387 1.7810047024846358
Ni 1.0907470092433216 8.027996124246933 7.837173029510965 1.0026417869527506 -2.7057448918639015 1.2320579796001814
Ni 7.646042564739717 4.887285400470791 7.749205021551647 -4.833623035374888 0.3787535775643993 0.4763565102215538
Ni 3.627383032352244 9.359695318378142 5.874600541214632 -0.25279034859699695 -1.008367376582618 1.1942725333212916
P 2.0213653398644604 2.5201565453136237 1.080683418027878 0.9816459014273738 2.4294567172552806 0.5588835223821924
P 5.686688203680263 4.842281613075877 8.928547740211885 -0.8511197356796375 -2.655124241493556 -0.8672811759308482
P 7.793033951793626 6.1050725188753985 11.168317080598813 -1.4150079103652728 0.7720457150646058 0.5931843525465913
P 1.1235763509636187 8.098098711812101 0.8871273222552987 -0.2852872927834377 0.7833855655574573 -0.5404345716483854
P 5.272146013926165 5.7647713024024805 3.89943976867208 -1.07826847244913 -0.06926423361346136 0.21919940001542895
P 1.859959038806462 6.0268690644164735 4.327775651666186 -0.7203624277577013 1.068285393094489 -1.7698090908791326
P 5.960608602292342 3.9255412247104426 13.388031451996877 0.5578777068254973 0.6344593000359783 -0.16369519630053744
P 0.22074538250810352 4.468401146061641 7.656169111263592 5.640490743214686 -1.2073743608105723 0.5416463325682994
