# total energy = -340886.8005012807 ev
CRYSTAL
PRIMVEC
9.10286528213513 0.00000000000000 0.00000000000000

0.00000000000000 9.10286528213513 0.00000000000000

0.00000000000000 0.00000000000000 13.32296347213282

PRIMCOORD
 96 1
Ni 6.681020503861818 2.011906133199039 10.976975665307707 -0.16363426115561497 0.6484486723365348 2.797165606969744
Ni 5.083149085155312 0.5490047153439022 6.1446705915274915 -1.0707587943356462 -0.5444976859741655 -1.570478918983805
Ni 2.6870747377330657 1.9372353310931945 4.590853398576373 0.3575895418922745 -1.0244581114968938 0.10941252369757286
Ni 3.673534018801722 4.6826230224151955 4.796066567967296 -0.01510703084476753 0.3345439729267206 0.11091507638502833
Ni 3.7073784711032625 3.103148493999548 2.717231619397878 -0.3001050745225606 -0.31595258307777846 -0.8730134504289351
Ni 5.247510416719756 4.876896368574276 2.335808829277452 -0.06022937710470272 -0.21084948538883685 0.2842655363871427
Ni 5.199028557398078 3.2581065659546615 0.4643762891464342 0.953201787154068 -0.6448110755839476 -0.388858270098569
Ni 5.7942284923600145 8.261077615641453 12.259857003118274 -0.09090906557674666 0.010131432007047067 0.4750961554518915
Ni 2.0430106231168343 6.695967408294075 0.14292044319676062 0.5573462598020595 1.9599079739841796 0.71118230392033
Ni 0.3623704935450827 0.21215592457392085 0.3926129421414802 0.9437059318484908 0.7929261580580409 0.03979450628911856
Ni 8.253658780615698 9.123528565966732 6.859514033435445 -0.14601886206669693 0.01861941487340019 -0.05967119060838755
Ni 8.89668516861483 2.6985716563067195 1.3646441820864308 -0.5311006958419692 1.0490748816043094 -0.6883318816847177
Ni 7.21170843412741 0.6794496819728143 4.661758345405954 -0.9581071948754853 -0.4755085603989617 0.1376884878241306
Ni 1.2782334149097692 7.8517763909813025 2.3714474562827665 -0.6574562751517838 -2.1342444520486468 -0.026223452472903225
Ni 7.584925901680701 4.102624872107259 3.5879807415139275 0.5134220476152835 0.4173296380653845 0.30159605724579025
Ni 7.785361887486942 4.29766285893157 12.24849298637453 0.8583296231645152 -1.4907430964150583 1.2415754321723134
Ni 8.4100915167109 7.577998621368309 8.811901083424797 -0.3993162322070994 -0.502709803404102 0.2997206945999484
Ni 7.001850982981714 1.2776144200855346 0.30574612142519875 -0.2736337677049094 -0.3795156525414044 -0.7707293102460274
Ni 2.0795131120165586 6.779932235628502 9.229921942528101 0.6205529743675312 0.8013267234169102 -0.14877662731749217
Ni 0.5823248426178549 5.26465111163202 1.3660032398402284 -1.0882577224513579 -0.3133151454549314 0.6012763855261064
Ni 6.794851831465572 2.0628730746827193 6.713068050600065 0.5496509480403309 0.5169789117286064 1.0787315281284777
Ni 3.437651476442981 4.8202583421568 0.2818137788899706 0.8744807790030812 -0.7826561435906004 0.2937482790665973
Ni 5.928978203876877 5.900995996675442 4.831505842227747 0.9549226264999167 0.38861324396729846 -0.2203617957546463
Ni 5.747421560209794 3.2116273369466835 9.183571974204007 -0.7401779198217316 -2.852272318135901 -2.2565708555944104
P 0.41490312781947386 5.8884704543497515 12.452200541884151 -0.6227890627869016 -1.3864542670972961 -2.4079638374888273
P 3.9458644328698145 6.541937828575313 12.382935021052287 2.417147303760308 0.6106282590546516 -0.01603854152010141
P 2.5426213720598176 9.073744996941148 1.050381420108967 0.2738697949751154 -0.7912567407754179 -0.619140924511353
P 6.478181361679137 7.926201415730466 6.03295750062373 0.6368316569228968 -0.5338034394851129 -1.073031649530223
P 5.021113059755906 1.2521901179665993 12.504213402563488 0.265583129486291 0.9270881207861518 0.26717129990901733
P 4.228153381316036 6.285437296850518 8.242397626247158 0.012760899210094151 0.26629043996596075 0.9364194254894067
P 4.896003282339993 1.3729578287478066 3.523164701124502 0.24309960367179423 -0.34639598716930015 0.6930071756732
P 0.15974799955088287 5.827372024051759 3.5297324182669336 0.0046105021888178666 0.17696517393656622 -0.3871950234635332
Ni 0.7180931647351857 0.18839016446933232 4.529380840524321 -0.6707059410728384 -0.35991767580481887 0.5406274043854818
Ni 1.979008378863976 6.789016894960653 4.550964643873483 0.4255314571498865 -0.4322919158021716 0.3628523329531106
Ni 6.230000848621261 5.492659675711894 8.993266566925572 2.0943697273408963 0.16465678888285837 -0.2195390427430348
Ni 0.35109659516545466 2.5073477699435007 9.83090765852362 -1.383710900024204 0.3711153442928512 1.3130513287251129
Ni 2.665783136352403 5.48960111305097 7.002869593582183 -0.8473944643092503 -0.23867627779311795 -0.49931389034867546
Ni 0.8924976873228382 0.34749550174681854 8.955548845540033 -0.49098505876800597 -1.630344999211818 -0.017111462869306013
Ni 1.706450393169327 1.2578976143606462 11.853906543087547 -1.6668472079029102 0.9862615458225144 -2.2898131625873077
Ni 4.04594133136447 7.3834430863922975 1.6504750553283833 -0.013812223292743954 -1.1770086040345213 -1.7225100486828528
Ni 5.780874589313656 8.19545506140751 8.169440893632538 0.8700248001142564 -0.5164685477510911 -0.17785528985100338
Ni 5.185137585313045 2.9481631134492474 4.973368532504271 0.4032970712317183 -0.5947378130766402 -0.42429244253646275
Ni 1.0633875937099462 7.711246360149895 6.800239817295933 0.6990641805005574 -0.038734697566036515 -0.009856581079105607
Ni 5.536526382447 4.622380261433057 7.024345983123609 -2.9759686054459973 -0.6849665647569106 0.12197570507456412
Ni 0.8416945974102793 7.939828404728692 11.597026421889655 1.1008250175934071 -0.9189078989682046 -1.2619198001566203
Ni 4.698516624813929 0.37798463798640364 10.367530656809816 0.5252784327332373 0.0599918071725999 -0.8451910289000283
Ni 8.522766780451745 7.224315902238661 4.952331811345353 -1.0631976941589367 0.7345742004817092 -0.3125574413533004
Ni 7.422002822796095 5.969959302387241 6.82007769112615 -0.36531005046498377 3.067009568614918 0.21813959129234692
Ni 2.7190257941016522 5.433163349664863 2.6174560257367836 -0.6952445496441509 -0.2453367205324291 -0.9481652531714252
Ni 2.6536945315497014 5.463148187179998 11.117119734660472 0.049727449132114354 -0.7718965910812513 0.32307531016548874
Ni 1.023453324681744 3.7729464081468316 3.621380974000428 0.5221949087119071 -0.11762976940104257 -0.4161140204907285
Ni 1.242058629152287 1.071916978273298 2.4073127446281317 1.2925817480168513 2.186181250127254 0.10468323654270359
Ni 1.5292358161369504 3.660790007714537 8.09147485437415 -0.24656519362289148 -0.049765501458901386 -0.7493508445702514
Ni 3.8361567031392716 2.6666114970730703 7.055627978910118 0.3274988931544811 0.8456916226855306 -0.7707359951142468
Ni 4.18816449509746 7.219254709264036 6.304666189008068 0.5189501765223643 0.016086106928585198 -2.0168931331199715
Ni 8.457135123352739 7.269484318677672 0.21230430127443592 -0.6967530158688775 0.44432056483193155 1.0995762327879708
P 0.5690883665308003 5.933493224947766 7.9265100028560775 -0.7986946851107019 -1.1830774359364205 0.2965422968719667
P 9.096483953866713 1.9076419167757372 7.761171933870451 -0.6613144725556095 0.49447687397134843 -1.2872418238611765
P 2.115278268846238 3.30050771141474 10.622172383488891 0.47646629632654075 0.926630721533759 -0.951976142277083
P 4.269789886110884 6.464654504196595 3.65819296031227 -0.5935245094948294 0.8157799227277628 -0.17097604623266685
P 7.426772724088728 3.911983569108026 10.080220567995243 1.922809012249353 0.9341370572131332 0.5178458877145921
P 6.781816528696393 8.439530182322299 10.116085856340606 0.38001650343722293 -1.51107255200103 1.4444095034558415
P 2.583056298666445 8.707746101382243 5.349516212321108 0.9831530821005198 0.633602865572954 1.2303949900754616
P 7.133223531560472 4.132837281248951 1.2232493790741072 -1.022511272183168 0.6202992064855124 0.0725508747845331
Ni 3.0430331731282814 1.9684581582567988 0.14455986919447641 1.1687728463882905 0.25776774720693024 1.553317833823486
Ni 1.9285876092840328 1.136611040270889 6.885187754057086 -0.5958698697985544 0.24997781884886625 -1.0849569402128991
Ni 7.59588575121568 1.0724267387167854 9.200932048164272 -0.463624407366866 -0.5033304677072363 -2.002156598240745
Ni 2.9612530334087994 1.6359851147222533 9.038417687920964 -0.11253152894252878 1.224690997712149 1.4443166866317192
Ni 6.756592489608829 2.099375563582443 2.481681331613909 -2.303417383634304 0.4900700031529044 -0.305820379739783
Ni 5.108600695869434 6.885516367485835 10.193252664046529 -1.8687947628164268 1.3963041633081825 1.9774572957218524
Ni 7.480106410488599 6.3822098553275675 11.335803323770552 0.29736787809705556 1.6606721894404495 -1.6357080632959442
Ni 8.137014667707701 4.041681190515325 7.716739939214979 0.1717993134649106 -1.5586109639016252 1.8351536777232138
Ni 3.3053595384929326 8.723876378272594 12.26325510264602 0.5585978728209735 -0.8174102592423342 1.0754824250635606
Ni 0.3827536289925297 5.114726924056345 10.215568337746696 -0.6846919709392852 -0.3916438032635061 -0.21504835396153288
Ni 9.2210202507837 2.387517654263708 5.491631962246363 -0.4310575291744383 0.5999586951559474 0.37176223384823076
Ni 4.050365323784735 2.7399532808798233 11.142833507888387 0.623253661128146 -0.30304615942875546 0.45185261154291856
Ni 1.3952962596106304 3.8681896852934186 12.693066902864489 -1.170919460417648 -0.5682981308278728 -0.6030003101957486
Ni 3.379411345774543 8.700527529387857 7.940806052436381 -0.27854457474296546 -0.9433724597684721 0.5183634507809588
Ni 5.8791673262561055 7.994591240943341 3.1717312999517433 -0.8733078417409025 0.9278967327303762 1.8330268611881981
Ni 3.2900485194581854 8.971401485045986 3.1771538766693403 0.3952981121866418 0.4445550494402408 1.6197224865009652
Ni 3.7446638063983424 4.195255626980972 9.016248570348298 -1.1590162812221587 1.1861450191181508 0.49063616006901956
Ni 5.531037354814447 4.583902450814819 11.159127636349861 -0.20069877010808015 0.6781117466186063 1.0660901852153832
Ni 8.12696510467895 8.862494807440923 2.464814632940019 0.02212614247507802 -0.17513274871351775 -0.11951618779047803
Ni 4.993749847378706 0.5440409230254433 1.4969816343617899 -0.33914213382036434 0.38672888246039205 -1.200449865776597
Ni 6.177013071093756 6.085811466034819 -0.05460808750858993 -1.1870582749610394 -1.033236371910156 0.896632632509772
Ni 8.060241103772471 0.08614132237081802 11.806902989051983 -0.5025894757761539 -0.11584259559363273 -1.2351782703967178
Ni 0.2141585548876214 5.039346098475643 5.8981686467870995 1.600624846439566 -0.6798220444414937 -1.6026621885845689
Ni 7.171491976282277 6.267067715154846 2.3290007964973767 1.9896520380158313 -1.040236457377073 0.25116541139906423
P 8.563165295598122 1.7708986778102367 3.3394943721899595 1.0801415211021268 0.23511812812821445 2.1406963783215778
P 1.847699550340654 3.396670377932617 1.454707929012583 1.723535918844206 0.1221597960609122 1.0042646672681543
P 5.043988559657404 1.157565835644247 8.170946507513838 -0.07805766353537524 1.5337617660684295 0.8078601536600538
P 8.83571417842771 2.0281911587954498 12.52652998655016 -0.5634150917039588 -0.0397345995854606 -0.6144646020816062
P 6.603227419039613 8.001636858501541 1.1344026852067812 -0.6725743617401448 0.5993364881909162 -0.7225167550965428
P 2.111928414503321 3.6095772888741755 5.770694855314514 -0.878531552033687 -0.05952875149325232 0.8986612329040266
P 6.965603374303733 4.02061716076122 5.713726394895277 1.976118265195455 -0.15230469507540867 -0.9070725968961733
P 2.496214965972338 8.841430777686819 10.161730352622374 0.437801275656175 -0.6311145519334614 0.585395966850424
