# total energy = -340854.20829074964 ev
CRYSTAL
PRIMVEC
9.43129891286911 0.00000000000000 0.00000000000000

0.00000000000000 9.43129891286911 0.00000000000000

0.00000000000000 0.00000000000000 13.80365928928197

PRIMCOORD
 96 1
Ni 6.070097145464258 4.391307079264547 13.33593586275968 0.6365794317027746 -2.258323319509143 -0.6381498615136881
Ni 1.7071216880852185 0.0785976156149287 2.839937633678 -1.810397039603824 0.1794966821091683 0.21551475207499013
Ni 8.085395956296086 4.078593501748655 11.850496855239987 -0.5629880314688691 -0.2923416285270578 -0.4082143060276776
Ni 6.851593434637642 5.06880443550468 3.025651226511517 0.5806841631970516 1.380997614858099 2.195408425152477
Ni 1.5025662463159934 3.6602022200959117 5.531457746009245 1.6184713877026835 -3.932009661821074 6.663015899354924
Ni 2.159277019787933 7.501843768365383 11.240237115093779 -2.448730477883228 0.7146340099143563 -1.7019234827807528
Ni 8.67309791574131 3.6993138166202773 5.8635045431333594 -0.5616456585083617 -2.7718551532294136 0.8476487464119014
Ni 4.137756039727277 4.466597138356424 5.078752569580856 -0.33408554523306333 0.4369965203666926 1.7159943590515223
Ni 4.160494901367076 7.120121376822776 8.81515496911217 -1.0067488671425886 -1.5349976953580595 -0.13739101118836983
Ni 8.659469688835665 3.5479131754325155 3.4506114078457704 0.004830845729740067 0.2841050995498784 -0.3276091934801003
Ni 8.484783170672099 7.453593243210173 8.683743965935838 0.9484521882842245 -1.226976708422532 0.33335818014873553
Ni 0.6188299614535848 6.141605253698584 2.4737674540159524 -0.7478007264743122 0.3270216964077465 0.2955457372866523
Ni 6.711359451343502 4.905227987441357 5.504237131133763 -0.32543224043343955 0.33673326726855557 -0.9324301018243555
Ni 7.298655864936171 0.23877125103634503 1.5428209162666324 0.12027183500957997 -0.19262550618164245 -0.39323583034097437
Ni 4.676801928164736 2.9145260041319667 10.007915307362106 -2.150852492918973 0.3269993278102433 -2.9705343218043034
Ni 2.1402163647178236 2.934718415069673 11.026736086321089 -1.473470939598172 -1.3446884960144196 0.13749899752114386
Ni 5.703672320732002 3.6392175800508872 7.384363736789276 -2.3002050473445936 0.6691717638164992 -1.8090158429855812
Ni 5.359637399580368 8.386160078109935 7.069944037302982 0.24674131418943956 1.4161211980341095 -1.0440239494439632
Ni 2.2377548579068742 2.887986329036822 13.476126462078897 -0.29134172650763374 -1.5281436485507038 2.601923489100861
Ni 3.0070376150091085 7.073596779365651 13.252106705646785 0.7555253488120794 2.130759835934156 0.21632413535016293
Ni 2.4611351722737926 0.6870097643072849 11.333314603904716 -0.32562661583243274 -0.6582936834514147 -0.27635605173207883
Ni 5.754629628670548 7.197090207118254 4.775748514279055 0.007525104732451557 0.05027123745072632 -1.3473596150886795
Ni 0.2795767088425476 1.37775243671786 7.018180353308774 -1.1038306371889506 -0.3790032316813602 -1.8937169799794031
Ni 6.952461176337207 3.2900708948972746 1.6341875674577222 0.789515589714595 -1.0137651505594218 0.5337538171941001
P 5.798824695300203 2.285109409666904 0.3292796540278404 -1.128013405082741 -1.6699291892623433 -2.3660759390057895
P 0.7041454912725902 3.782337540807399 12.504127366492284 -1.3305435719726053 2.259067910984651 -1.5347830082440923
P 6.900673914095757 6.987583333428294 7.175942405602318 1.0450009686452517 -1.087836061532907 0.12078271320772746
P 1.4325294207095451 4.576254850627657 3.9877531170359974 -0.4787656338836787 3.9964173386731816 -6.2959508138720475
P 4.018101150625606 0.03684714165928278 12.61722090095156 -0.42027072297157947 -0.9470434808621562 0.5464663796647621
P 3.4023976647562573 0.8247114438476771 9.410354811180225 0.35878124820753055 -0.09278802776701439 -0.2553041161577861
P 7.945916476913676 7.667806335049557 10.871555380535556 0.5307481975985568 -1.0067025872856856 -0.5521256348330684
P 6.152536129119788 1.1460348541263121 10.017190989826952 0.003084295352278559 0.0651520112173007 -1.0451644908063096
Ni 5.677962599939761 5.930353589712744 10.355560529731374 -2.017867066997467 1.0304924906164317 -2.228125455769524
Ni 0.12988124649529834 6.45250802182632 6.767437011453033 0.4484189032710213 1.1346622778578264 0.6272980064008488
Ni 6.2510554773940905 1.640800794244046 3.168906054842251 -0.01940900065423109 -0.12653427097952402 0.8393034597709996
Ni 1.7162889106127526 0.28744524151201434 13.631403367113178 0.5916056952055618 -0.6743967596608643 0.20039075194935813
Ni 7.923545435930847 1.856824695471585 13.477672251968055 -1.8050753702805946 0.2262218540798491 -0.3768866995589896
Ni 3.995899873022915 0.6483669033380819 3.0526105944075628 0.8636065552927384 0.7273774256229537 1.2742991476575796
Ni 9.165279679961365 4.7328238436107775 9.6099691954575 -1.4738092967741974 -1.6155560138281018 -0.13525082491691545
Ni 7.774078211016897 7.737475339999037 2.9901206941782053 1.9345360708782942 -1.622891114036934 -0.13162274124602494
Ni 0.25150350454680903 1.717694174148352 1.131436146564203 0.3616403149228804 -0.32298172201041797 1.1521442366926737
Ni 3.371198928006172 8.675663229041197 1.3671516567580366 1.172969400968141 0.04528715397257362 -1.6377934850700633
Ni 7.073804267941377 2.617421226290014 8.744300449891384 0.827493354509949 -0.9416305373767009 0.40148264373079884
Ni 6.2102745409650195 5.939898064196144 1.06306771773257 -0.293977621468584 1.1824212904096605 -0.032156015907254296
Ni 8.999722659129747 5.636879861945998 4.790090690511176 0.021800640814859232 1.1779154321195069 -1.93767564494854
Ni 6.433324759870555 9.031855094470599 11.348195307303838 -2.459761795996725 0.6723663594943968 1.0656692956278808
Ni 7.910841476317073 8.749378261217334 12.872464858640779 2.140015035983837 -0.36013544824257976 1.4672933500325505
Ni 3.9337664758918507 3.4358410506437425 12.270128352697638 2.2603714602874234 0.6930040903494065 0.18493405107465571
Ni 3.0384532716338164 5.8274958439459885 1.4839073645788812 -1.5085528709029699 -0.55127279991447 -1.4771771848051656
Ni 8.034514098748712 0.22412444384986313 8.332247944227072 -0.7155544648460967 1.5727947116011751 0.05063890520279021
Ni 9.274739334955768 1.5283136923038207 4.197526896484733 0.13714778482931217 -1.580112328308511 1.2035573010573273
Ni 9.298581658566475 2.3048679808553643 9.082932179905132 2.368699749781882 0.565823186924819 -0.7304784331457806
Ni 1.3189294254995163 6.172040055238041 9.149203087862151 1.0058392108441259 1.8046719641945885 0.47208410809844503
Ni 1.2892679904695834 5.518639667678822 -0.021346801922654958 -1.3440225802956467 -0.9676994665496108 0.11540910760063995
Ni 7.0370693587389646 9.105711596130186 4.512636967050262 1.214352334790302 2.0952176771634883 1.2874436554593376
Ni 5.984159149918074 2.68109192514123 11.660020456463666 3.00703293095097 -1.302872331309582 1.7479107481441443
P 2.333878656261429 7.449632097673584 2.634566384554216 -0.6015669201833317 0.14903322341298847 1.2757387083175835
P 5.952319084843019 7.757233911187497 2.018026342472735 -1.133377497608132 1.1129950772970378 0.7618276368810234
P 9.387896059117656 8.406871210486957 4.869089136329212 -0.9359278305649688 -0.09876789949953313 -0.9872869017632351
P 0.590939724356441 3.984044730309839 7.7110139446847334 -0.2036822782164363 0.4229397851633104 -0.1569635340036587
P 3.980734344397118 8.739069851523306 5.303338203946766 -0.3428584063296869 -0.9884788651888073 -0.1984202584865486
P 4.069237653243188 5.303917285699019 13.34256229336446 0.12219913393927985 -0.9000825387315853 0.12791701025966357
P 2.5295403831711223 1.84213073179062 1.6433944014406219 -0.32529854306905265 -0.2918178948131039 0.7233965865983348
P 0.32428672439195916 1.477799655413417 12.430029423580942 1.8317680490804327 -1.1280601991602766 0.7861775264802977
Ni 4.506642433471558 5.559835581259345 2.925174883716163 1.6178741204383167 2.270526289333238 3.421571379424462
Ni 4.914263171784338 6.141114826155958 6.531587576814868 -0.9922756132270782 -1.1570887251821427 1.9329023919296129
Ni 2.5300119481159546 1.0395554895832466 5.772206740424216 -0.34742777086792426 -0.8744578961849456 -1.5418748820938672
Ni 5.113621967861515 1.2733951144265385 7.877817783230488 -0.6832300416817781 -0.3088668798755906 0.8906787289191822
Ni 6.219224843617931 8.083934104967106 9.258376974499987 0.3997170671899438 0.09451066688507595 -0.22437837311320716
Ni 9.346360618776853 8.222432729264264 0.9837759585188487 0.46000660810862065 0.1567331631604075 0.3720357992245915
Ni 2.4777531209296724 5.183621068272376 11.45288272505654 0.18485614664886874 0.2893110692308501 0.13011556057287912
Ni 2.2930694259356676 3.9473003898085293 9.130236745781009 0.846541886500968 1.492312497784707 -1.2482399886766826
Ni 5.284036107624902 0.9599836207922949 5.440049597103011 0.13824538876886514 1.632636623459472 0.01835664813031677
Ni 4.282451027399528 7.872682440981268 11.01685208507741 1.2651357359907567 1.1202296473722642 0.20100575982553767
Ni 5.694373060019915 6.365985285748545 12.37723018296788 0.3793081645162887 2.3370355859093817 2.2030649132564704
Ni 8.16692953525754 6.143359475293358 13.435253098920638 -0.26249934835464467 -0.27919223562929335 0.6724686894002161
Ni 2.448308605774362 5.870087589763214 7.11747023870293 0.6684585397995584 -0.5578597091033684 0.04404222582187899
Ni 7.764015015094182 4.868719429412463 7.650126422137916 -0.3341462232676697 1.1353860433977285 0.9857455254180443
Ni 3.166681211432534 3.0108761536600412 3.567651940893293 -1.4054061256094506 -1.063662292500181 -0.7368023184812794
Ni 0.14510996482370292 5.957374261051617 11.454649207339882 -0.17926091194927837 0.5770450237825675 -0.13381692068386633
Ni 0.2473226097459285 8.973013220654462 10.419209536595128 0.3253216829975042 -0.2484618964249721 -0.5965291006491081
Ni 2.2683216976308844 1.9198069095033468 7.9445442229242165 0.5605321137292089 0.2286132371301611 0.5639365114250675
Ni 3.0982571379374106 8.799166088092697 7.6416920115346505 1.0170782740930546 1.5909328159627825 -0.7832063596671156
Ni 5.449555403260934 8.498373672382158 0.06943416560695329 0.761068904338128 -0.13052667996836875 -0.6372360914501671
Ni 1.1962565207509201 3.888175577025493 1.9780923366845822 0.693644809257199 -0.9889244373666581 -1.0311306384210628
Ni 8.427874713129775 1.5276723639788494 10.906657731898958 -2.616497530260294 -0.26082376042443467 0.21482029711112682
Ni 2.4733675669427346 6.435145000557606 4.617807267306474 0.06063638273513429 0.1236507787841419 -0.1803204635620443
Ni 4.544292178666944 3.8526478740818506 1.5554513117490127 -0.7525665232940716 -1.8804110068991164 -2.725867887866022
P 3.509857884384573 2.7683220086362534 6.383722729583456 2.01224303594247 0.46684754228985403 -0.15010588765187696
P 6.8316179435745585 4.422288896140009 9.862756299784142 2.721865194464532 -1.6814346187987814 -0.007573698582199861
P 4.360315831090188 4.882894671654113 8.632643302254062 -0.8926055136282498 0.6556485325190837 -0.1619069940518631
P 5.279792023121414 3.5487525610343167 3.5252893756392556 1.4989827107160314 -0.4077597349887623 0.7761124289348118
P 0.6897401253378623 7.395939713055012 12.881339710902516 0.13525828111608318 1.670228465670317 1.311456473434167
P 1.28113821082068 8.176096757785073 8.18761331686776 -2.8414361467523452 -1.38923337250433 0.826987361407808
P 8.503343966900687 4.604916567974546 1.49205129117613 1.490750038393594 1.944227072913813 -0.6688033247334869
P 7.54283219337018 1.6855051510141197 6.206221911829133 0.09560852793494502 -0.333726876342064 0.03354132629055514
