# total energy = -340872.06215944054 ev
CRYSTAL
PRIMVEC
9.25266730128450 0.00000000000000 0.00000000000000

0.00000000000000 9.25266730128450 0.00000000000000

0.00000000000000 0.00000000000000 13.54221386937490

PRIMCOORD
 96 1
Ni 2.3515376089220092 1.598962670168923 12.844748752898292 0.15176579185280314 -2.165746636421986 -2.601315937423849
Ni 1.0376588676151068 0.9303279281844021 1.1865028236707942 -0.4500065594731153 -1.9046138293975652 2.5388432728109245
Ni 1.831093584689399 5.7489504539258895 10.406392442444192 1.2364262838712061 -1.1982137773572268 -0.35125820035760796
Ni 9.212575385357884 1.0319869826262256 6.185826238611065 -0.36112712273188774 0.48962931607106 0.4279444374667533
Ni 8.998857278550089 2.6814969736666954 2.4093899105418783 -0.6994788994404728 0.28947150606811434 -0.11586599263240045
Ni 3.7355885782153306 2.235407382991425 8.055910562848826 -0.5795485069307116 0.2029032339585667 -0.2232458021706607
Ni 9.208874318480962 4.188617669284827 9.6603656162631 -0.8473661821744762 0.029744064031652 0.34068248172429066
Ni 8.077115825520144 0.08873955524121203 4.021793930341059 0.2899119360396426 1.0219518001352723 -0.3623337414454792
Ni 8.906932029994568 4.807732136456147 4.157175255631946 -0.9327520039401485 -1.7784526254867437 -0.662577141318117
Ni 6.76387551824951 1.3770929635647102 5.832198551188469 -0.38283674649483745 -0.5050129976159818 0.44977927395365763
Ni 4.353268881971844 5.461414568257909 3.222978787294443 -2.327104442838599 -0.4915733271713082 0.17968977195658084
Ni 6.288547499246564 2.3038401095456917 8.223753020450467 0.799030985404198 -1.616964978360486 -2.220110298774531
Ni 3.7473949815527083 5.087468023681018 0.7749034752215493 0.4194785660875872 -1.0762339585176046 0.8186880975134933
Ni 4.222602715882153 0.6137136853311733 5.964099023081613 -0.4086696483975414 0.05003983816621059 -0.15992441640419552
Ni 5.7139291086030255 0.31676413606174414 3.5471524592437826 -0.5463337107416397 -1.5232994330845249 1.238309616936848
Ni 5.010078715284603 8.567710745390388 8.03479875211615 -0.5961022975243346 0.3938598370782185 -0.05576594201671041
Ni 3.5053729658036614 0.8169133600747589 3.5948073963510154 -1.1135926016717208 0.7296340828676144 -0.0641060864512896
Ni 4.065825522975786 6.991972269874141 6.146499627243624 1.4976020283184208 1.7318963749937595 -0.624735387879995
Ni 8.895412459340152 0.3893503849186351 9.251661427378325 0.3587347112403112 0.3631734637379551 -0.26983110612936756
Ni 6.704177309524776 5.304600364682772 9.812444304769215 0.5589974222522373 0.06694021346597503 0.16364737378173752
Ni 4.285909464811884 8.504431754462232 1.6779341846552218 -1.1049444390784198 -0.9605245460677264 -0.03451243195457282
Ni 1.5566502230985255 4.555125069439107 2.2575545671829196 0.9434704187989169 -1.3924523936622601 0.09127853310102345
Ni 6.6648904846262615 8.470946351893291 1.7545832796762526 1.4451237559140466 0.880835003355883 0.5208561352958256
Ni 3.187118225057237 5.126014635204149 7.011006856822146 1.4056514088510372 -2.946771672167067 0.6546342323219565
P 4.731018272764771 3.231827112930441 2.8368233483573095 -0.2667712362571212 0.17422926306264186 -0.1691395072445603
P 8.494559158568046 2.5142642668330266 4.600398370011042 0.7418578786273159 0.033735958799864484 0.5614517973300007
P 2.292949720260352 5.663270755725171 12.978654277772007 -1.1185540594420542 0.9722413202840223 -1.3461023456428107
P 2.144268611147249 8.664280832876445 2.492349324588059 -0.7418213689624257 0.6306772072857267 -0.07159956661485734
P 9.030751222361955 5.636030903511035 2.2714085857699535 -1.1688355813054259 0.9134476471845816 -1.7230355821690198
P 0.6655147426072767 8.713856623692799 11.320803007257677 1.569155572186691 0.7210224299392034 -0.6835439733777712
P 5.610715606072895 4.428030432885645 13.443734967859479 0.5457878655404987 0.08257046380406424 -0.011400014306825529
P 2.9488898028570345 7.359081093395921 7.850516155447226 -1.299710902862465 -0.07936918325794719 0.9598953971241598
Ni 0.2819287693494459 7.30421277694557 9.88198365031968 -0.3035935472917933 -0.6806910773100083 -0.48067750619441096
Ni 8.100238240833706 6.061912669038317 5.981067489445577 0.55418431713431 0.5694929224669224 0.9207778622974078
Ni 6.678834254085061 3.037123237202828 1.2819098508907791 -1.5254015670291923 0.2753062703113259 1.2479787645954958
Ni 9.020980405806883 0.34519203074337323 12.950594639244633 -0.6538279343705772 -0.5410305533611716 0.747608665068164
Ni 1.9599092173406292 0.2416084215255509 7.876571666260749 0.4957773379503268 -0.5843477280915678 -0.011988025599811613
Ni 9.020998911141268 7.997811215014922 1.4008741687823651 0.9992209341966596 -0.40216372895822355 0.7656531812747007
Ni 9.077310643673618 7.737302370215655 7.698382876204675 0.45378016758293466 0.9026646976364647 -2.296105937574555
Ni 7.8580404244080055 6.898603605236621 3.6951960595873357 -1.6019337950589767 0.3745184564371292 -0.6638421240734697
Ni 0.9170781087650254 6.980869069243379 3.751356048377733 1.2354680337229949 0.386658691344089 -0.6694481574063373
Ni 3.4553900576308454 7.704446149015791 4.0653860212841515 0.5562178026245711 -0.05732557319434643 0.0024559177396602863
Ni 6.5242499433032695 2.3774265717260703 3.706896982518721 0.31721499472996983 1.04167447537518 -0.3477684420367946
Ni 1.744211039753682 6.563314704189168 6.055468186338878 -1.5234907231597246 1.6988664411219838 -1.4702804576853323
Ni 7.7165856483720905 5.003361278902991 0.4448885944737094 0.8381454349071567 1.1875156742134323 0.45862361171816496
Ni 2.008874332122292 1.624740600966677 10.269995174295591 0.7315894068217722 0.06997900029229884 -0.27642675706901426
Ni 2.836719718484756 7.838591317969787 10.775431372342288 -0.35101086023349226 0.7083582042079736 -0.3070059154074519
Ni 6.582615767952311 5.958329059820494 12.059395315349756 0.3791258733021535 0.14625488933690295 0.9846237531087753
Ni 6.3997645588980365 7.861278857925312 5.5838884228155345 0.0606492382509407 1.5899730231526745 0.39442188022927555
Ni 1.690924929393214 8.964705683943302 5.2700333253190506 0.8652556608603872 0.5216657756813146 -0.2701141845874251
Ni 0.8514998300395841 4.108110212044607 5.855341322369856 0.9234055297282419 -1.299505728830194 1.7500005407936376
Ni 4.512220451668402 1.718155528940159 11.211287513102869 -1.248549035276669 -1.4949638193646253 -0.5119367213190086
Ni 7.742058241152498 3.81126614318117 6.335860087667683 -0.5151804250672869 -1.2468464507632655 0.008118001121444084
Ni 0.24036763885506315 6.537721826735261 12.269258761005238 0.0008353514171017872 -0.4436981007565842 0.7364302798538414
Ni 1.770701425925243 2.7004649414109148 3.9786755759582118 -0.13068685969531688 -0.07237886798304309 0.4946216270793288
Ni 4.447155695972134 6.017250044501074 8.948762413104246 -1.7128154471029082 0.10492569157081284 1.6509583045867953
P 7.65488886353382 7.351567927635772 13.42832372538398 -0.5057208223162838 0.356099073389677 0.001908786986938648
P 1.3419975969043085 2.8346563737008723 0.5340870820076596 -2.0303852540691354 3.7186664634761053 0.17521013891867243
P 8.228887325475474 4.553144998659954 11.665736888586386 0.3823081276848771 -0.772356047216173 0.1174456784146945
P 2.031386071401163 2.119212388390495 6.0844623442526755 0.8353956400761613 -1.6302982051342827 1.0165738236528106
P 7.954369942547063 2.4152237172066244 9.568670759120664 1.514357650510205 0.9644578196838617 -0.60913341967668
P 2.4583133883211756 4.925509337146961 4.72593485740932 0.9984521743514352 0.4716153959921426 -0.9803099562247698
P 8.090874541635097 5.771628741214222 8.202085124419533 0.637999966199385 -0.2752797879487646 0.27277219103556244
P 8.998431655859243 7.956183465316754 5.393024403972726 0.47091425616005994 0.2894889895696111 0.3010877501508041
Ni 2.9305417638146993 2.3301546950405987 1.7969836270849773 0.7712808118741232 0.9098681573634395 0.6351121031286289
Ni 6.468493370802457 4.802698685503535 2.881362912420894 1.8208848265090254 0.1424455428931418 -0.4279652634023597
Ni 5.221002516600323 8.496789051361391 10.604257954551416 -0.19857683866907092 -0.4765817388584825 0.32122642988220806
Ni 6.496131087705863 0.7428624140013265 12.548296071857088 -0.16666739155498392 -0.27010338595414773 2.027469880194553
Ni 2.6359368404117998 6.614629996437676 2.0801652075722608 -0.31110168274338035 0.7167950221214171 -1.2550937783737222
Ni 8.275511515457485 2.6957368284756487 13.395782094868652 2.390443569216876 0.4438150859504228 -1.6342682455256239
Ni 4.048532287993374 7.242987878134107 13.008758755748882 -0.12268044445107257 0.2632202856810692 -0.40226143087835237
Ni 0.9766745381506434 2.493677082330154 8.182422281369172 -0.24412418828156668 0.29287693220523753 -0.7778795481375635
Ni 5.045655220639005 1.387492961488858 1.3130367485924028 1.2317720729286463 -0.22073691970587794 0.9259889741847019
Ni 7.159917432081618 7.674717329326923 9.074786516063558 -0.4190435354326976 0.8034201156108292 0.7485455750601366
Ni 6.05589843536332 6.286206574446913 7.491850390738422 0.8167911376010965 -1.13172196428258 -0.9024723791200007
Ni 7.713837606215977 8.225306543272055 11.34322869673166 -0.34406913880833645 -0.38253644164559925 0.686610785228553
Ni 5.698107047704189 5.566210276877922 5.216745364425144 0.8847731620680246 -1.1062053080687142 0.018719173676058083
Ni 6.40592683524811 2.9067809144648673 11.64493596747137 1.2054581176244659 2.6519759256725615 0.8697154964039537
Ni 4.120360743407215 2.8737488925883485 13.203522773813244 1.5007385170648735 0.1905917635810653 1.1549860770168432
Ni 1.9337796851895679 8.193172030113189 0.021134942400656522 -0.23342685646872055 -0.009100676749687552 -0.0895936891994328
Ni 0.02251266454559031 1.9575960505425538 11.355470900693795 -1.306833372839859 -0.45797440816994034 -1.3200010205700685
Ni 3.661965105366183 4.1758489885594505 11.436168962878176 -0.4985019359703414 1.1366510261530813 -1.3922073675309894
Ni 4.226599868109227 3.4159181793884845 5.117642821928554 -0.28077449251474873 -0.3881692144513444 -0.02862254883269909
Ni 5.769445111756839 6.635189422938972 0.9581118372294469 -0.2936348934171846 -2.3624519690999572 -0.19786772841718828
Ni 6.704445636873353 0.9937364564532486 10.330122706778045 -0.09406895136196702 -0.8573564606179686 -1.34560895094616
Ni 0.9510724080295435 5.402956216936944 7.854985193701108 -0.11880836309017603 -0.16107832750298065 1.447717999003784
Ni 1.1130588525651768 3.9106953048296482 11.829299987611588 0.836626684269785 0.3767812843293769 1.609445272944673
Ni 5.260483647509875 3.4952412952280905 9.65672284118949 -1.7284199864093845 1.1508057203869084 0.6971620783818381
P 3.7067295092425407 0.4757980544963139 9.524929700235777 0.03390847982198676 -0.06452389071499856 -0.3072072327849806
P 5.621865070039619 3.9925906621487144 6.910415560174314 -1.0590865002040406 0.18870560230194597 0.26289144158674077
P 7.029565856676466 0.03598547324430144 7.572941691278477 0.48368672533437984 0.40746122991173694 -0.08180993148895588
P 4.415076698816422 0.31604427855418304 13.132629763052545 -1.1697632353260177 -0.4169043776025078 -0.6588971213633685
P 5.6525746724508705 7.200573651724594 3.5779481114599214 -0.23660551130701832 0.5660324747221477 -0.7852755834913185
P 4.787357763298698 6.393269186529041 11.104858708723414 -1.5379220680937062 -0.40617670677235856 -1.3143831601626588
P 2.3656664317246547 3.8396995894631143 9.32400340582134 0.05289839066092825 0.20827632534502197 0.23159314569409145
P 7.660440463849201 1.0174417897999266 1.0923023442526856 0.16970617838130772 0.24582908678781534 0.9366999328443029
