# total energy = -381164.85953701934 ev
CRYSTAL
PRIMVEC
9.30817080343572 0.00000000000000 0.00000000000000

0.00000000000000 9.30817080343572 0.00000000000000

0.00000000000000 0.00000000000000 13.62344885514891

PRIMCOORD
 96 1
Ni 1.7617016765518083 7.053508589328785 7.98797356176 0.13921829420509574 0.005850031022873796 -1.8276126321511623
Ni 0.28210646183070354 8.151667987820993 1.498006776963367 1.0155081013924574 0.9642691007118233 -0.27886184887306814
Ni 1.6956043542655077 4.803332714925902 3.2257196671008073 0.373412367857144 1.4353119120299476 -1.6821339588586515
Ni 9.006130161305789 0.02892327975499532 5.249182936123909 -2.518239994738276 0.710256449671951 0.4257469155948023
Ni 8.599046610697554 2.30221785847593 10.243062288817821 -0.23663070811799894 0.7496092404379605 -2.4655156677613665
Ni 0.22453542418237668 1.1320132164270447 0.10432970386055081 -0.06735698928841947 0.7267045679256453 0.7393410257427331
Ni 3.670891322632758 4.843404391090178 6.861054707322435 -1.1962610245062302 1.804260844799099 -0.08229844108960019
Ni 5.968780881592686 5.973286036357729 11.651727378868305 -1.980408407930376 0.21416080915025698 -1.7792139291328004
Ni 9.21616903996941 5.972718237926598 12.159323352409107 1.7400686263919065 -0.7627226378914671 -1.8311846657731365
Ni 3.7689063632854474 7.145966651893187 1.7533652786022784 -1.724759506838662 0.8521042110800937 0.6966195756148068
Ni 5.690959901691374 1.148032578721753 2.656081941379344 1.8755462226076471 -0.4404870500184543 0.6260700475310186
Ni 1.6093548417595422 7.313904673114062 3.338235907357753 1.4498139623008643 -0.12360372759629035 -0.2519349425752371
Ni 7.934247729552664 7.489521935411716 10.904998907379548 -0.5817650549660561 0.03989323665051194 -0.04169172331183142
Ni 8.165211376629127 7.671068502637741 8.394034144375098 0.5934059816390942 -0.10651848997922946 -0.6107131054589741
Ni 0.9656389679345314 1.6252345814892182 11.59723362255329 1.4114286776544467 -0.8592253955059073 0.38599457539752874
Ni 2.5076491924934845 4.65165606844579 9.529071585560741 -0.024921960052660307 -0.9425075406650155 -2.731162046385425
Ni 1.5674773804208482 2.110106517162459 9.252528617538026 1.6445300324629484 0.2566549737587257 0.14455667569887362
Ni 5.662932998803887 3.5058574507645552 11.770618785444627 -2.374320181292453 0.8461186829206202 1.7060788997100231
Ni 2.907574759601061 9.181198241514315 11.509853167270565 -0.9364276530195228 -0.5362272184352571 -1.4923212395354557
Ni 4.081521286392813 8.932949320886848 3.808817008091386 -0.06669930109976255 -0.0709832731870971 0.08787002164010672
Ni 8.296735832889574 6.4106769917489785 0.38816469304635454 -2.180998934595366 1.088909497102744 1.9248394124158208
Ni 6.075396672251366 0.06788262948451385 5.051234440774987 -0.7381138382038513 1.6433987470719824 -1.0590060246750923
Ni 5.096847271136847 0.9463803621310732 12.093481074008265 -0.626370866600889 -0.6600664590811213 -0.664652792900223
Ni 9.033254171606067 4.104568317794148 0.7392828655041331 0.4862004928951691 -0.6161990682742098 -1.3190170593902446
P 0.22876784953705645 1.568975995952195 3.211509813248918 0.7751017282821102 -0.16774596933114339 0.07036852242123365
Ni 9.079860183813857 5.680339278577916 6.826178852211561 -1.7641416081807104 1.6187508666163153 0.5092247217044843
P 3.408503290253019 5.176590372112305 11.271429021135871 1.0493034526753475 -0.1716185649126722 1.8251551717496048
Ni 0.6084258051045417 8.189338155866713 12.211474242082879 0.5537022352915689 0.7847019703760356 1.2494005846436869
P 8.390180561580205 2.6856400383966865 12.330270705314978 0.4196289756225225 0.05921507690757544 1.072841387896288
P 7.27509890820608 6.388532852934852 2.635851562523261 0.06011804833781904 -0.6763831939632738 -0.13689453116792555
P 2.534773202793763 8.257715980048541 0.2424536533615245 -3.258423313876646 1.100948173434833 1.082267566306194
Ni 5.383054913111099 3.5593422013429357 6.481423745450855 0.9328967570481289 -1.2995522657974135 -2.8692621678256773
Ni 4.817732455466235 8.147535159896035 10.562464730219956 0.874682610601242 -0.006736290282569044 0.15638606423363388
Ni 4.089489080770657 7.3762973433415056 13.034956960838304 3.0325318465530224 -0.3543242408774414 -2.1928722889941845
Ni 2.766537352576413 6.96765002000491 10.143774821189137 -0.9458630874008099 0.2423544979756536 2.167162028712274
Ni 7.9564384092218 2.2732508303172243 1.8520533000184234 0.07012606739312438 -1.1816173064511264 0.5619763023749031
Ni 1.4229773337833986 4.659726252704659 5.684493515296177 -0.8140577978303334 0.8293615180669394 -1.793647073838995
Ni 1.338161279611765 9.285915165288554 6.964429392838165 0.2638419784254682 0.23338006239118517 0.8914801417745549
Ni 7.893524481418236 9.245741099243254 2.7990331083620354 -0.013039092572145285 0.2810632273997611 0.3016099412028612
Ni 2.9004447006134106 7.108854974107596 5.439270681061513 0.007687084231612568 -0.07885496262569 0.32011879864032616
Ni 7.682787489929454 1.8444606249319657 4.442633642055605 0.21536279987815812 0.24309060481072972 0.2728099862520334
Ni 7.384460609310396 4.654113425590359 12.63089949662287 1.4588881566879908 -1.6567304311838822 1.44441824520659
Ni 0.7192833292889036 8.393894521810065 9.870324958390437 0.18901053513687446 1.2572347359761251 -0.5607254606869375
Ni 7.21120762244729 7.752747703181648 5.850672292197645 1.195704894892444 -1.0983356755126503 2.0029523546691634
Ni 7.453452772778366 1.0648175299624898 7.056347581484442 1.8654333025433616 -1.5599080854464942 -0.9456743684287713
Ni 2.8417194497608165 1.0233868608318992 13.387572818010328 -1.0112588391978004 2.007374909216891 0.12351528164754212
Ni 0.5739287925534562 5.970437736031069 9.540310271228742 -0.8107750133140037 0.5855245220084884 0.5179284201260693
Ni 8.886017522693985 4.072073492825626 3.1525751285487753 -0.9039474210036303 -0.051822383987930105 1.1923822582771142
Ni 3.8341101011555407 2.330356459415444 7.848428254546998 -1.0966230636969179 -0.4377783928380396 0.6570369282261781
Ni 2.1956672250142653 6.13053827726813 13.031891780127294 -0.7065936561083831 -0.8400539647837789 -1.7934177314370081
Ni 6.735243606423111 4.27879866261248 1.6082211065314798 0.43843376703385134 0.03405246159901877 0.1946430508323035
Ni 2.5876249977439976 0.27434065476360586 2.0550970881739254 -1.1464865241862643 -0.18082774221576597 0.2662791271120511
Ni 6.0543229731024875 5.595067124027176 7.0729133334169765 0.02498160964600214 2.0027489804091054 0.35378996564052617
Ni 4.5311711029939 4.544137385199902 2.9139601649085396 0.3942658142673855 -0.6426536629213125 0.08346237949071433
Ni 5.9622093128651645 6.091918675780191 0.47739188945590927 -1.5077792259617386 0.3320602872729185 0.2388912220174015
Ni 2.346264123658126 2.7028694629216754 4.136215168384374 -0.656292850971302 -0.9256120504612575 0.4143900958210863
P 6.255695944563103 7.751528332780366 12.684044498959672 0.8292915840609524 2.0544921744196682 -0.04067459490122673
Ni 3.177232473533483 2.606948760744471 10.96837545128192 0.923425841443216 0.07555289483565052 0.5465455696421296
P 6.951872670156257 4.5443049322779405 8.628929562882872 1.6232035030710303 -1.2196138402995576 -0.9296404548943601
Ni 0.2137183986607727 3.771354412259014 8.247459306421268 -0.6556657589102644 0.5758054949485115 0.7850413559933255
P 3.2506087855434687 4.715928989215669 4.571239055889776 1.5809404806367613 0.4719108157453744 1.1518616724552484
P 4.680399700500445 0.9144598513133841 9.651955266679888 -0.8204359334425355 -0.33542097621503525 -0.2747313716444623
P 0.05627534024482692 1.072655009946304 8.369743541327875 -2.2095150397571888 -1.2160119818809123 -0.8171966005696314
Ni 6.165248446935166 2.403313903730332 8.098936268276686 0.5128682319943425 0.00614827898958296 1.5808695181895096
Ni 4.695990886929054 0.2167752020178803 0.7935020307745843 0.8815423138355526 -0.47111531642727256 -0.07070533693536209
Ni 3.218812073400108 0.9631164535929475 5.906732613692323 0.4570130726979355 0.015121943243102986 0.5694265880053613
Ni 0.9186252578368485 6.021334815070851 1.2564020287972388 1.9993597522218982 -1.065833332009571 1.5464604445820205
Ni 3.8889631528712383 2.366192917773739 2.2575693546298945 0.015318889745257488 0.2030400166467471 -1.4865398569669883
Ni 1.685272284453116 2.926079403553345 1.7671925666259793 -1.2802340250847757 -1.1836808738483744 2.5174612075907223
Ni 4.955884329480215 4.333614481644169 9.019786178983049 -1.3770977655830607 -0.34244008784534574 1.1705289098474485
Ni 3.089456420983164 8.931664793288551 8.802873216034337 0.09903735111083589 0.8975754560390153 -0.03800347582696681
Ni 1.6980710195810789 0.21011892893423947 4.412008828641416 0.7775396482996415 0.2861352426060298 -1.4708167898047766
Ni 8.772336830244669 7.3885375882093385 3.9698455739773615 -1.1191197021375372 -1.3851568884421115 -0.4801470876122376
Ni 5.77328136603443 7.822410054961774 2.17728637973631 1.8264137267470546 1.5000553749549197 0.7081766843247869
Ni 1.941098056276336 3.298462092665546 13.374181152389529 0.2954606337720137 0.9499732529144413 -3.106881207998875
Ni 6.788132634057354 0.013918508099521932 9.403845037800354 0.004015034696664053 -0.5164731757367814 -0.6176748814887878
Ni 5.079105897206738 0.14956183002842138 7.2280302798994835 0.02763087434339112 -0.31712963410501516 0.43482933751204467
Ni 4.637414566812494 2.1510624695719396 4.581429641502934 0.6353874682772025 0.14965388771612292 -0.04485675130337436
Ni 6.6397138474279975 5.730054219900424 4.9085150472502495 1.4111805661993826 -0.7733626341038166 -1.3967229960131557
Ni 4.760505820144989 6.540758681504091 3.934206448844312 -1.0200530404506627 1.3152506503692767 0.3207073241539445
Ni 6.30086849843656 2.100714572621285 10.325307426158659 0.22720272993587967 -0.010551550263601182 -0.10567413970106318
Ni 0.10107370564399709 2.4803110942601556 6.1789016721611265 0.2425290758803049 -0.34049401986256844 -0.050391565078674504
Ni 3.375282427946329 5.081768034113355 1.136248434233025 -0.5961984567825668 -1.9703931897862197 -1.627603946131571
Ni 6.218723889342544 6.555344585464467 9.365412530549557 1.748393344207518 0.07905910821669611 0.13142888006766398
Ni 8.03514830321602 4.947767604366336 10.285812856596516 -0.40259104630362924 -0.5438482253156246 1.1653861893042448
Ni 0.9089475524459082 4.009652898085177 11.027677808736646 0.020507375924732424 -0.2836811246385824 0.9116758999961395
Ni 7.774919766508781 8.88570104487991 0.25690272720816926 -1.5659859162094578 -0.4220301288648473 -0.28295993020184174
Ni 7.8285999886782065 0.5185488983590365 11.53411584580478 0.018830759553257893 -0.2778570617576376 1.060249153053574
P 8.218128328776377 4.252689242951436 5.377488626851811 0.19087381359785838 -0.8566967155467827 -0.7013977137297404
Ni 4.216387376043032 6.618370211320056 8.52438297863797 -0.7981418979310254 0.7217706209591376 -1.9202633630093635
P 2.0737115685440344 3.4913460121721958 7.162923347007813 -0.02173302080171741 -2.498890900787703 2.3561864478062193
Ni 6.717167138336927 1.8178951048918164 13.51281332802722 -0.09267464211760168 0.6104266845668068 0.3840683049090934
P 5.052652075218616 3.407116372773698 0.4876867265842924 -0.20390622130178432 0.04734969292855717 0.04027710235249193
P 0.7635241352450447 7.520601918387911 5.778958419528645 0.11908861333475619 -1.0923300927485189 0.562963605988837
P 5.014358259715751 7.405785629076332 6.042135784809367 0.44304812587741116 0.5435656610781994 0.4814138701398032
Ni 6.378619650817558 3.575957286581782 3.7954244116534857 0.5909716611659888 0.11985711606966455 0.7395300018250877
