# total energy = -381167.2708849573 ev
CRYSTAL
PRIMVEC
9.25099870066153 0.00000000000000 0.00000000000000

0.00000000000000 9.25099870066153 0.00000000000000

0.00000000000000 0.00000000000000 13.53977170370184

PRIMCOORD
 96 1
Ni 8.750482663085279 7.974897434362731 13.047127509701909 -0.7739832984069509 -2.5105608809264632 1.256638497153023
Ni 0.46745296413738846 4.668932787162463 2.4008450845286884 0.4353343021729212 -0.6451386341266955 0.4947147010137673
Ni 3.124811590724148 8.052763090391712 4.248171463646374 0.4482913765542215 0.7995266940936939 0.06029236913215423
Ni 0.5846631176228568 0.6758261591782789 7.857820495258493 0.47051290695658327 0.3816823211754201 -0.01906961503694135
Ni 8.220788979717408 6.252851779993398 10.922276720286519 0.37364119603849844 -0.441514205731388 -0.2903084001471129
Ni 4.82241610653716 7.927476815044144 13.052800222102643 0.7457525856960316 -0.29623402160292855 -0.0739410702638404
Ni 1.7817053449634763 8.74539461380217 1.2330341628694725 -1.2897725607028305 -0.3806227695626542 -0.1039944380057951
Ni 4.7827200711302025 7.818592560385582 6.602886443174645 -2.2878961480702533 0.48109299646527465 1.2873379831194087
Ni 3.5699696480028167 1.486533729552203 8.011185401849874 0.7199909033508956 -0.7308286173963479 1.0872447078058114
Ni 4.609800403494025 8.409407592141655 9.060097862761499 0.35753734849810037 0.7350331423959986 -1.245793326908403
Ni 1.9169826989033345 2.5719904106148657 6.632484088404432 -1.358471665841441 -0.11610716210892907 -0.40880540264445725
Ni 7.975776279238905 8.618933461620136 8.495326242535995 0.0460163188291143 0.7460678029436053 0.6087251284946678
Ni 0.378662803747635 2.195622779643848 2.4890431810018616 -0.034540971199663095 -0.8522001132280097 0.9311982862997834
Ni 7.451401920121557 3.545426748460832 3.2148968909314206 -0.11694585596014052 -0.24258075505384674 -0.39768178192746995
Ni 6.671348459028568 6.570031521303797 0.32836789913402453 0.3182038410058004 0.42270890009942685 -0.6627213802054651
Ni 8.6680377627015 5.05316376702556 0.20110468536499992 0.07708013011345435 1.490632281868807 0.4725718463681409
Ni 6.686695865866168 0.9611510115769295 9.66949537559936 0.3112106975174188 0.1816792915827839 -0.2548449171331804
Ni 2.1374339978424595 6.759519727605522 5.846162150594652 -1.2765879436917562 1.6132448491964213 -1.0967547041787757
Ni 8.171268383694699 8.613049826449123 10.929087305526927 0.5282220887425935 1.7290126256880611 0.5233665604225051
Ni 1.102876311608293 5.669002750255838 9.274473105756721 -0.5664803608928437 0.5563689834904546 3.3164525980062365
Ni 5.212336450598643 1.3952263724171143 11.337568853373199 -1.0359483715246802 -1.4073359956423117 -0.15525272196013906
Ni 7.963111662023309 0.760376586865397 6.246898762332158 -0.15613486745477625 0.43494580848525094 0.3865234513178053
Ni 2.4493406698958173 3.1834814244577583 2.8825501372580042 0.936545923764942 0.39989010243269835 0.3653115931268805
Ni 6.877747490947612 4.4869933957971355 12.129644912372243 0.46789063884238774 -0.7622153592377453 -0.10145135986896721
P 3.5501725107921698 3.5515139056031715 9.087461391806066 0.6511904967477302 -0.2784453301609398 0.6506755047845245
Ni 4.269789197400504 4.5650903267935306 1.864819092553018 0.028175176882635346 -1.0551354859760924 0.8942559047474793
P 9.216085427483355 6.649617863090339 5.261649824250549 -2.319591679401321 -1.1474550587471206 4.1840744451059555
Ni 3.2408746203712426 0.609530727219091 2.8723139072002555 -0.46063961370692924 1.23905729373615 -0.2661701123380126
P 1.6473993458867575 6.316369137044006 1.5035509416545327 0.48146760619587403 1.8051759004142007 0.7849315698883386
P 1.2939649406845228 1.1853582159868592 4.418988379278822 1.9520121161758706 2.2949610253368347 -0.8250870590613016
P 2.5547187960483804 9.049262167988212 8.923359776127453 0.2858619343399851 -0.193792272796234 -0.6140074599395297
Ni 2.302545822578737 3.5788506067515184 11.225676173938517 -1.5396583340585226 0.4527239584042784 0.7465465423522368
Ni 7.067661243189378 7.589741354629978 6.7508755944234515 0.32649282048746997 -0.7888928685289317 -1.273666142059271
Ni 0.42740816607957105 8.792093655222425 5.114811497239595 -0.20313437613276628 -1.3376763263626446 0.6806908201996923
Ni 4.848596432848437 3.9801959342032593 4.520509764074787 0.9303549644628817 0.40752139372571106 -1.0292210801031758
Ni 5.901859638447056 1.7447476051707025 5.28227122544506 -0.9117864574320749 0.0653399588583907 -0.04061520241820102
Ni 7.423972708986245 8.149713556731705 4.420505543065059 -0.8442137525884236 -0.33187516784530585 -0.8624145918671662
Ni 1.9931739241682374 2.007697992121843 0.8018081096278293 -1.1324950950031785 -0.8933377638085841 0.6917087685767507
Ni 5.7577198277558885 5.40795806903619 7.43416083385077 -0.38278352465939885 0.1546773090726433 -1.5469204149375744
Ni 0.19486581184403703 3.273808175731011 12.728509238094194 0.7364220523237253 -1.3545864718544218 2.9678907135338695
Ni 6.964512607722687 1.2097253465536093 1.4115617859155074 -0.3008072427959077 1.1206101706401346 -0.24270391089527235
Ni 7.48728654406553 2.1222161049866113 11.88805508141147 0.33463884663337207 -0.1181930981036803 -0.7645141825742511
Ni 3.0854670932676607 5.858935004494997 3.4290824884533624 -0.42471410345491367 0.789125553365028 -2.076477420441508
Ni 5.020637255608441 5.525714031444756 9.658582897536892 1.2766182827090595 -0.21724921826759358 1.165146819599929
Ni 6.7536360924345065 0.005138929775941407 12.734412300362472 -0.056713393531644264 0.3115865927995989 0.8405350181852557
Ni 2.5979394619587284 4.537494597681679 5.03183928993011 -0.3317437844737642 -1.7024245907868873 1.7462667847828182
Ni 5.78531555686774 3.266444380768546 9.915526611034354 1.001988726749784 -0.8856704770713134 -1.421252348613088
Ni 7.477202955486274 4.5562001170461315 8.769236287642954 0.33226906084961483 -0.2757006775362671 2.6857201120025422
Ni 2.1273226562671144 4.423550046736098 0.764482180086932 -0.09570854384791903 -0.07627203238986219 -1.310563786416569
Ni 5.04567970908004 2.2842473471569327 2.4781843587318346 -0.010167427451305071 0.19838426304229062 0.4424683421145412
Ni 1.2548054632019667 8.764840213062348 11.905616252237156 0.6534746647962165 1.3009162360244755 0.409008776904515
Ni 6.507013718182802 4.436695715883916 1.0300950044629438 -0.5559802326924683 -1.7241748379797852 0.3616598553069062
Ni 6.47979728001751 2.4734395215003673 7.741567820138119 0.35041950650639647 1.2054110664366142 -1.0521337230352912
Ni 9.16241113304589 0.7748775273222613 0.2204790519352143 -0.03478831132377879 1.8115869461468672 -0.3434495029464666
Ni 7.702548032735882 1.384023412995575 3.7687958123888534 0.1789618926516208 -1.376582259399223 0.8305195429307826
Ni 4.962503979799232 6.414327962241925 4.940351538320439 0.19420442063298812 -0.5480041564655271 -0.5992714392809356
P 7.020712424804314 6.733478166274693 8.819292516490194 -0.24083060513195942 -0.8556729022679586 0.4650115175223798
Ni 2.5671983932900453 7.173696190249396 13.050078578286113 -0.27425468911835993 -0.551812988688656 1.6967738202590132
P 5.183621350644509 8.787005605939315 4.699425003966208 0.4277410632066956 0.4263207858204013 0.11229395901042595
Ni 9.030149604681112 3.072682213069009 7.562043864532464 -1.2128135295482725 -0.249055564144913 -1.3080363920090246
P 8.109101672453788 2.87731037159627 1.1762395065716558 0.9691107450748407 2.046215022012541 -1.5810890903994834
P 1.0975939913525548 6.529484394016757 11.672555842074615 -1.1043597702195431 -0.019697992649559626 -1.4919013783892177
P 5.657929304816051 6.0935680844359545 11.665583364357014 -0.8087505266848072 0.7302244081534457 0.8835976537026846
Ni 0.7017141539307441 1.8043332877752725 11.075600922483632 -0.3519097178986778 -3.9170975205959317 0.8430300166929676
Ni 9.171144075815446 3.7846668257526788 10.680226189590654 -2.003121790367492 4.476206014504736 -0.8841365569252901
Ni 6.056120041712264 8.024242261410205 10.768004290723004 -0.8139714087641142 -0.9719942372702228 0.18185489792869972
Ni 3.7682000480727944 7.65847627494545 1.8494106291240209 0.9573271221763513 -0.822166800090713 -0.22855178776460636
Ni 3.506776075906587 8.267349256157216 11.020264223580396 -0.5964987616318049 0.17953961953196174 0.32911894525640734
Ni 3.1769502193779835 5.766915320460273 11.229981588731897 -0.2609530869134474 0.5073946104742809 -0.8346911578099688
Ni 4.107979979198901 3.2376275198287487 6.7977504048189425 1.4979856369100846 2.2786864565465272 -0.08715885450569506
Ni 2.879586117275625 1.4007492186389632 10.364248153010939 0.9608040249813581 -0.495175956920902 0.8121729221027948
Ni 1.3890744582838992 2.8983563936309538 9.171976665698137 1.9368616336876772 0.47915489890229734 -2.060779550090277
Ni 1.3794349176420793 4.974881816055234 7.287619463897975 1.006453190279041 -1.6417691818883595 -1.6681343021454496
Ni 5.477174041283884 2.275542157383466 13.407975665259572 -0.5320234647665547 0.4029232328320674 0.9215918735582709
Ni 7.755519251272408 5.750753825737376 2.566084573046979 1.2832489006516996 1.5245117082250712 -0.5764634402474846
Ni 8.260299995150433 5.378317869212399 6.884229665734294 0.38399374291741606 0.37605597612757813 -0.9710678688012115
Ni 0.478261831014454 6.901420796612119 3.4323591921916856 1.441555321836498 0.8383752915297755 -3.4275121703889293
Ni 6.707510612933437 8.405845957643477 1.7862475853234896 -1.4584451556133013 -2.760074358544401 0.43647252954242255
Ni 8.814379311082448 8.9833303002778 2.390920613127015 1.0131259743135261 -0.05966399151953596 0.4042851461766005
Ni 4.352178591792105 5.480680169789881 13.352231922413685 0.439204840871921 0.031773435756854956 -0.3865874717865213
Ni 6.984578023895535 5.100945175293314 4.8133214497185675 -0.28391972301194973 1.2740096414416187 0.7165836774415594
Ni 5.813068552957433 0.33041607024544384 7.404941554467673 0.6580134332068345 0.6882274948963696 0.07836953834883921
Ni 4.452718445626365 3.6792331936079368 11.53557445417485 1.0194434318911216 0.8321208259796314 1.2669010554212956
Ni 2.528362700761869 0.15199945918376756 6.358479683110767 -0.22192914024176616 -0.6897344184591992 -0.3645184078016238
Ni 0.5383396667496811 7.182262615042415 7.516970223583195 -0.4287221961730423 1.3729189516150226 -0.1685018736605614
Ni 3.374468292548326 2.256059554128502 4.811466624479906 -0.3578877898589837 -2.1372945517288806 -0.4996854147554814
Ni 0.19032727188350265 4.471655239958232 4.852627092980529 -0.10402709101594343 -0.30083398226878516 0.0389486133490555
Ni 5.700844687769412 6.130072525292597 2.8544409777184936 -1.7666376351296866 0.30404554722754734 -0.8470890172536895
P 3.6902973880490273 5.774713912361476 6.612648096999259 1.8229005713874735 -2.7757313483553676 -0.9094570379679499
Ni 3.4056534091544437 6.417630568776598 8.479701305737498 -2.266942685747038 1.1692685550777864 0.7655315680951719
P 4.626526209137412 0.3919037581820274 1.1304748160197529 1.8127542269820909 0.1288302661025523 1.1299142216498799
Ni 0.7633840865416499 8.354327145902312 9.724913483291127 0.6607534578458168 -1.501425258719253 -0.6694602415911954
P 8.434977352538958 2.262118958274751 9.518865989322553 -1.3208068043008157 -1.0503545196476813 -1.2177307643442317
P 7.624155069781197 3.2831146804197546 5.79476545203628 -0.16281227947495186 -0.8411981056905513 0.06232225507798943
P 3.393654863845 3.012624729530914 13.279848408212288 1.2008782115632672 0.5069557231646494 -1.1529016836839887
Ni 3.2784059220832034 0.45648683028248127 13.107975028528692 -0.3696318177687892 0.6288383543047751 -1.6027115537652656
