# total energy = -381178.6893450389 ev
CRYSTAL
PRIMVEC
9.10498043422024 0.00000000000000 0.00000000000000
0.00000000000000 9.10498043422024 0.00000000000000
0.00000000000000 0.00000000000000 13.32605921101889
PRIMCOORD
 96 1
Ni 1.6756441330648055 4.5928797838829265 12.46802024762971 0.20864964952404064 -0.8026043045777532 1.3090910585257842
Ni 1.2788582016446965 1.4413092580800801 4.704018813995742 1.2550487840683997 0.7739071937533769 -0.0330103934877496
Ni 8.59796025707448 0.13293817366833663 4.862545623972005 0.47306961194016584 -1.7909103916341222 2.4358911600267144
Ni 3.944459515129296 5.2647271666489015 3.6719957146298046 -0.1592692993186999 -1.4818079987089579 -0.13470652237767125
Ni 3.072220623502971 2.655767934886336 11.881220663762493 0.7783104650273951 -0.3070663363317422 -0.4203200881522761
Ni 5.517900245633448 8.698133249054194 2.3322734519519495 0.2536429264052793 0.9373848747264695 1.8190680850152607
Ni 4.437330302426695 5.662141341701677 -0.1302066796132635 -0.9352272049535183 -0.09384063740124483 -0.010491643559943222
Ni 2.607147340706034 4.946043755243518 1.3049467013647005 0.8543107318131092 0.9775696744754713 0.39388040590350876
Ni 8.499708415913497 8.902995303184682 2.554751821741621 0.6397213197658659 -0.389162174492233 -1.2803949761426723
Ni 5.851106100431637 5.653163831240669 4.996072889858219 1.5557249006030818 -0.7671850445381949 -1.4422119815838903
Ni 8.064199003772636 1.6635254044404644 9.686019046482224 -0.6195150200213201 1.3870163102483533 -1.3701365037738793
Ni 2.2025311263280485 8.275898898020987 10.347858235030412 0.29749746169638447 -0.6108522021399997 0.01885261393012882
Ni 1.2963852884980827 1.5714467398439484 10.521323585993867 0.9678892139629138 1.1450081398685248 1.8741336585308368
Ni 3.192725036232615 0.7321496665218062 3.039874270902795 3.7086522737732124 0.3110931981029481 1.7084713112015997
Ni 3.183119282138941 6.012774128571234 11.226019005768133 -0.5382272795844215 -0.5179942403669983 -1.248488614352379
Ni 0.685088755446951 6.219357023956415 11.108643064229566 -0.5652703997451427 0.7394922066086168 -0.9073320212051469
Ni 2.50718376327054 3.0986159610551613 3.0596366303912492 0.5628885297765273 1.429672454355983 1.776352034203973
Ni 5.174879222197362 2.03528174533592 1.9643412027335967 0.4268833431920906 0.6967854117687096 1.3885373748785699
Ni 6.566775752821169 1.2040972093573445 6.017248315833442 -0.6888293901464266 1.1024250150906756 -0.30478473938641704
Ni 7.648802492857295 4.795474697947702 11.573948524021187 0.2150049023181071 0.0859892596776261 0.47945057576584527
Ni 5.992397182920388 6.270991366577482 2.5559117962170084 -2.0217178082021245 -1.2623879980422905 0.2716051673106548
Ni 6.509605582248488 4.503186624094508 9.468098629772452 -0.4214022654728613 -0.2837546581889952 -0.35653050450014084
Ni 7.593198378876188 3.029873360669154 0.008666120138728738 0.1441931217118678 1.0182026175054852 0.018493173708181054
Ni 8.626449740068892 5.643976906235441 2.609815099899822 -2.6300315601909867 -0.9332554259391282 0.9079801963121072
P 0.37673221256578016 6.8645996546259775 4.726992499994944 -1.0093400249085327 0.637012148364819 1.066406945124854
Ni 1.5089774708044257 3.741591451659013 5.393335922239947 1.3764179659072167 0.5976938103811706 0.8228149751976733
P 5.170608986491263 0.24310752339160185 4.653286774910869 -0.5852717825677339 0.25790427278479455 -0.2176469679266445
Ni 4.389401686740344 2.482481952032495 4.692411785257719 -0.2785088364090236 -0.9876987924896731 -0.710910281205866
P 3.73972493072138 4.246234978333777 5.706112022502227 0.07893852347843179 0.7010794111583732 -0.5709129427429006
P 7.457443124339053 7.299826812381149 1.4969698229383241 1.030421271058864 0.44516594355136235 -0.43914801949205656
P 2.507092713468704 8.865236950363386 1.3057242666723778 -0.5125378452381173 -0.6052261142024737 -1.6726190773896807
Ni 0.25228534341664766 9.095966253195416 0.1391723536000319 -1.0989077459660364 -1.646853281279486 1.3974783861219415
Ni 1.3229627256539445 1.3601747796642243 2.1610206111731016 -3.1510442756693346 0.0737135276340666 -0.9248995977752652
Ni 3.0441317596366355 7.535427279611392 7.932203195553298 1.622495164150096 0.17432979319624817 0.33346848047435473
Ni 5.015651328746965 8.899325996170699 7.15224236758951 -0.22048315182385897 -1.0117532623357157 -0.40259618850995177
Ni 3.0886460077541447 2.1310661368671515 6.743918605280773 -1.0332389430133173 0.2941349729820547 -0.7989355974769143
Ni 2.1527906195851667 0.4667167317200732 12.524296309148365 2.816986241240097 -0.15777934503673471 -0.430343276716233
Ni 4.8794135102600995 8.062459952557571 9.721066846702868 -1.7169292121609658 -0.9510649433167233 -1.3875639552217072
Ni -0.08742601972270785 5.599945222067661 0.32305015990142766 0.4091836119194824 -0.42856458754925547 -0.8943003848321696
Ni 1.8063461236000558 4.014176348394946 10.240956662695032 1.6039174011479085 1.5997380729592385 -0.018828702670728864
Ni 6.572575625198108 3.2723662978983645 4.55018288981006 0.23931391137711686 1.1316389176504704 0.8712314188278479
Ni 7.2588179816343175 7.393316748906119 4.010916765489226 0.7963369835118027 0.45025801336228904 1.0025579689896926
Ni 5.1521258767186024 3.237767373200771 13.173342090040606 -0.24595249973955707 0.5074133795273584 0.000893715458862977
Ni 0.42209777633045337 5.104889239526204 7.249988882350303 -0.5185799376671392 0.3972616636709158 -0.07174097728872807
Ni 0.9334334634401464 7.109933345672465 1.7727660461850048 0.9570437866079776 1.5339399435175067 -1.1663040731328238
Ni 8.225393572942684 5.0943638824339885 5.208170671740594 0.6933293348993091 0.5151439154023967 -1.3218838394150783
Ni 4.475471064415699 5.595483781777708 9.204495795987619 -1.297061638165076 0.5430067032509357 -1.046950379062139
Ni 6.659965225000081 5.2429662640101515 0.47273785511547284 0.3217537631405878 0.6222709854999026 -0.3613592933473519
Ni 4.939515484451892 3.502321677414789 7.4361939215866215 0.5599338180235776 -0.5295438928778106 0.03793508448287661
Ni 6.87066357142824 4.841755312220824 7.033466990596729 0.47454851047853763 -0.7608141080148446 1.1941041260642273
Ni 0.9338796074691419 7.601356441120673 7.254613301785541 -1.2427627676121953 1.0814666676714537 -2.049095171773813
Ni 3.854529625856104 2.937694541290619 9.547148067726269 0.26776162519484853 0.35671999480312755 -0.06411868485677989
Ni 0.7125867060993724 2.2245196534713876 13.044625895683394 1.5246754874964452 1.034849996254179 -0.3520022776124841
Ni 1.2080578757372007 2.90812156565436 8.427252804608628 0.5255172882169207 -2.3192684917339474 -2.592454630378477
Ni 4.200109148723775 7.971710615067859 11.915442642280487 -2.6673326106342903 0.9129460249578149 0.12586861237106708
Ni 8.453546166382761 2.6916779767303636 5.971526747343592 -0.013037807020564642 0.41348738150115877 0.9733440664298978
P 6.238996466212391 6.707019762588807 8.432143999963245 0.6789113597017663 0.39040813108419214 -0.24734398077044498
Ni 6.908831648357796 3.7763269510593602 2.371225467675311 0.2463829024087563 -0.026375918890367476 -0.2624525542771093
P 4.912983572196948 4.652471879184439 11.068637602298967 0.3462687175628166 -1.7723866217983215 1.3571534612506497
Ni 4.6011380009094305 0.8186469782657894 0.08464262728058833 -1.54921461028839 -0.27571867525839616 0.06169259191379052
P 0.4388008624772257 1.0132841396501182 6.811468453262731 0.9602126712542622 -0.05913151605483365 -0.9008695534092549
P 1.7383956564900191 6.211080596969543 8.909855905753005 -0.9714903010506108 -1.0261915492482325 0.867888470497544
P 0.0810297711437449 8.383310349246647 10.933858401637512 -0.24325129875831009 0.3922706382142277 0.39485639666353284
Ni 2.3146498523086176 6.178639552575458 5.921034169237546 0.06747885957826444 0.5519055484024624 -1.3657368320442866
Ni 2.198570459948192 7.152462708109953 13.046318511499523 -0.2520102758978628 -0.3576417352864486 0.3534325823011074
Ni 2.735227096948414 8.832841430870218 5.558392824003871 0.36550442586397697 1.3137020749352342 2.7444487361920022
Ni 7.042510967413076 1.1503049864327708 3.6692369056341807 -1.4809358805166495 1.213672278004142 -1.0154178556714966
Ni 8.162578314656185 1.1790129889515895 11.878035741694278 0.25458472149325834 -0.8822889621935902 -1.2353610758314852
Ni 7.68595081200629 0.1314877503250928 7.65851295422308 0.14069899251568027 -0.4498083274193802 0.933467027729302
Ni 3.528589545244409 7.182399882953554 2.1212955826321545 0.12160392355744219 -0.38893128942834954 -0.3141386697974912
Ni 2.711517728550379 4.5571882615633035 7.567735391294797 0.34854131564707713 -0.24363645001187076 1.6896400374277094
Ni 8.515969910521367 7.065701351940646 8.82886073353396 -0.05370186039883009 -1.2827267095996424 0.7814546670833317
Ni 7.554229063690479 7.071737953802358 6.573985076130525 -0.31330820347639593 0.3045625960732819 -0.565886950283219
Ni 9.143585299555523 3.4713920597311776 3.7139988092126828 -1.0471398693651257 -0.9761802503271123 -1.0374864054357615
Ni 1.820850357032494 8.137648878913552 3.685227982330597 -1.4641545472932525 -0.8022885731095473 -0.19111292619185796
Ni 4.698279034488016 6.185395447871673 6.723556227598221 -0.6331140988619935 0.44443317915039593 1.828169790206213
Ni 5.795183312144106 1.0540653458923601 9.157240948834852 0.5664461652207986 0.9388324058062735 -1.8198404444049108
Ni 1.6052899511863048 5.616115666873695 3.508764361392688 0.7219971351476469 -0.9243336979694662 0.3168892359594349
Ni 3.178011388255954 0.7871665092810713 8.518709599058605 0.3107227021374068 -0.5345799126398213 1.5534957541622472
Ni 0.7997386659185547 3.6865245315087383 1.449501919249263 -1.3060964946738345 -0.18942011187046734 0.5657933621281481
Ni 4.224146296408419 7.405317112788074 4.652327109999519 0.8207611779924381 0.17688161308382438 -0.8441109084619721
Ni 6.948283527493235 0.8478193347739705 0.4105881708803935 -0.2409121091021722 -0.8903110611671183 2.441077075103028
Ni 0.721247363249991 9.549485316139394 8.826009053740462 0.13407788765473683 -2.201039141075693 -1.8772380084877733
Ni 8.767540512993603 4.237348517674606 9.311010406665195 -1.0780347591717692 0.8631949216766166 0.12698395692243292
Ni 5.977619800082443 6.531676054213478 11.600294694680386 -0.37137733970498626 -0.7916830296795592 -1.465561197832792
Ni 5.5489755429999965 7.725794205289622 0.3219484572992148 1.0751175855249742 -0.6388319751823772 0.557409251829511
Ni 5.989365224519256 9.32559385342523 11.713192806964669 0.5180302358112563 0.5712281599904743 0.6186675844193604
Ni 7.839415253000482 7.339060171992183 12.671496523776257 0.5759790444118984 0.8393307134645093 -0.807574246988519
P 4.36126729797309 1.041045224229845 10.658448229550613 -2.545654125085171 0.34533052201926334 0.7736891642052998
Ni 3.0687243111124776 2.417536128383039 0.9195037542572918 -0.570099959923302 0.4634431445939954 -0.31084328687567114
P 8.296403313394404 2.0284348002378696 1.9112637207534335 -0.30154720628572584 0.11227416151608405 -0.20737103992193318
Ni 6.200382245253841 2.553965151453759 11.117278227435671 -0.2750697288204876 0.9114398727259335 0.01558294203992155
P 6.986378764581323 2.6235818299373905 7.955816961659406 0.11627891180010297 0.4177507847632031 -0.38191423468056807
P 9.130292028487501 3.2769734178712544 11.206576231084123 -0.507870521669435 -0.5445514220302364 1.0534642689212566
P 4.724355697733781 4.512373549099737 1.7520303643149262 0.5747004348097909 -0.7578755942118108 -0.26353627425959136
Ni 7.062560133777312 8.259063789661553 10.206282166661916 2.7911021743844833 -0.48106214322733926 -1.1463489701671354
