# total energy = -340857.6072966816 ev
CRYSTAL
PRIMVEC
9.41666399852783 0.00000000000000 0.00000000000000
0.00000000000000 9.41666399852783 0.00000000000000
0.00000000000000 0.00000000000000 13.78223961282521
PRIMCOORD
 96 1
Ni 5.983122287724646 8.822199391892166 6.869936617265686 0.2176171431299736 0.8521769732995581 1.2500377040070536
Ni 6.227880217678781 8.24728380642395 11.143464502582654 -0.2510993340478192 -0.2965335551212183 -1.2190235150137263
Ni 3.3443093762446687 4.298820103078733 3.4960165411618007 0.6139724929365361 -1.4676427629521693 -2.2904327984491775
Ni 1.7105275938072797 2.6088396700578467 4.555980721150082 -0.2656587199192328 -0.367931804358547 -0.8263713250903639
Ni 3.650793538533729 3.300342972160494 0.8338267613719151 0.898118215916363 -0.4195963226123741 -2.365414908383023
Ni 3.024302884492152 9.12273222255107 8.42298839780673 -1.1384443706080782 0.09222058529931859 -0.8155742344748599
Ni 9.495575615849164 6.417842579981212 12.679990979519646 -2.0871744951440374 1.696991078476142 0.7290594413110669
Ni 2.724165553720062 1.1833827446678322 10.22034422509847 0.3670458022091679 1.7842975143032949 0.9026698398427873
Ni 5.321347393780863 1.1787120793378363 11.317106844555617 1.148407652468377 0.3044998611561465 -1.1043821388170463
Ni 5.973658540433021 8.033836284175935 1.4201496935755276 -1.2201350029103504 -0.7321905307408809 3.125328358960469
Ni 2.9736694823159677 2.1195686434128413 7.789073645889814 -0.21970616444851837 0.4881262491629722 0.34958518353055923
Ni 5.507335923887208 6.457411401990572 3.349373658128684 0.12036490894401851 -0.3564574851703603 -0.5881066809133677
Ni 1.2635373883955023 1.0221882907991457 6.3926304038632065 0.6125925818698741 -0.6954880331135248 -0.13755659023195665
Ni 4.021292182502853 0.09507440612453588 13.03945988497864 -0.20725534027967535 -0.6662386493301042 -0.7376117017564522
Ni 1.3143967905070093 0.46095511808190603 3.365512878509893 0.005481849050177655 1.649951460588836 0.6127018537542287
Ni 2.3130340047127684 7.465691280103419 13.513748057578171 0.7793383920712772 -0.52706740631286 -0.27393664365730885
Ni 3.8342395693676976 5.553995493867308 13.337293899743237 -0.20464464212970562 -0.33989032484029846 -0.6486039669674766
Ni 5.043376889998308 5.8534265748415155 11.065718641498963 -0.5149569962025712 0.8230839125883437 -0.7261990890441364
Ni 6.609499941798561 8.720612420964756 13.334702433818208 1.4773941859119781 4.2203138870539645 -1.4963576143883583
Ni 1.4425387538347976 5.418800449224666 4.22840511489706 -1.7141771033371251 -0.4143772403052799 1.6169009578917701
Ni 8.384305683877113 0.8817189726659186 6.739460262939297 -1.1354405507847476 -0.4006082115456456 -0.07193098181234708
Ni 8.263875968342202 5.904389560256712 7.429578373771697 1.6264441214955152 -4.7936552367326986 0.13413445192428514
Ni 6.037437605513791 3.2634013993992568 1.2292334232127566 1.1630711680178227 1.464499589337497 -0.49554388178328207
Ni 3.9477292035554186 6.97864258615575 7.31783176408515 -0.9295034150958636 -1.127025330137859 -0.43378315563571745
P 4.847755112648847 8.845910551773072 3.3400012524775855 0.8608639595505949 -0.4470073676354753 0.1494332870648846
P 7.6045870736869645 5.146197443906019 12.181211947262348 -0.35172459847106524 -2.190965301779459 -1.1494569196684978
P 5.040052807616276 7.310692991128155 12.830203719864459 -0.5049916574597432 0.5566011541059188 -0.30852852269956543
P 1.806191483096448 7.8257562603918265 3.9443938211766194 -0.15346683370430989 -0.36336552514410325 0.3938392682529282
P 3.237778656732082 6.262156874536009 9.392431128700824 1.4610735943750837 0.9958108800738463 0.8768567354344252
P 8.313821954048446 2.8488233513782975 1.3570599282974913 -1.5923739192846833 -1.6306535315911723 1.32531857612824
P 6.310068860824353 2.6203845000872317 9.813740208128802 0.4010193309411352 -0.10149069774733488 0.5825777806753386
P 6.906501523468053 7.493338605524524 9.090585615084256 0.6449738264140569 -0.04830562908392326 0.12455966375165645
Ni 1.6779647697929136 7.796884768654393 6.321485624223722 -0.5921808509827414 -0.35958266106290326 -1.6719966133143336
Ni 6.172444316876996 1.1744934138784853 5.403299678660743 -0.3192765052446888 0.426804153214723 0.33708910794607755
Ni 8.439110668192791 8.02522003664177 7.420330268085026 0.1070116275655641 1.7177900174993643 -0.08562364880809124
Ni 7.231960263660222 1.4051263478749723 3.324772623502446 -0.13496414691443206 0.7735518672964872 0.44951727854152257
Ni 1.384362603817229 7.2984889946207465 8.445053524825372 -0.04099444013449069 -0.49787972900531036 1.38531835372064
Ni 0.0982299302214746 3.9833336100326653 0.02603048421715211 1.1146074160894806 1.084062710533404 0.8735826926688439
Ni 3.4228820204250816 6.29570844826741 4.35606965336148 1.1773104515456563 2.8532583361982535 1.47696172636025
Ni 0.9021437168206785 1.3488241139877848 0.9064960989084287 0.18269976242749825 0.5145908711124041 1.11521445354586
Ni 7.5216827640795385 0.4396772241713041 9.028496841186419 -0.43469641147860616 -0.08254269588992236 0.6212883098716591
Ni 0.4306193350968626 3.709647688357265 2.691905946285587 0.10012287086553079 -0.786896149813877 -0.8213283633498178
Ni 4.279704275216049 3.251122069580074 9.312479884914945 0.8558904175954034 0.3666683642650911 1.7645378151778643
Ni 5.041983223730488 3.485973669035913 7.125651777417369 -0.034894240774023776 -0.7611702058026827 1.0495988724285794
Ni 8.33026344934315 2.29400292682583 10.820973894874387 -1.9897669663271411 -0.39872127893557785 -0.40053519221586503
Ni 7.221799683234686 6.595450279152686 -0.23718504878804178 -0.2383158091299057 0.44166924325201357 0.8851449435851465
Ni 4.7435597258012585 7.880099828172888 9.274013754256679 0.8037805842740415 -0.0014249053719846427 1.0430186481079005
Ni 6.68117017128767 4.443394145037253 5.8027084226895855 3.1005395820515638 1.811068611749552 1.316374736671391
Ni 8.97185843239544 6.546794376410573 5.444962766737423 0.07888890118741897 -0.8900143558623059 -0.6734765618394402
Ni 7.523481346898147 5.949137547450543 2.0385307166046194 -1.0018280328022036 -1.6710363062835931 -1.9396926753785693
Ni 1.2969665454952708 8.342269695907152 1.7517499820100815 0.36722449387887723 0.6956147884993762 -0.8248001239485021
Ni 0.002019874421943757 4.198796298370637 11.311897546046437 0.5979020697372348 1.581497895802128 -0.051952224697575045
Ni 8.162486747358198 7.684487467487397 3.118741665798594 0.8811414788527083 1.5106596328333273 0.5101976271407149
Ni 0.3927869459238965 0.7196101607255737 10.6861282084651 0.7361577429187451 -1.9013721825318157 -2.1532071091940788
Ni 1.0906851045297699 6.0605084322446166 1.955506815364752 -0.8589202055606627 -0.9074268949117984 -0.7594966747550016
Ni 3.6755311147875576 9.267673514404489 1.4981705212471956 -2.1445188373914617 -0.4837767139450249 0.8440394317940884
P 0.451974445652033 0.07613749487731493 8.289162536105584 0.5089205602005041 -0.17677748340579233 0.590168448538403
P 8.570002297400334 0.7750771365184655 12.767246729548425 -0.9276578772466927 0.8455373564958535 0.18355131179451614
P 7.8764838292077295 2.8568934324021007 7.032415504100121 -0.811863361282176 2.186979063438201 0.4828958540019683
P 8.764672991688649 5.379824877045528 3.619960555690976 -0.40217941268750734 0.5546941668911931 0.0958988054818542
P 3.651725788266934 2.144955969480722 12.20097564160629 -0.47948631409978715 0.5006626910670862 0.267294712860759
P 1.6347328654985371 5.198007929078674 13.009552560204314 3.202673569809852 -0.9281273606839434 -0.12110101577909467
P 3.344290542916725 1.4659203304766921 5.816270302141723 0.15640020530102097 0.6203876524342606 -2.150060078924665
P 1.2273491487520065 3.1544223472540116 9.76876904599884 -0.6856257956074644 -1.4319391389029725 0.2870510695520798
Ni 7.073967475541936 3.9149121296138145 3.287077717623468 0.12108018984348823 -0.45327186048794843 0.1965271552288938
Ni 5.446400691325912 3.8241543222539365 12.075060719307825 -0.224056213887098 -1.3465574309023585 0.03969834703088647
Ni 0.7066660144299846 3.09409919785088 7.762598695133194 -1.5570852712857184 -0.024592087517067325 -1.8049874385524787
Ni -0.2268154184223333 8.728428252061322 4.940974435970945 0.5242582189988391 0.8914338619176518 0.18274398540187237
Ni 3.355336289755606 7.003427245729438 1.9185840759314583 0.6875471809998933 -1.2413000670237397 0.4403852343332674
Ni 8.081842437103997 0.32057619992280784 1.5715338669184282 0.4937618501821948 -0.5028807817643275 -1.8691230926901228
Ni 2.6115705026096587 3.8738554746969163 11.122101858696306 1.1360193061063533 0.6780487545911549 0.9450084527099983
Ni 7.68119163509728 2.9628874020682963 13.0107239932024 -1.3880673772206868 -0.7502247625347724 -0.32765341645447443
Ni 8.868472878649422 6.1546750719622745 9.496169807345781 -0.4446208696811697 0.9470897607190593 2.1243670450339347
Ni 5.32981297469148 1.2236201498191872 1.5931856023887092 1.6615106261813448 -0.5010856375371177 -0.4267308767746264
Ni 2.6831842321149377 8.303369457039786 10.993114278943853 0.7190244256725682 0.5598230034773262 -0.26359360986008795
Ni 5.106788705184179 3.4464048470265527 4.8805665365920685 -0.6912089461221966 0.4092322057692307 -0.8069299285363006
Ni 2.9781235643746133 3.9886916918326 5.941399874664944 -0.32817277929305416 0.6473649523540529 0.48683041316968423
Ni 1.2208610672754596 2.1982166209050287 12.51493475175614 0.4855255783153315 -0.07601106541899168 -0.9666370867233677
Ni 3.726352850243177 8.706308508391645 5.727319552598026 0.9557386946433089 0.9450945846659012 -1.2531669936646548
Ni 5.829178665114219 5.255167079387292 8.681501248824425 -0.3962409357158853 -0.3608450727150947 1.1621054616704438
Ni 7.915252234779489 4.056406922453568 9.133352336178428 -0.2706718568631081 -1.192215907902579 -0.8646146848422787
Ni 6.351831765539134 6.678853671950615 7.028418130244107 -1.426945285232807 -0.054091639638081036 -1.5744744132964434
Ni 4.460447723490121 1.9403318613742513 3.61005045852709 -1.6314791128162611 -2.538675636884809 -1.117653659114972
Ni 6.769903395893619 7.896409490171986 4.868011298518512 -0.9324686683717748 0.5312194808080206 0.5162777718965237
Ni 0.9740220545835638 9.102382811708084 12.631574260042415 0.2322168953210194 -0.42905309714989975 1.2054151802016724
Ni 2.3488549944613655 4.682097160057544 8.287164320010776 1.2041142020020617 -0.24667909349293646 1.9172978526231368
Ni 1.5844102132334206 6.290755283018261 10.804242366329353 2.518449796756237 -4.5637968143415275 0.23060352808731252
Ni 8.768439657277355 3.690183443927625 5.058302302393558 1.414053002651171 -0.5094399230390839 0.8426566925139488
P 9.743516378225756 7.72902828807385 10.894846682066492 -1.906362693767872 3.8939033418676554 -0.08132913519779542
P 4.746780224879602 5.4898868455475265 5.889936864392847 -0.007989445963379789 0.18873337021608788 0.05224275935480035
P 1.228413231780816 5.2376897510556955 6.670879640899325 -1.7023546567809005 1.1533971352631682 -1.728400703135675
P 4.720074565855675 5.085808377855085 1.431533498650995 0.5456197153937506 0.7775321921004739 1.8731471262478514
P 8.977376597482893 1.44655025268677 4.701714896109923 0.6987319939721192 0.5293076084972884 -0.8649386438406007
P 4.81321478920041 0.8712617673252727 7.757099363373683 -0.26211599687329695 0.5093478775459098 0.5451096085265515
P 8.8842552074661 7.579096164315395 1.080435065796503 -1.1648524282879615 -0.6040755455377984 -1.4809284243174818
P 2.4256855558070027 2.7067541420362673 2.286045845769688 -1.8440874898777337 -2.0156235223789287 2.2610831416424673
