# total energy = -340895.29118938674 ev
CRYSTAL
PRIMVEC
9.04322632151246 0.00000000000000 0.00000000000000

0.00000000000000 9.04322632151246 0.00000000000000

0.00000000000000 0.00000000000000 13.23567582486450

PRIMCOORD
 96 1
Ni 6.393262540567079 1.8962831580456392 11.389775272623734 0.2764758651393948 0.189289499829874 0.4904281578232715
Ni 4.802875554050269 0.25966539023368135 6.127376314987964 -0.5941181772147703 0.061257561258900944 -0.8361592577150633
Ni 2.6686379833800786 1.6346174061628662 4.718518530835723 0.9341558262662104 -1.158115366674444 0.899885849339747
Ni 3.320419472967049 4.227391764433404 4.68929444084836 -0.11332111472335966 -0.3215424184607301 0.7297225288163627
Ni 5.245116447927002 4.333975229153996 2.8932653934627384 -0.3352991059251903 0.1490455647081627 -0.1894180549879383
Ni 7.200605608308101 6.175176096039519 2.6800785689237765 0.3226950440079346 -1.7032144336780344 -2.160700332247331
Ni 5.035340728333959 4.644049371215739 11.310811629551674 -0.801552209164155 -0.3805698048375317 0.8011027803315622
Ni 5.635946600505875 7.857053402646117 12.247830944595208 -0.09364214823719356 0.011196382936451685 1.0229820411719994
Ni 1.830982021209783 6.504394748097316 0.4074018647034688 -0.29392722784662284 -0.07345076089098318 0.02868836907362801
Ni 2.731651183971721 1.6362361436637136 0.42854854499386713 -0.47612536804735417 0.3297126129763483 0.5696633866065157
Ni 0.5811177195779159 0.017982455421423682 4.652181040270274 -0.07824741094867814 0.18676081987074933 1.611502412584018
Ni 8.762868161150971 2.201817600524 1.2249086144400334 -0.33505665089708103 0.503333810141346 1.3926079454035178
Ni 6.807171006565853 0.7275203181741001 4.838076312274002 0.4071701810338794 -0.28356722476853746 -0.6196296912223135
Ni 0.7856999143288546 7.526722433758128 2.5221639432964267 0.24027781795228298 -1.1517914813389454 -0.09013156398077381
Ni 7.671061368121389 3.818022998018011 3.7678131971677074 0.2796660899419183 -0.1284307166712885 0.29818446046108005
Ni 7.5632661110817265 3.8154728082122067 12.734718246526036 0.04107517277375507 -0.01829159922033624 -0.12209037627555748
Ni 8.043633246877855 9.11132175546744 6.891577767524838 -0.13876732271060616 -1.4677600052563236 -0.22536233429303124
Ni 6.780800958786687 0.6409431829123028 0.2847784295624687 0.05051600647168074 0.42072220868670124 -0.42068775590434
Ni 1.9592330560534494 6.516919616469793 9.20067425686896 0.4421181578639741 -0.07353869261909915 0.3593695166108327
Ni -0.013623620363276228 4.797259710541743 1.4681804441064747 -0.13394676139351128 0.5414889810548288 0.14541619548569149
Ni 6.427111336464685 2.09788380109809 7.152479366788497 -0.42887234859766143 0.1449539111372923 -0.5625239473482571
Ni 3.187963337911684 4.231397913667344 0.1420329116665227 0.16375998810020184 -0.3258022221783486 1.4443123157563447
Ni 6.101871703962044 5.752929775427443 4.838076312274002 -0.13817725453509105 0.2539059502586788 0.21889112474639077
Ni 5.272833936419164 2.815093032688581 9.418851133659135 0.20524473760754977 -0.08560385131374934 -0.4272767219757673
P 0.029523420776626553 5.660146273982229 12.555374791948923 0.8723588475640718 -0.41940220432369707 -0.6864575474801403
P 4.002052652443947 6.137185502514047 12.716559448192509 -0.531340065546285 0.6018651681500409 -1.0231694745924573
P 2.575863525161127 8.43762852864833 1.4470961620772822 -1.2383368706303577 0.9391278255595051 -0.07257272916140405
P 6.581840937802658 7.733070770597981 5.865018756296168 -0.7778430384726733 0.10137859764950283 0.3276477600275196
P 4.707225349880092 1.276415213936267 12.684978693441343 0.026836917687186036 -1.0046572747208824 -1.5067852374795858
P 4.109567569469497 6.066286608622188 8.200877769439213 -1.3277025029793843 0.7953967310857205 1.313415654043067
P 4.745369678252013 0.7819433581397375 3.792153040651118 -0.3370672535692066 1.4188198279121953 0.17454987962685423
P 0.1845089454178061 5.652341969718368 3.660749537132617 -0.4258122216150989 -0.3006069538596436 -0.6858800777101155
Ni 1.3187646425198865 0.9017706277206148 2.6827924411249175 1.1241870893581154 0.9133807985023883 -1.4646782810072065
Ni 1.6358111120294128 6.684888501054919 4.850888755241603 0.8085420102184269 -0.15872731077230084 0.489193514085222
Ni 6.103879300192144 5.6630129767071935 9.22342610982081 0.1290794059988809 0.07448125903802656 0.12354176401010336
Ni 8.595523259177904 2.2472688557153884 10.299724674134175 0.4330887006718542 0.09904712130284878 -0.061261160803326754
Ni 2.3308282663736506 5.361737893798101 6.970819941965758 -0.3308642100822882 -0.7762852070672502 0.010258958723846849
Ni 0.7202558945180632 0.04932627764453381 9.124846804664463 -0.33702740147020666 0.47040492062380923 0.7478614045089185
Ni 1.500352625855158 1.0143967762292871 11.61282283107847 0.08463274564973167 0.4036310575323694 -1.541908306434964
Ni 3.985431202574911 6.795677065987211 1.6403770369689534 1.0583529644721257 -0.11326043668875332 0.4255371135768414
Ni 5.657623213855209 7.706085783433018 7.845102779141258 0.287549349344737 0.5736563098159927 1.030556768195464
Ni 5.242376350369702 2.705299222645078 4.913943554674049 -0.673604345666556 -0.3955842759684929 -0.27294265517515576
Ni 0.872366577530643 7.4826276625059975 7.151130117430249 -0.014480710114678287 0.2661641988007416 -0.8329176108493139
Ni 5.212226234013138 4.594447275170223 7.197613204738099 0.4339392215976075 -0.5207743742152967 -0.38937866137841326
Ni 8.297259570613964 7.3211789440555695 9.034341291914576 -0.5088094885439366 -0.7931292752077824 0.11382659360486849
Ni 4.747503879649778 0.20655994833437613 10.440128900750963 -0.7861459019114139 0.9079531997289138 -0.7119778032384319
Ni 8.002848296437515 7.477436850631773 4.3267822469854265 1.0907766322184698 0.015718182066205188 1.218332916704605
Ni 7.540513353807246 5.946445774201918 6.9185916930138385 -1.3232737777840693 1.0698463098237059 0.06645221808596298
Ni 2.2262162249781117 5.275212304925995 2.655460194071505 0.04591733135740479 0.18225624713217645 0.055548683799581756
Ni 2.2323204027047705 5.316630281204658 11.533766042775916 -0.5612227120383302 -0.14808422923615788 -1.2719697281934546
Ni 1.117986933057252 3.203987934847446 3.7668862664758813 -0.6006652343046687 0.7040698612452648 -0.16019026847107248
Ni 3.504277306094011 2.647992297824579 2.6604240209665613 0.008396708704127474 -0.0425872385429073 -0.3596942469401031
Ni 1.2329263388436715 3.4300595481641025 8.123805969301106 -0.7367784072218795 0.2987488176049823 0.40514338041183773
Ni 3.732383645319554 2.8720744013636574 7.179600002347385 -0.689265963463213 -0.9915055678302731 -0.155138564979778
Ni 4.083893850112482 6.78281759824305 6.137330194134234 0.03300268017826574 0.5258685009087525 -1.472787540377902
Ni 0.8843307658748941 7.464893895806771 11.312055977485286 0.7930673116215954 -0.9687633890377509 0.5128150101589039
P 0.2526189083305517 5.5475128908925475 8.0469864751757 0.767719062664794 -0.2873341480101374 0.216282226368634
P 8.669080861590707 1.8010851151885474 7.963429777485317 -1.8679604398405893 0.6124845955371 1.8999776161771345
P 1.5778440316918085 3.2676974638612406 10.436568582571725 1.1550110167175078 -0.06253977040543422 -0.13269694814681018
P 4.134147058448843 5.99460095404556 3.898912848283815 -0.5203234027208071 1.4109519951283442 -0.7861374172709815
P 6.904168651449027 3.967824041043348 10.596720502376224 -0.0727683901119779 -0.5916869420654584 -1.1803543805783026
P 6.43450869554677 7.736832752722855 10.080343239605938 -0.7647496956238249 0.0732288746881642 0.03711901633948446
P 2.5135556962178986 8.643470444817526 5.735706951012004 -0.5074691724659582 -0.4201395967103539 0.57149941137399
P 7.011186191030182 3.9133024299114583 1.6727382221465068 -0.9984714576251448 -0.14881082298953727 -0.5674555803219196
Ni 5.223828693306921 2.9905135357133616 0.5946129261282759 0.2269204228087705 0.23755681947669408 0.3041766734887729
Ni 1.341445053984272 1.04923128378942 7.1073464331615215 1.9832661890941459 0.553934148796717 -1.6422525492826814
Ni 7.01280492853103 0.7749267188832716 9.135276357512103 -0.678655020716586 -0.7960065967555775 0.20609860096741284
Ni 2.7170102006540016 1.7086000402099706 9.292953146288768 0.4823451237048209 -0.9315286730560086 -0.0782065304084137
Ni 6.347793198923168 1.8061312354425854 2.568025760960097 0.8851377444962949 0.840971591502042 0.30853957844315893
Ni 4.251482919194617 6.85550705093473 10.48784367547566 -0.8468115952225868 -0.13541537551923777 -0.5368121444044497
Ni 8.0353315651696 7.384490571113848 0.1450207936233939 -0.38780334647149345 -0.3838518180229131 0.7685374448010313
Ni 7.6253207296896255 3.9073881599362954 8.31289078720734 0.38466531506314394 -0.7453144697173486 -0.16143648217334777
Ni 3.145035142847315 8.409278014317849 12.574950663837662 0.7373443070276785 -0.24706090231238745 -0.7090614009225853
Ni -0.09729607134981011 4.720410373769675 10.23451306523831 0.8749623466251899 1.119912887462794 0.3809505852157181
Ni 8.570202225645097 2.2301590716282202 5.7859890976724 0.24233624314320848 1.1527710716433954 -0.7442960557551633
Ni 3.4565109849796234 2.752342085658529 11.502278433255245 0.3768082809125704 -0.29855881308136323 -0.34863464669183186
Ni 0.8926143611306266 3.309061180782333 12.558948674967553 0.5112384097004035 0.4877665518307084 -0.06298071459759476
Ni 3.110372456586155 8.496798358078742 7.86405647706319 0.2645400329337573 -0.29097714407936337 0.9091410493894279
Ni 5.756999227245215 7.833396322745466 3.4745106225309446 -1.6245119374698085 0.6811723878218011 0.4571339145465159
Ni 2.996780491512731 8.231162629867075 3.5765308752798752 1.4372533520270343 -0.23240638562400617 0.37900580278452145
Ni 3.3859647769119716 4.2751671287740525 9.408447806167656 -0.3330565897479167 0.6704840548700195 -0.2328946381143344
Ni 7.147829339844722 6.087447758074606 11.461142605635947 0.5759546189318661 -0.3269522766223918 -0.16331878679772519
Ni 0.7265924831596481 8.994700309596341 0.37860551931828423 -0.09400364534167037 -0.470608551994183 0.44064080198749916
Ni 4.6340113900652335 0.4889102716455738 1.4892647261356673 -0.5654758308877293 -1.2565004289132617 0.7271149159901865
Ni 5.872671134358833 5.476179922140125 0.427041039176039 0.15312461987354276 0.8301665304667379 0.3426223790594809
Ni 8.052378046672937 8.591851709315646 11.231092877086763 -1.0363183532695894 1.9577713872571512 0.22813578327311035
Ni 0.12234219080426072 4.7903959018091005 5.676450306609478 0.38959900491933547 -0.7894569685625179 0.22364638004318904
Ni 7.936208762114923 8.82296039966008 2.193614489981997 -0.3705306754339747 0.680716531231305 0.7133386881417005
P 8.493343845646766 1.6455868396183284 3.5161763832091784 -1.008514957904076 -0.5865701896641833 0.35963973955308387
P 1.6652287270587773 3.4040874023404517 1.560883460837959 1.3344328797246823 -1.0539409514473592 -0.31246950962518444
P 4.718366604634527 1.0081298204299174 8.182652051231349 0.39181015363804134 0.6708581503799866 0.7120765335998253
P 8.595369524331455 1.4571802636817226 12.477019758004278 -1.382561102690477 -0.28479106987330954 -1.0559340706179878
P 6.095288235243514 7.733984136450414 1.312150426832067 1.2392588682239947 -0.45746584396463796 -0.4136385623670425
P 1.8478205085090995 3.23724892103804 6.012014590535121 -0.12820908757878566 -0.0015907415258875832 -0.27274288045952383
P 6.731705283411828 3.940160811908757 5.8566935621996326 2.1052115551514063 -0.31278729797591937 0.35189223439718104
P 2.466675611277159 8.54698826383127 10.236352457459944 1.2376663269258943 -0.2168884924940652 0.16000694881567284
