# total energy = -340892.61395316664 ev
CRYSTAL
PRIMVEC
9.05789894967036 0.00000000000000 0.00000000000000
0.00000000000000 9.05789894967036 0.00000000000000
0.00000000000000 0.00000000000000 13.25715069930243
PRIMCOORD
 96 1
Ni 6.364161188580987 1.9822849116310701 11.56730084171666 0.7520055085842792 0.6007619077835331 -0.7131471409561847
Ni 4.542644922008724 0.6034018894643106 6.0321357574912815 0.243055123587104 -1.4805425017329727 0.31413892690780737
Ni 2.6883752935269087 1.5931575809799692 4.815500535250541 -0.5544002897998581 -0.4481689920437442 -0.6440299744435489
Ni 3.5131603807498433 4.230545962397124 4.939693385123846 0.3289919327602398 0.061661481565538974 -0.5294919565939527
Ni 5.3580188524219166 4.496494927835833 2.899736832099491 -1.3459372808198562 -1.2704134394499282 -0.738620859747257
Ni 7.207125478611573 5.950405431206414 2.5937347441420173 0.602157502579479 1.244753829900295 -0.14682953089345036
Ni 5.030612043909005 4.396015656911423 11.389721642352558 0.29861152069616964 0.34711949559888605 0.3723998674322296
Ni 5.6191943052150695 7.704983825955779 13.025348993239973 -1.015361291401948 1.3638293306089284 -1.7035299080359243
Ni 1.8218151772312818 6.435184172743819 0.47294912575923115 1.0397834290000545 0.3580114599210415 0.11130639828617604
Ni 2.8250318120914613 1.7097055643013779 0.18948308991209123 -1.132955836689681 -0.9727609402329183 1.5968525238813271
Ni 0.5248083135193974 8.936441393724396 4.44848987599727 0.8279150154284 -0.06387622982867064 1.0336161238470778
Ni 8.832846205627174 2.3550446192261525 1.353727425735562 -1.498308310356826 0.453065143793781 -0.580754868533987
Ni 6.842644690481461 0.5854283009584685 4.9190785133401205 -0.6612530231900546 -0.3287314800100016 -0.17931130557123956
Ni 0.8457677096962417 7.3045612955532375 2.545611939619597 -0.6061380844937819 0.5258710720119136 -0.16867927977869016
Ni 7.5778562168848245 3.8139822564075185 3.7875150762361374 0.8781039775779651 -0.944662125114173 -0.15063990577847605
Ni 7.810046393651825 3.947740247369455 12.364546293555247 -0.0035566070030067782 -0.5720941075351953 0.624731531225253
Ni 7.958994480831217 8.798589232523764 7.054368545004369 -0.6566242661687918 0.7645769174913865 -0.002493198735498932
Ni 6.939220007041098 0.6857445297052315 0.26576237272429126 -0.9709382852018826 -0.2010533252340215 0.8058888888662958
Ni 1.8171141277757903 6.5361616280999275 9.257587382615657 0.22656509635188077 -0.5557092384192688 -0.12215825339901541
Ni 8.925100904479162 4.71764352601662 1.2769898132461983 0.9496788616024742 0.9429101754200727 0.528139042110484
Ni 6.399604746421716 1.9480551122239353 7.097957871198324 0.1532935413512392 -0.09914816565708731 0.6131949913405633
Ni 3.4119202463297467 4.51852373761571 0.8702312826623146 1.2699794372363034 0.2310727544142472 -1.487749303894057
Ni 6.180177149004982 5.607727005387223 4.845912430331105 -0.5781012329612237 0.26717824188755274 0.9160691439678288
Ni 5.133772452865834 2.8355842641447326 9.545360449322308 1.419905090556574 -0.9271043187360678 -0.4908081668705095
P 0.2906145295470898 5.614221518796833 12.523234339269301 -0.7912757669388115 -0.3047166051526429 -0.5500502403612786
P 4.196361452483781 5.932389270576408 12.687703135970821 0.06085029851815326 1.1664956203183394 0.10954724950322424
P 2.53509753074111 8.334534963345059 1.4891756206057738 -0.41815727617300247 0.5096409833062965 -0.9332667387930378
P 6.233790851754606 7.729068778753761 6.054699889087766 0.402562507058539 0.5620372375198256 -1.4555912311042738
P 4.730578205443291 0.8960816199282637 12.583686755581345 1.0703836703844147 0.4235997873448124 -0.31381291102695635
P 4.061371587290732 5.971021208780014 7.868529622773843 0.7182914041612856 1.6563360239589409 1.223829935263434
P 4.62896669717411 1.0786417578194836 3.814559244558414 -0.0005052217711926782 -1.0899027142539488 -0.9274395905882994
P 9.116231626175365 5.546405030794393 3.561347496353447 0.31949890566814004 -0.473675620955281 0.05391809017469423
Ni 1.2908592678247126 1.2262855075776993 2.5817774119913532 2.192917283299507 -0.9633540450967215 0.22381375885898872
Ni 1.6744612802333279 6.320873490415678 4.781058781012464 0.8202256172039422 0.8625223210896241 0.35563138972463915
Ni 6.088493097774757 5.739021247886936 9.167319080961335 -0.4103318665913127 0.8767045261272771 0.8106924809025263
Ni 8.941423238041391 2.340859949770854 10.150853807609883 -0.2806433662535231 0.982907541748617 -0.04730161329944112
Ni 2.338840038347781 5.144632873476884 6.9868763297774725 -0.5727960186982264 1.070042742105228 -0.0782594951335362
Ni 0.6129344221174117 9.130905422163606 8.99652787092661 -0.1817667090902676 -0.18090461820028844 0.6613011028191708
Ni 1.3745451944514704 0.9797657349752701 11.464346047061639 -0.1236723760506967 -0.1895895475687961 -0.13147541703488325
Ni 4.383071919585995 6.67668586943422 1.8457398052212435 -0.012396573892139941 0.4940505850672073 -0.9448909532955275
Ni 5.399703302507028 8.110297621687733 7.997190734104556 0.2969441602960757 0.045935071969217665 0.8406558600338361
Ni 5.408154322048403 2.778311170296806 4.877650401789866 0.02414060180194552 0.2515603328446377 0.07512583460056094
Ni 0.718116554077065 7.406988014710654 6.89298939756926 0.4980062272808455 -0.19930831751845673 -0.14466723313480892
Ni 5.370192668352901 4.267393494545371 7.46466418505332 -0.9382222830261003 -0.17882048197775008 -0.5937191420041389
Ni 8.327469802313683 7.29230595853343 9.096805150708711 -1.1429965087551346 -0.5581630992764 0.7409870459865884
Ni 4.573586704166642 0.5509303877480918 10.386500478543 0.6687465033536225 -1.7177355101123448 0.3255877921746973
Ni 8.071475467610206 7.229498488544261 4.7200357170786535 -0.18312862243480074 -0.2639144835346165 0.31308914548705435
Ni 7.258864196318256 6.0829043742409645 7.013814520684278 0.08987033989958716 0.7239930825317531 0.28836747437065824
Ni 2.515867611677509 5.3565152412280606 2.7252192025156523 -1.2557542947758566 -0.04042494078426586 0.7941052659678066
Ni 2.4219100278589836 5.345999020769822 11.42876390336991 -0.030259313105173696 0.7659126055836746 0.5065803421031017
Ni 1.1395561269681953 3.3903986788803286 3.6172927022434247 -0.7305928472364579 0.759533441530208 0.9504669047214083
Ni 3.577109145982543 2.684661555036058 2.606991884764479 0.35610704380947705 -0.09409980459990246 0.4703139035718997
Ni 0.9391320011461071 3.479673329040879 7.911509352381373 0.7067756902122021 -0.7106444291389891 0.7795237686092058
Ni 3.5909133836899985 2.6682305266887325 6.991065607953127 -0.0705479854218914 0.6183492818479931 0.24522924842028734
Ni 3.9573053884580855 6.977770424155882 5.86776025714697 0.7308206469765478 0.21866923854357176 0.4684714510465222
Ni 0.8194056011504558 7.425330259695954 11.451990167365617 0.09280679682009178 0.43825764646730325 -0.1703849496158872
P 0.2232509364825592 5.596468037230815 8.00377944966125 -0.02601493600652294 0.10893995493652851 0.24481555792163642
P 8.632159400741099 1.7680656060002848 7.920590801676316 -1.2661235538253228 -0.8500699542588844 0.7547018244695196
P 1.7728844081396329 3.599799182371766 10.416699513002749 -0.2572820658197634 -1.0005003151297156 -1.9302559554457015
P 4.196216526103649 5.989544611740478 3.978298880409902 -0.5776877995728888 0.7791797550062258 -1.2621841095616004
P 6.965170886983263 4.0659277103660925 10.362239802509109 -0.45396811522402464 -0.5133595698084643 -0.17173169345176875
P 6.288065781113577 7.783968703127046 10.17990067734759 0.27841087737857856 0.5748467305796681 -0.14094684686042822
P 2.3299814133622885 8.402251814461158 5.69650437690595 -0.5212392296668571 1.143910793039288 0.00041369049865090044
P 6.899990247519453 3.815223188537388 1.4723387983940825 -0.14099929736491845 0.027229010919282138 -0.5805178128225164
Ni 4.877741886567324 2.8205572101049237 0.2742070517365357 1.9757405701410617 0.6745623387044511 0.07311960280380955
Ni 1.4545898457774429 1.0903355051162846 6.967003299902041 0.26612408959142553 0.050510350044725906 -0.6827155639392049
Ni 7.095523108012127 0.7923161433343886 9.37462177510038 -0.5277739454615813 -0.38999109815143157 -0.611143251017857
Ni 2.5490014053349053 1.3968729148903662 9.359654503192374 -0.613696099346698 1.1509661572241725 -0.6258887847581479
Ni 6.121645007229668 2.003625321105325 2.391616791252151 0.8577213001565551 -0.23828958387766055 0.609969285314414
Ni 4.155709602857101 6.855515964616824 10.563085120623454 0.6200732065176353 0.44694000473264966 -0.3894969321238324
Ni 8.230441590816138 7.319941607644614 0.17236003809964148 0.1893805168817835 0.24041999995710212 1.5857227325167529
Ni 7.673942406911522 4.00789375302248 8.16287781818905 0.11695459771088891 -0.9047051251052612 0.8568826063053436
Ni 3.1976284775088963 8.426708141108225 12.442763966701694 -0.28489725643387065 -0.6911073875473259 0.3757795825377399
Ni 9.024076564209716 5.063347290021041 10.355729890671611 0.05675813072665064 -0.3624535548527951 -0.38732280729064905
Ni 8.501698484927136 2.298106667632279 5.674564334533904 0.6948660832588097 0.6867516816817915 0.6688004965200094
Ni 3.3707158648788194 2.547108304494447 11.363287070616707 0.9533640237635452 0.5014867296302783 -0.13451266119931027
Ni 1.3304875748917182 3.415923837580859 12.540442535330078 -1.3468754763634094 -0.06722380614466486 0.7760376098328184
Ni 2.9384185887462677 8.23603031434993 7.993862862100803 0.23064517995852538 0.30242086713993077 -0.30669609747651694
Ni 5.702708131765422 7.686605349375447 3.7318080930834996 -0.1837793686449222 1.18021708366949 0.31328146400351853
Ni 3.23672236854917 8.143666920712842 3.4948099836556614 -0.3987652447996358 0.660821849189907 1.4207872360512113
Ni 3.5114756115808237 4.391187796873318 9.21272542164618 -1.0771022200551708 0.3275336030471585 0.43731482293805973
Ni 7.099254962300495 6.33028464722542 11.644802940861213 0.11205278953389733 -0.8420439986306144 -2.080015258391437
Ni 0.8148367970168335 0.16422423343505074 0.36599798617210655 0.007443343651922664 -1.0328298805003568 0.46787984020911033
Ni 4.565235321511606 0.3145183243699076 1.4092749898700565 -0.32555385361296835 -0.7694738405723716 1.1507836088997214
Ni 6.219533719109242 5.642627089302462 0.44922920628120416 -0.27349441391356766 -2.1242724284375996 0.1922344413908109
Ni 7.897844606314793 -0.2773573889246282 11.45880442460139 -0.08835827413043491 0.22337641421125398 -0.34756532488705305
Ni 9.00234666508886 4.940187040606167 5.760801871240839 0.21911146828731295 -1.093960172152774 0.04108777117924537
Ni 8.195613970090964 9.161068225028322 2.235526550901939 -0.29251286399759946 -1.6669145708057358 -0.25522724017326365
P 8.354770309170817 1.5241726240377258 3.6806753488037383 0.37065100306192295 1.8523139915525841 -0.2050436773403372
P 1.8206014187976867 3.3438773108583537 1.5227423818238102 -0.9528598304336169 -0.8862317488914222 0.19144151317587033
P 4.374331047284358 1.161983484293431 8.29269200003168 1.3442686348681818 -0.49527571572355994 -1.2229914985225387
P 8.574677975221734 1.6477676525929927 12.53964725181911 -0.03911059284821651 0.466817460382867 -1.484567820842282
P 6.477321517766838 7.912627097088131 1.6934547881393403 0.2226300229635327 -0.35686654768332093 -0.14634564927849636
P 1.8248676891127862 3.3729078763782967 5.8630546787421 -1.5867470600162092 -1.3209577280563831 -0.2467891367082395
P 6.870995913594541 3.9658651027845586 5.994857069362146 1.2017241045033302 -0.7454371113381419 0.19485670950500636
P 2.4794910902646876 8.401907614308348 10.319816227885333 -0.3554498698414523 0.19487727833029664 -0.3484253588945032
