# total energy = -340859.2708751106 ev
CRYSTAL
PRIMVEC
9.45272467070243 0.00000000000000 0.00000000000000

0.00000000000000 9.45272467070243 0.00000000000000

0.00000000000000 0.00000000000000 13.83501805162599

PRIMCOORD
 96 1
Ni 5.155742945477929 6.327597233061349 3.7252035017691134 0.822600545194022 -0.09740290083120645 0.2559160387101722
Ni 0.21659311807441445 0.7417713809708785 2.286735112537793 -0.9084933885030999 -0.07522636473416722 -0.3414322154061217
Ni 7.044945609088859 2.2607892736367767 3.4950854251186376 -0.1770325368393919 0.7042272127587356 0.6591282635375681
Ni 3.6917805575887677 2.211606746748848 7.448800985602755 0.9527222764144881 -0.6085171262489197 -0.3178557136377622
Ni 6.678973917566074 8.265727199991886 3.19743897338033 -1.923859307890738 -1.2701696988702385 3.184851968247399
Ni 8.694171949404797 3.135894173060913 1.421700200792632 -0.6953509933150283 -1.018322173802485 -0.8806038611816835
Ni 4.058706974311568 1.9774533019014744 13.470396503516946 -0.7296415390667822 -0.3671463323427741 0.4972945459258017
Ni 0.8630129739205734 8.872195114671058 9.853314212740878 -0.4431707674982045 -0.15828199570476612 0.16783467239020775
Ni 8.708228151111955 7.167736503625509 6.23614873798699 -0.5379105196749511 0.3734956715995697 2.0582917506714162
Ni 2.296700174972014 2.8876750737816277 5.5223167755674565 -0.8288791791138822 -0.2985336162703826 1.4542239184431018
Ni 7.247007053401056 5.585104609191844 5.203017912510776 -1.292996981177399 1.2055231665344464 0.09827681879572751
Ni 4.9392755486427244 3.494861395542 11.609171069356373 -1.1306672977658205 -3.5793083012590357 0.625794939492761
Ni 4.185505824143334 1.6092318618875638 4.513066368633811 -0.15984522642682794 0.33778099180677956 -0.8455368422752213
Ni 0.4803742381139529 5.101947488910717 8.006200751363506 -0.6041112838717402 -0.7225586640780718 -0.05111610194952487
Ni 6.443553807601848 5.1320355117983345 1.222661737856325 0.7729787684018365 1.7271226077541997 2.404248336310453
Ni 3.529014090073249 7.129141028460525 8.170836967835095 -0.5271666508948857 0.23646667173630886 0.05345477738503052
Ni 2.392607520312188 0.6627929203901878 1.480250377910416 1.592423027355064 -0.05452949850644802 -0.905562330899234
Ni 8.111052264864616 4.361770782605607 3.2679553547624676 -0.11290639578344426 1.493036006214293 -0.8034093169775518
Ni 8.735763938316364 3.0124604932410834 7.508513847865113 -0.3167601665807383 -0.6725622775552869 1.6360163385649824
Ni 6.9330537061919895 8.581703430298015 12.130751625211987 0.4007239111879034 0.5241929129785424 0.039313452887641966
Ni 6.828941395766534 0.45390849935154226 1.9868190615863794 0.6929732371114711 2.5458009350756803 -2.327669057092817
Ni 3.099264864644476 4.357885712732277 4.074316258695585 -1.032310260551461 0.9569676819544035 1.328099481307487
Ni 1.229704963069509 1.5596995841837877 13.324685587272596 1.4137156739164103 -1.4531671950438134 1.493921237032724
Ni 1.5293752431773537 3.071729077440067 2.1105457758735406 -0.2493419850370803 0.38936760563481976 -0.7629555798378795
P 4.355825018736204 9.232325022296719 7.621324555607939 -2.308665519407121 -1.1057126847030119 1.0832908653643858
P 0.7038101836367956 1.8405211311348906 10.991880730107917 -0.5358556940284513 -0.2645469749122928 -0.2942257329236481
P 4.977577989340378 4.238176406464983 3.371787864535246 2.6642187475956565 -0.831760100206103 -0.5340489798370157
P 4.348414082530143 5.915893259185343 10.498883323359303 -1.3122067213366304 1.415602349416162 0.24743834025646416
P 8.486448322965773 7.1878329964495995 13.075448429537454 -0.6807242445407888 0.6535528263323196 0.2613534076756596
P 1.557449835692662 1.0019226547054074 6.104466610548015 -0.7484928674453303 -1.4491462468098786 0.3035256701683353
P 1.6831994330768858 4.333393702898215 13.812535985393405 0.2240032491619755 -2.622720114131238 1.9747951755086572
P 4.177764042570931 2.6991310258656895 9.596909053825819 -0.1234736297763293 -0.3195744961010819 0.28361787550081474
Ni 0.8625630242223483 8.648364045253556 7.514020060033519 1.4415290965842529 -0.45250232931177553 -0.22413874629857528
Ni 8.729336085484576 0.29976480735537137 6.3721743924497956 -1.4970533549038023 1.262495213044116 -0.7353812697640367
Ni 1.539971747625051 6.39239566124062 6.265464473262317 0.9920401001775045 0.15693756586172972 1.0420727392548634
Ni 0.5483421649027814 8.517973160015792 4.6933912723773386 -0.04809788394849136 0.15183264053499657 0.18205235865148647
Ni 5.323727317056899 3.4182565141466945 5.651577114924806 -1.1729040949478446 0.7938363285771362 -2.5493392872462417
Ni 0.460706898993633 5.593536439671189 2.1148486561809374 1.052571324793342 -1.5643059574038738 -0.22287967708049358
Ni 2.421542310779986 0.36356408252829037 11.564567442338618 -0.7252218127325317 -0.16829721384892304 -0.061401800146249096
Ni 6.363697188891638 7.831762059323441 5.872674456343849 -0.3693883342994155 0.6749035240939537 -0.35469370840171816
Ni 3.856948017191455 2.7984035412177994 2.147513491836122 0.42048026787922427 -0.4900576618577303 0.18672816686060098
Ni 2.159040144399478 7.279940346439216 0.786045107894767 0.31088905251194204 0.16190570850028244 0.3939819644783796
Ni 6.886149285969444 7.746460671155716 0.620316156441774 -0.33866519418394575 -0.9451331512133206 0.7715674898766067
Ni 4.806852327583145 0.5658873673161361 11.81255967622384 0.19262062108563602 0.1936809440293503 -2.0555535258046467
Ni 2.786493108029487 4.344358863611265 9.174249371961515 1.1187687465560214 2.3677037044171994 -0.16973960272240446
Ni 2.755251852722048 5.21065382356595 12.184513997242565 2.435286693673496 -0.8537528024271103 -0.5375829611322032
Ni 6.038116990236837 0.8345763420472396 7.432102747327236 1.5444889226779466 0.1688872820244382 1.7503736078623404
Ni 1.8211335926672485 2.434048265627714 8.830144668608988 -2.4429102716570252 -1.7569234931657163 0.48839981453933307
Ni 5.160025029790869 9.253461314843598 0.10755026641798716 -0.8319807008573414 0.71118230392033 1.7512177010301906
Ni 5.031458520430363 5.906771379799056 6.137947216349352 -1.6416611955555855 -1.0727380295492042 0.9834947817106546
Ni 2.6204559977495583 2.7346732709355748 11.440840728051455 0.05129916449460842 0.6132713531044535 -0.4921158299383396
Ni 8.740764429710504 1.4363982425104949 9.332300820370424 0.160647153502833 -1.5934715232242365 -0.3288114413183176
Ni 6.281307239947724 0.66796072501245 5.173743769224361 1.5637197458831005 -0.503659826022197 -0.983423819263403
Ni 1.9069170697973568 7.2304175214601925 11.480644261439826 0.5331866318367204 1.930007329770005 -0.5377377415425126
Ni 3.0375291192850553 0.39630737579892206 9.486672323033135 1.6488011490344765 0.37097907582530304 -2.4950370742592516
Ni 6.697813197998064 1.5050250242145815 12.878865784491879 0.7806419413740491 0.599358085457471 0.41726484626572014
P 0.9211330520621129 3.888756435984051 4.052899220223553 -1.1416615919937951 1.1278100308226835 -0.7507646941986424
P 7.115217164899904 9.070409300008937 10.035285781136317 0.41695040034909475 0.9498231004898223 -0.4151154040228851
P 8.141962674805713 0.3013037109450994 3.934277922575287 0.33228603013047936 -0.03244860744700863 0.5772170305840575
P 8.073723454816486 4.408467242883595 9.647227798229013 1.2226210025569975 -0.1576505327683543 -1.0926057150074087
P 3.0274336092492478 4.741373303221684 6.582868065006094 0.6046393884610684 0.027755315736397362 0.16874304313709004
P 7.697920929550966 6.615933696190791 2.78592972563423 1.093074427113711 -3.4307517603721496 -0.557793374641807
P 8.332737565763273 0.7178550420742518 0.528702238684244 1.2299830993490237 0.6014892728678608 -1.9960286309661368
P 4.656865943933179 6.450444843946515 0.673001863123027 0.6615327592140027 0.2693963325847941 -1.6260898234798897
Ni 0.2472369611774872 1.846240029610231 4.411766243822262 0.189897308617202 -0.22538264600800537 0.35658372633557944
Ni 7.955753449903676 2.7663493515816344 11.030577349427753 -0.25889954681852834 0.5388749404707494 0.6116937242046885
Ni 3.0275092310472687 7.431666031443665 4.6751153743406055 0.4223646293861307 -0.205569210826504 -0.291620176980001
Ni 4.812372718838679 7.626571763118122 12.350617276595761 -1.464815577916019 -1.3972181904820193 -0.25305620066387385
Ni 9.429159109820713 9.204543464248742 12.248169590999243 -0.32005169284781654 0.21741479731118038 0.5550608062019924
Ni 4.592956071880655 4.109638255278734 0.3525809616382108 -1.618625653892361 1.808841522191246 -1.764861002845238
Ni 5.867939586515257 4.5685491365693665 9.876031000866398 1.3001094238524642 0.0754870745947216 -0.571119659437068
Ni 4.177981455240241 7.865839132056668 2.191868512192883 -0.1086188241516839 2.014923925208743 0.4978018245795233
Ni 5.830554060118609 3.662713428974434 7.797748319846055 0.621894318886774 -0.3924259328451693 0.5422837090419822
Ni 7.945894257986684 5.303886047801131 11.685928139620195 0.42289813329209747 -2.1273294700963685 1.4556447100500285
Ni 0.7931053480125055 6.028437400090145 13.158208925291671 -1.2718514574480355 0.664420622284759 -0.5248503440568831
Ni 3.2945487053090385 5.550951914660596 2.098868824986618 -0.6343502852619398 -0.33978208139720834 -0.2146133233066433
Ni 9.381961655130835 3.1396847156867174 12.854779296549705 -1.380969332723325 2.7128514210016954 -0.3169280596171703
Ni 6.226008800144844 1.8684066691551462 9.68651899393579 -0.532601705867528 -0.7399755740029385 0.14354160417079795
Ni 7.623660323894312 8.195398927832326 8.015926659861485 -0.08688940289439229 1.2397208954620778 1.6765770335961643
Ni 9.220584738153955 7.681993088342787 1.5211466462801904 -0.24944740026669301 1.153078318471169 -0.4661248051912165
Ni 5.70478555728488 5.384791918958883 12.200729201283224 0.012719247338881322 1.9291534664101422 2.2223217046035533
Ni 0.06928847243677069 6.157410376615015 4.535008033329613 0.5048358486081693 -1.7900483007441428 -2.6119286799426886
Ni 0.805648168486769 5.277011951329406 10.59209002523765 -0.3459095344511849 -0.553436383224692 -0.6878600842546218
Ni 8.553222370618345 3.8284953156860415 5.445352690631551 0.9759424232846934 -0.8510132920087602 -0.0053386386040940315
Ni 2.2788156197400404 0.2841555229713551 3.7478096930150255 0.7172688764340421 0.12801676906232148 0.7624020213272548
Ni 6.614175489386802 6.886149285969444 10.444193639030491 -1.8317019717291871 0.10563608737427613 -1.2469986600704137
Ni 6.183972533169903 2.6782121459881214 1.1178820650633332 0.08413498007770671 -1.5438006383616703 1.4525876683912595
Ni 8.7961195858619 7.1912926937090615 10.925168125166236 1.8382747398506984 1.873072307145858 -0.8654060703953224
P 1.572971209736479 7.352735779759212 3.0070270670532726 0.08338704616808865 0.1846275755778304 -0.28104420123636764
P 1.3597839083904368 6.78071359407862 8.923323957585554 0.4673558493848402 1.2900936914876748 0.7716888459458194
P 4.755750897570432 0.8058825960606342 2.3182230839612754 -1.4224700230702727 0.10769579811678226 -0.4525306114465497
P 2.4459586988160265 8.999542222538476 13.397208782119716 0.3301381305495411 -0.3279462651045449 1.0361296342975512
P 7.031938659829241 2.3272513813725113 6.214413142690794 1.6073343972492578 1.9671813677171408 0.27789948495979877
P 7.0351242280708775 3.884597237092894 13.505080441179294 1.5281534187427166 -0.5332840766465332 -2.8646490945336986
P 6.741787273547294 6.336492247053572 7.496808538803933 -0.1566837979797108 -0.8015946323663162 -0.9222331066866954
P 4.661441062713452 8.921982615943156 4.552330151438806 -1.1778321283770812 -1.8877952151783297 -0.5942050805016218
