# total energy = -381172.94487877307 ev
CRYSTAL
PRIMVEC
9.22790511838461 0.00000000000000 0.00000000000000
0.00000000000000 9.22790511838461 0.00000000000000
0.00000000000000 0.00000000000000 13.50597191169614
PRIMCOORD
 96 1
Ni 8.5952766274715 7.333249901091538 1.149798792883173 -0.4514150097848677 1.131458426208548 -2.0495258315533285
Ni 4.0831633486539065 2.3207996200048817 3.8244728773682226 0.4782092471595764 0.1374048951454408 0.3047819111729396
Ni 3.397806853660854 7.526592964011888 2.2457324594357493 0.7516748647177377 1.0595071326812269 1.162633823370088
Ni 4.066839184931775 1.0918826163128839 6.7443148613365755 0.5502901242862264 0.9134430191988914 -0.6053988923349123
Ni 3.046417463963259 1.2609193777950802 12.20902014634624 -1.5068914240401468 0.06308844382005264 -2.3056724982170675
Ni 2.3266870233145034 6.555300608592624 5.651330433181734 0.37328689802287324 0.7607002081447996 0.040869998741484455
Ni 7.735798795410669 2.0679642543617605 4.059976392076971 0.7225185548687557 0.5319046798005033 0.1702114001525004
Ni 6.115498662297097 6.825207598252673 9.010063569234548 -1.6953769399114866 0.06519340597819741 -0.11274133096048972
Ni 2.801241259365569 0.25423247044104724 0.5892211048060569 0.24391567181518636 -0.26262198997543806 1.8102808257409337
Ni 8.287064604679417 6.4252517452031395 9.41513444995575 1.5886255079858447 0.5536135322325046 0.29759336384430035
Ni 8.495061580539703 4.910048220699718 11.183066296405753 -0.35218071217187735 -1.3913262504776167 -0.5231816981052086
Ni 9.172002226287653 2.664668267230156 2.1877646065981655 -1.8706091903173463 0.8504445639894838 0.7126046381891533
Ni 0.9537685640635097 8.840111399588851 12.586242132948152 -1.0578806528213975 1.165455094868967 -1.0685689857731793
Ni 8.987499496236609 1.0206247348757445 5.793940320685728 1.338720965577075 0.2747552829038623 0.6876317702938997
Ni 0.2811170485010009 0.630300968933707 3.4473856181774716 -0.04608136773909483 -1.115774182704072 0.06618225225402795
Ni 2.2380529969995946 3.1696376777459734 10.781020322902256 1.4609918332945548 -1.252811667207765 2.025028874853229
Ni 6.875767289057398 8.568368056858873 10.427690304809655 0.4742790588672348 -0.160189240029808 0.6719187304340171
Ni 2.1797972335299414 2.7454862581167743 8.430116508826877 -0.05656067000386388 -0.227645216789937 -0.3330846147723748
Ni 6.611609284133861 5.294473509846284 5.108012618380974 0.05345683426755955 1.5680841934993832 0.7382056265867093
Ni 8.433419175981287 1.2258071997494553 11.745900207224567 0.5409462211774813 -0.8171176677025799 -0.3861940930028446
Ni 6.30165318732059 4.98549557094966 12.831321444544667 2.002351487860371 0.5918707759414904 1.4510743170705267
Ni 7.134277816198039 1.6132869254093214 9.476951261916284 -0.2879882366543685 -0.2422182295081054 0.5810284339103476
Ni 7.145240567188368 5.11231466763324 1.7167308162565358 -0.2709143118912173 0.2772086295403613 -0.3160045193616364
Ni 5.212621993613777 0.11678467292357705 8.485937028200278 0.5694530703679225 -0.7131895641583459 1.3632811714149424
P 2.1191237589832967 1.9201239903751752 6.3777224983590415 -1.212524280442628 0.28074749593155524 -0.47184936637981967
Ni 6.7414551336161175 0.8289491543661283 7.02387516228533 1.0738148075531506 0.6124473145412613 -0.2542504780822912
P 4.685044216156624 6.447537135473884 5.391597208645287 -1.390814600948521 -0.4587210565279777 1.404780833320626
Ni 8.796131204959298 6.264243260961336 5.185388600749586 1.1790027516464148 -1.41650172130198 0.5066006538180758
P 7.697263064656785 8.63431066508858 8.481115447903605 -0.16410888679918834 -0.46168399581104363 -0.8306085031001631
P 0.7227009032277009 8.223908823721663 5.0524486347630715 0.5315169574437814 0.3565292189485602 -0.15255383497173727
P 4.197626280711181 3.0232554227294823 9.881360501858017 0.7565141950879101 -0.09569363144958358 -0.20720468954739799
Ni 1.1783942245067691 2.6700850473912023 4.427879117546614 0.40775382145149136 0.15042496155419255 0.6538469605339707
Ni 3.744074756153372 5.73397093528097 10.192984081082022 0.884156097309316 -2.530790320599461 1.5589284951420441
Ni 9.097210057283766 1.089547956379758 8.177082743228963 0.7467982533517268 0.04555146337755381 -0.028880687590092196
Ni 8.988449970438632 7.563218518456851 6.9543871930030265 0.09394888084433498 1.2843681018578075 1.9925977509077164
Ni 6.206338157876895 3.7927242706491757 3.599382130519313 -0.24591341897150554 -0.8740102671245656 -0.8267749882866858
Ni 5.689270964071245 7.277015048789293 3.7755539080500973 0.5978187659948091 -0.6329960852268905 -1.1078598129530017
Ni 0.7198061094687226 3.8607247016657884 12.682998561133168 -1.4892274311014804 0.5779114855479208 -0.43104493076894795
Ni 8.092678788508303 6.740024808360646 3.1316971468564634 -1.1014269128434644 -0.05219082307094237 1.3360778715272734
Ni 5.507102893953325 5.235488741891585 7.301341651618171 1.0620442972807838 1.792186430133068 -0.8000733106257835
Ni 4.804637863323851 0.06773466735624074 3.243553195786829 1.578368863254843 1.3257878024551746 -0.9133201204677819
Ni 7.659760859248791 8.56495373205549 4.81192144864091 -0.24071824792381122 -0.38317304678833364 2.1283951923567215
Ni 2.1398773170449545 3.0374018009013466 2.147989568219701 1.3102447125142531 0.7178118934217057 0.8998141155615471
Ni 2.4594673465466967 4.24899802714482 6.144987355112497 -0.42878878774491963 -0.9553054637606323 -0.9313001019849703
Ni 0.26063386805215105 3.247096711258451 7.106274816067354 0.1259496021206476 -1.0912422590009785 -1.0959898009882931
Ni 6.383615438411586 1.9017973712953824 2.1556339646173344 -0.8518113624300232 0.13067323284856203 -0.9833230320194806
Ni 2.7819826218935013 7.685811234708133 11.620970062668697 1.050989839238835 0.6190303670754178 -1.482518394512421
Ni 7.304043582165282 3.278130155349761 6.193244683651156 -1.1521339522800287 -0.86702072318061 0.01542610474708311
Ni 1.278110964575369 7.245114181639826 3.000850992485863 -0.5962406228744118 1.3136763639036215 1.3476072123231113
Ni 4.697381924973181 3.9855967104209515 11.846803655859963 -2.664009716908644 -1.4019451636440434 -0.44880816828963993
Ni 6.351585380593882 7.557248064003364 6.690291015042145 -0.06737550123118075 -0.4343336288225488 -0.1273541957776581
Ni 3.7342931769869163 4.426921261020692 8.16895203624447 -1.4928691416191258 0.13916815769345064 0.9906527329116744
Ni 5.687729903957283 2.9962361172583685 8.225636287514078 -0.14630142630412224 -0.47247234467579924 -0.3623496822850792
Ni 1.963467459568421 8.927471975031146 6.925011080627089 -1.4936139902049501 0.2823775753358105 -0.5722763987493306
Ni 7.760345022375548 6.923023389917225 11.963981437531174 0.08199582224751685 1.1376905231611891 1.1921020080325342
Ni 3.9179008002651816 4.797467781236741 3.5911028542663472 0.30654723060347855 0.738439082753754 0.3093944702442865
P 8.614415302180205 5.440025253424115 13.387213202526755 -0.7492806534539483 -0.263805725870894 -0.09424584325946349
Ni 2.7304632289818787 3.296733611575774 13.44118352697292 2.1098847922573603 -1.1350677408263612 0.3279421513394868
P 1.3842687822460311 0.7857496404889172 10.746634380970216 -0.6680044829812753 0.7587250866962998 0.17189161606840075
Ni 6.232047100855898 4.600682709798384 10.202748127229217 0.36703088981083243 0.62636880971836 -1.4757173124301877
P 6.100697102879177 1.266603767197473 5.101381445938507 -1.6971983093909415 0.14396943573683593 -1.1640705558166144
P 5.112397718777107 6.401286876245324 1.655494439512576 0.413009670533792 -1.293075142713502 -0.12621185464309875
P 8.530690521258272 4.519098802807222 3.798554460948578 -0.24063931505675978 -0.6704105213196067 -0.7844281478893587
Ni 5.549901916759005 6.712913223840792 11.6748859424761 -1.9290627064685486 1.3762701274754428 -1.1898211824181573
Ni 7.84931125326592 5.324113540301619 7.3613756323570465 -0.38169620513249103 0.1946872738066776 0.059954011956129004
Ni 5.087814580192732 3.7671906578627783 1.228594949811895 -0.46644413620384834 0.5924932400168377 -0.20379592097616514
Ni 2.5368064172958116 5.231659161368868 12.403506546680482 0.4057969548354366 1.7458181272811741 -1.2136846192993163
Ni 1.5953847899537335 7.339561788025364 0.5959833134977347 1.478789523597608 -1.2671843909896692 -0.22552817044693418
Ni 0.6117759498991231 5.34836447431053 1.6736060484088042 -0.1562600801787309 -1.388095659355461 -0.18330500011166495
Ni 4.645336541483739 3.7027060586031655 5.823261988422908 0.7644576183047028 -0.8307609695176273 -0.3354798544774287
Ni 0.7523787680930187 1.9047318450453192 0.223013545461769 0.23621418940587063 -1.5680402276353254 -0.19031331310869803
Ni 2.558288979842517 0.5735078283865852 3.0714066303620897 -0.4293006943843316 0.08149677112391127 -0.4535158581779544
Ni 3.0397733724539684 5.433242743341713 1.1964126315637698 0.29407403783713226 -0.9634630598707601 0.6928901904793615
Ni 3.500578030242753 8.807776820910304 5.025058367516022 -0.34518525469065064 -1.1961139574054047 0.44134297026084635
Ni 5.123545027864916 1.7343939489758868 12.983546808927382 0.9928636245200642 0.22334119009794437 1.2191273875814423
Ni 0.039478822632008546 2.8443632588418386 10.054182549919535 0.11821675225276417 -1.173370750171618 0.9386992226625189
Ni 4.900174362484522 0.6164655711560972 10.73065626368086 -0.5022315782161028 0.5844364311506323 0.8862142653899253
Ni 7.3083530137414465 9.05283306274463 2.773235490863423 -0.6550818613823363 -0.008222902130424549 -2.081896791684866
Ni 7.5086631448416785 3.1785426059493975 0.2992360397211282 1.0906401066406057 -0.5519855097107783 1.0406992559461046
Ni 1.3000087828414053 4.7382154040406945 9.61236246082806 -0.5892914452500883 2.0874244063713148 0.09532982035226163
Ni 7.783119491604615 0.6709951066376233 0.5443531857276239 0.970686831312709 0.35919982380218785 0.23114037442738902
Ni 0.918314030747059 5.312652482448093 7.481538641255 0.7539572329940112 2.3739152325445505 -0.05923076063685928
Ni 0.5774112321482933 8.396932040109434 9.387865991053037 -0.6632320012932965 0.6596471121555155 0.811441443253409
Ni 2.175229420617304 6.889673741702538 9.138234553982173 -1.2976329372875135 -0.04133948217873526 -1.117558014077372
Ni 3.794735953911711 7.679554715203551 7.598877911261505 0.8877353300201422 -1.0280951940288487 -1.7775954196927708
Ni 3.982385399524795 7.463714020200354 -0.03576182254875553 1.0187428062796713 -0.6080224460006882 0.625915010010393
Ni 2.789604871319437 0.5573008590563536 9.016694741677016 -0.007807668969876877 -0.7159576138217864 0.685075322420633
Ni 6.940454902224239 2.9247290823896304 11.668159722613431 -0.5274278749760722 -0.12456969105398547 -1.0539658911480236
P 6.463169206330464 0.0075188968913469595 12.478680750946154 -0.21612538907579557 0.6552027032309168 -1.2195595900228544
Ni 1.5323120601398446 5.112822202401311 3.9148952716477154 -0.3623761646476404 -1.2333682137711726 -0.13613554151471394
P 4.099386005422424 7.6841409839259365 9.71176637492143 1.1487051291041377 2.244694158761482 0.8388941401477229
Ni 6.382831066497295 7.967188510126581 0.6448709079392885 -0.990549631674907 -1.220220106424989 0.5393634500713936
P 0.6128094752450127 -0.04430409409063069 1.4403578336512657 0.38042145218512546 0.31109808319895454 -0.5357824175883547
P 7.965850463919849 3.534416757415764 8.59339044371525 -1.7336637513068271 0.14931681609167835 -0.22781310982636896
P 3.979903093113685 1.8796688554074958 1.6029295249787274 0.24608156911825357 -0.3877552668423774 0.07470803033685199
Ni 0.7380912029765823 6.743217663447055 11.388802435571904 0.3287749316534273 -0.6371584441346962 -0.5218105287892948
