# total energy = -340868.7650561954 ev
CRYSTAL
PRIMVEC
9.25384971081316 0.00000000000000 0.00000000000000
0.00000000000000 9.25384971081316 0.00000000000000
0.00000000000000 0.00000000000000 13.54394444523749
PRIMCOORD
 96 1
Ni 6.564625598346149 0.027993821342662803 9.478390869727935 0.5283519294522385 1.3772741432599247 0.08988525229792263
Ni 7.9302162285853965 5.3356403003803425 13.474084808721228 -0.1733165214403854 0.5357068271554128 0.47760606635793873
Ni 7.569103243806471 1.7697247632189084 4.614273088093522 0.40127335593347024 0.9000084909605404 0.41546867359724576
Ni 4.468165902739307 8.43169160869853 9.906474891642489 -0.4909380075801545 -0.22453083953067138 0.4686468002821219
Ni 4.164306487312486 4.747187985025502 8.992312045084017 -0.8498436971806912 -0.8374255260219965 0.658786306817117
Ni 1.4054747233227418 7.244098781350465 0.5466998699758577 -4.225023890935123 -0.40785229470256856 -0.7582031527545587
Ni 2.672150951944945 1.1593315697431947 10.346707367710177 1.8206570267689353 -1.9214386142643878 0.05675658806475386
Ni 2.477958911722877 4.540725339831575 4.246297448226262 -1.018628392188994 -0.35887560769354965 -0.685509067523942
Ni 4.680902658167715 4.066891209379786 2.696938314296093 -1.7614236950289148 0.9130712376817693 2.0871279581768185
Ni 6.454143884349901 9.14766197572171 6.034734421334759 1.2214035852101286 1.5266338967743966 -0.5795562202401954
Ni 0.07045881316420435 6.115545516385856 6.247279622070168 -0.3981098706038241 0.49080045356102575 -0.03914478852026162
Ni 0.2899527297920472 8.696018577338185 2.6692406161503373 -0.3820042232912131 0.7253413690295315 -0.6924063088644075
Ni 8.075584956717323 7.202780341531951 4.064199264442898 1.5399743226370444 0.8100417346924049 0.7993595723882103
Ni 7.586907651020541 5.968742441518909 10.272093575939364 -0.3065014649672076 -0.7357839045190941 0.6981228996332106
Ni 0.5240020269328896 0.9997211666099932 5.4668913550996985 -1.2655766801829171 0.28050606934471045 0.8849302564711792
Ni 5.454626302437781 4.3153478254351745 0.5819070673181919 1.068457399895979 1.5643974886764154 -0.8649877519109812
Ni 0.37310504886869433 0.33496715726196524 0.2717309739473356 0.03727893895611645 -1.2526769414021137 1.4902756698603365
Ni 0.7599187509842303 4.389452655461303 0.014866309869752337 1.1769271000643085 0.07043717087563998 -0.7117222355842
Ni 6.398944669676342 8.106520576944266 11.971885144668578 -0.41657244818438577 0.30783663883886336 -2.1039298602255054
Ni 7.145054825834775 7.657662587381653 7.619497859610203 0.5889803417675729 0.612298447668223 0.8795039432492854
Ni 7.248327790756303 2.7833452123837525 9.662019640285315 -0.036178763913402204 1.3108234678358586 -2.737596746267176
Ni 6.571084785578696 4.134758944571049 11.949971102712425 2.086266895728104 -0.9681974892319518 -0.6534366124694294
Ni 4.515628898893655 9.085948050716183 2.204426213199356 0.4405428429570542 -0.7424037238284569 -0.0745625058979232
Ni 1.8470499330114079 2.8487421696508175 9.290387804321236 -1.158562995734824 1.8495084037829888 -0.9946310008331322
P 4.234136038683262 2.904894530864423 10.179154385204917 -0.6450568730461664 -0.5904355861568605 -1.1071417038400546
P 8.123371837618288 7.889786158357605 13.259332564783868 1.456067142299428 -0.29937976632076185 1.2149316043325398
P 0.8079786204573449 2.7463390666202043 3.8359160411768407 -0.17118224870620197 0.428459686540275 2.5854622582210443
P 5.8129631322457 6.117831217311987 11.79849575902927 -0.03365625460186462 -0.4184167004819762 0.5575786875278397
P 8.662427102188978 8.416339471708852 6.191885151163647 0.09768443662736725 0.01854896664678096 0.003935330498664191
P 8.22103696949838 7.934491507240751 9.750732597768893 0.21196894370526073 0.3169936227477831 0.24368684363383197
P 4.56966212847939 6.264180853533668 1.7042621036175296 0.3841948031846286 -0.47727310849855226 1.4790548614438528
P 2.9900021884256502 8.853713433541392 6.236011209042842 -0.3231889529252176 -0.5726258116689492 -0.968729193365706
Ni 6.7271324564991035 5.391357730648489 2.915008988808798 -0.49357081721731133 1.2816872125915344 -1.6299881300930315
Ni 5.592397619799047 3.5864590839468997 7.482745391123299 0.880027162742607 -0.35731520518496523 -0.5372440897355457
Ni 4.436813859266714 0.026615923092052084 4.602598431055439 -1.0099000111770609 -0.9028037943174904 0.7205819999676751
Ni 9.13825081036999 4.314551994343485 8.527605912176906 -0.6776438058432522 -0.3364895266888656 -0.010959584335297253
Ni 1.835269782084427 7.88055081615405 10.22393098873232 -0.69731403057867 0.5629366094056435 2.120376435817303
Ni 2.6062450329331948 2.0046985199650966 5.0310340992663205 0.1381520577241105 0.1696544992077659 -0.6256820680639806
Ni 6.143538412343528 6.966603584298325 0.4489218411269457 -0.15550340451836445 -0.0795879841369726 0.38974272958605133
Ni 3.4351123687774012 7.565984696389037 0.14740272434068535 2.436583558108049 -0.007671143392012595 0.5331290391259077
Ni 8.997786622686846 1.9372379541695817 2.225297346271401 -1.177768107908365 -0.709642727347352 -0.3448834071795157
Ni 6.238936350997295 3.916840033196758 4.525790551472538 -0.3825485258304573 -0.5171198081818449 1.872859934024736
Ni 8.284999580030423 0.06040172908922966 11.517919955344299 1.713380575577759 -0.2843598958731619 -0.2980222238516028
Ni 8.358502909812835 7.013909265004316 1.8272004249686946 -0.5647541222303564 -0.6520893544129157 -2.1435212493648823
Ni 0.6185291783107502 4.904346117934312 2.145929851805229 -0.3025717908954983 1.9895006000396318 1.383177396118237
Ni 4.387620393180438 4.565877303868914 11.516971435729205 0.43083230053750965 0.3499708490047521 0.5787722908863193
Ni 4.392006718034631 1.7625067602942852 11.943510990094886 -0.16457219958885203 0.5252894884768308 0.9876957071658796
Ni 3.0586472470087958 6.8770725864832905 8.57192167397912 0.02218322096525857 -0.5094095840217807 -0.9173451824667749
Ni 2.381441257230803 9.071965483512203 8.294284893023457 -2.303795078688697 -0.4243628907630821 -0.9851402877338775
Ni 2.946240732232648 0.7595337908282505 0.17580556584907678 -2.2585608894412457 -0.0695380561001383 -0.7585322539592033
Ni 8.609467319192033 2.431310254360025 13.373209516309661 -0.9337387933334499 0.5538253911329947 -0.8352822544267485
Ni 2.423287166493809 6.493768869636101 2.4157388011276364 0.8393355985605158 0.894163345033673 1.9270428478250425
Ni 6.409438535466755 2.4095359455374123 2.409318480064683 0.4857456647459376 0.47321462215846244 -0.7019970378766361
Ni 4.81884054482724 6.133386938999539 6.942436229890704 -0.9880662031314208 -0.694500729499591 -1.6242571411465252
Ni 8.61884146914414 4.586078458207957 4.180569203132656 0.6044509265993461 -0.33501808434966174 0.8035851804337839
Ni 4.164658133608814 2.3568815395872775 1.2070083298303103 1.199069954709935 -0.10595207595279818 -0.42415617406891465
P 1.6445664432759266 1.821268707180639 7.40635763632601 -1.2996062589638004 -0.6698538774851883 -0.7250657467706416
P 6.017038284164559 7.887509711281378 4.3088025773985255 0.21592227192605395 0.2540836134871237 -1.0950667749533916
P 8.899538498262844 2.09901375818017 10.785936726448341 0.8597200757541388 0.051770961924704394 0.6095810487370599
P 7.8087131793542435 4.1676471271276005 6.3584618525041 -0.22732922821141494 -0.28225159128090743 -0.26448552554673804
P 0.879782018012508 6.1467772598097055 12.099090416210183 0.0003828372607154697 -0.3392033260756029 -0.1393609904305471
P 1.0231796761150178 6.6427651069301445 4.17802254363925 -0.18781960015256682 -0.27910764633528706 -0.38984583082281893
P 1.574820176554281 5.485941330510761 7.824594636558396 0.015339201460231645 -0.1701275821894425 -1.8203973453496456
P 4.463076285292457 1.7275179538096708 3.2994814668987833 0.055570023955820426 1.5595730707045787 0.33124010536446824
Ni 4.59560992360842 6.273795603583262 4.2739405486575865 -0.6130587228730152 -0.35187937888137466 -1.4477231412101066
Ni 7.104411917059204 5.494047703026107 7.98300388997414 -0.27000234159990916 -1.708516305506922 0.3266326884994439
Ni 7.165015380076327 0.4208715712998724 0.6116184032029187 0.7899665612090847 0.7075742748540975 0.2656435504105812
Ni 4.8881611344533304 2.044739928496947 5.6303800467273994 1.1934374390145057 0.6175216437403752 0.5565296774380352
Ni 0.7678752111311417 3.6784330981364226 6.232259698292019 0.19716710280573785 -0.3815108285945623 -0.4719480967412131
Ni 6.903260981709807 0.28509168243781075 3.0083405427791448 0.3564081199896636 -2.276666855013337 0.3761086837423845
Ni 1.6550325475166299 5.250060696474043 9.88859645362919 0.490195215876859 0.7559120427275369 1.113545036263237
Ni 1.8749225289203368 9.046434111628825 4.141927902091184 2.4966134176074357 -1.5193854427420994 1.0306495850195863
Ni 1.9820265877018577 3.135907639851972 2.1467830567663193 1.4704362665369062 -0.8446922348867388 -0.07422800537663991
Ni 0.05609406195921427 0.699096897109388 9.091088564337502 0.23374464481945553 0.6172568201147628 0.7238951235013081
Ni 6.674764919895973 1.7193375504950978 11.454817952853269 -0.6013923422786804 -1.2524141746590303 1.6566712958111725
Ni 0.4805431716317268 7.736505388558304 8.308831019686554 -0.5886137024567734 -1.658751575378969 -1.9247175421259755
Ni 0.08361131003185389 4.140940516306495 11.346466475104775 -1.9517807168913548 0.15069672715834045 -1.1449261216776798
Ni 2.968283402702458 6.367731433952299 11.713182666000188 0.05598937088142615 0.4131366830299595 -0.19741649981238257
Ni 3.154359816559277 3.4077764961628674 7.042458317341182 -0.46900289806996 0.5039135939042161 0.7151991383892069
Ni 3.133742238974585 4.910370374221403 0.8093389363931394 -0.9079385444408944 0.37889498823827006 -0.883844222495852
Ni 8.334794546360419 2.0185515332704305 7.128719929985358 -1.1462934343388518 0.3930339987428134 0.4700056283028616
Ni 4.743699283611935 8.592005304424388 7.53880336306789 0.22122388664462547 -0.16426032477538807 0.04054449708126566
Ni 2.3786465945599873 3.6375403354134623 11.547594275829413 -0.6286154396606916 -0.8788087169544736 -0.031243531395313932
Ni 2.5981108988681396 6.391254720406647 5.73759422632277 -0.39978057343802764 1.013477958336306 1.1514412970883783
Ni 6.638138181978463 6.245432553629456 5.574226760128804 0.9449331193873727 -0.8072430889013452 0.3411805044066318
Ni 3.752315835764871 1.3723551945186063 8.454103507779486 4.104032661261015 3.3386538166936246 -1.2434965604544264
Ni 1.3135007091332191 1.0658769395691339 11.909704825627921 -1.7122546895034316 0.8564349772449639 1.0488817917568967
Ni 5.074293071409571 9.19944651978093 13.469317225251016 0.0244236802600031 0.8499560543888394 -0.7749106953172267
P 6.024904056582417 1.4588231680156285 7.83842266446899 0.22372222758644694 -0.18326514801266502 -0.6981560668639912
P 2.403826320147038 3.0161350605527466 0.010391148056486086 0.46050514501159406 -1.931610669701383 -0.35456566746428614
P 6.1836723593744125 2.4770612882822505 13.443096441549837 0.06883717337837177 -1.7334709185697306 0.13453657245871023
P 3.4466796811566045 8.80016140415063 11.749209754443958 -0.3902536077841988 -0.24458672974028198 1.0970300693273494
P 2.3919721384208295 9.090908114264387 1.9915830384970605 -1.7093179754726109 -1.0640932093900126 -0.2778336647188699
P 7.990051622060541 3.9326456088317023 1.8960573967146268 -0.17092693816228627 0.3885091142892664 -0.7765945107775529
P 5.243712555440337 6.586224084020598 8.867491490662507 1.3764223367825907 1.1630400576695712 1.63366017962798
P 4.1894769590496335 4.4768275062488545 5.539758020008758 1.375276910324238 -0.3174957591951822 -0.48666457701578114
