# total energy = -340886.4588326958 ev
CRYSTAL
PRIMVEC
9.12018754151983 0.00000000000000 0.00000000000000

0.00000000000000 9.12018754151983 0.00000000000000

0.00000000000000 0.00000000000000 13.34831634970349

PRIMCOORD
 96 1
Ni 6.565513667277432 1.8968804746238739 11.111819606640953 0.6402039158292394 0.5784280201730232 1.0069998068111303
Ni 5.179418423758314 0.6390469905169917 5.83067825759517 -1.8295376170880167 1.4366514567769773 0.22658412251527427
Ni 3.0109570004532733 2.1236904219928014 4.369851284222189 -0.3156008561653145 -1.9345628103511714 1.8325167543209988
Ni 3.8160233273702113 4.5992468047978825 4.845185433803048 0.3671147077738903 -0.16139483030213492 -2.2638725314621464
Ni 3.9064043872610825 3.1052323804827315 2.5878915584748934 -0.9819930003541474 -1.3982623154758176 -0.992227276487646
Ni 5.433981102231975 4.6284678861188056 2.7227763981790316 0.5907436043155826 1.2144716339769859 0.11231015696034206
Ni 5.572580594377441 3.167185815380682 13.487939495209487 0.364744664879817 -0.20477808238377637 -0.30981767382463415
Ni 5.680335611795266 7.963237150086244 12.695704360336995 0.6709561094104316 0.8381541766579048 -0.3185437408437224
Ni 2.344927934690354 6.536256105205796 0.3178595170166099 -1.5264315509556035 0.5661494599159863 0.3949088471680231
Ni 0.8735370479297234 8.94772492919623 13.150961328763087 -0.20118985081188576 0.23907839832754313 1.4421950123030258
Ni 8.62726889474764 8.568899693607218 6.749228903829373 -0.8164178134220778 0.6989559370574672 0.7194448010394384
Ni 8.868643781838639 2.383734333261056 1.0357122252233126 0.8850328434873145 0.36919010224568033 0.2062094155136642
Ni 7.14680706932228 1.2987603263127636 4.711354887794508 0.32325785848994004 -0.9905740571549391 -0.27934058828169955
Ni 0.8106250813067954 7.6832473883657855 2.1580087762070654 0.34003713483080794 0.033584006603032485 0.3369034742978327
Ni 7.619734401374865 4.195897384542215 3.7886126033034087 0.7928423400949829 -0.5864470338227578 -0.42060239527938537
Ni 7.998167468893715 4.120546393945003 12.717488840625121 -0.16476066145057433 -0.7495819867444509 -0.8869372595988789
Ni 8.585206589175824 7.330697413477641 9.056739444532413 -0.42512470862977103 0.8096707245062313 -0.3480129539474329
Ni 7.312101350801811 0.7858738039669534 0.11125352141117853 -0.7770501102577327 -0.38489440035481454 -1.025356712051763
Ni 2.0931651538338967 6.489232417537044 9.11001228479826 1.0355670769258618 0.7818668149200857 0.2041039391348872
Ni 0.2125003729018461 4.874357266110509 1.316306655386835 0.39731565683730286 0.7016933905932883 0.7049874879635277
Ni 6.652802983545396 2.2714830633178837 7.041317506523718 0.2134157034541163 -0.3127551591864033 0.5602269237839642
Ni 3.740353130204262 4.575862643591001 0.8117003514340541 0.12279460143143368 0.2327789384720765 -1.162955982596197
Ni 6.145921192766907 5.910757153484757 4.740975433335736 -0.4465751651940632 0.20850129687163443 0.5321990711124706
Ni 5.576712039395662 3.31641032617124 9.318366620381603 1.1470064012454761 -1.203888459144501 -0.27094207980535917
P 0.47773914307159837 5.730806730406373 12.497067584724768 -0.10891398679459952 -0.7346161094632381 0.9647177582134676
P 4.188692436276445 6.359269743122824 12.736936728830095 1.059023508176589 -0.7268770889477676 -0.9378949815936687
P 2.5801831758492866 8.646229764930599 1.20825067177563 0.09070929086111475 0.26734536359303634 0.039593188911589874
P 6.574287287823852 8.213102931905638 5.91180962314282 1.2448692724322368 -0.9350168887149252 -0.7213615584461771
P 4.795020753497926 1.3536364955724376 12.2980039843292 1.9372262161159473 -0.05927549783186566 0.0660747801418862
P 4.196608759181115 6.56688169542916 8.239328031574276 0.28542973189857296 -0.7430200172562171 -0.43137300353232805
P 5.179035375875829 1.4004686592999476 3.4074781361942788 -1.3775402524371179 -0.7784991839994334 1.9651010881493447
P 0.1390263169288052 6.006272879038449 3.4679860213452356 1.093946031085387 -1.330378764259967 -1.7298492626567434
Ni 0.6491375661641419 0.3129875127589203 4.78997637769312 0.3370590260390905 0.06896675697770058 -0.23836851674471207
Ni 1.810858864443178 7.241064208976383 4.47426192881842 0.6552081025475555 -0.39923652800909953 -0.3436333368224985
Ni 6.184946475841885 5.815660956564262 9.18912808886903 0.38052892429726726 0.8334835106551128 -0.04581782966506303
Ni 8.880262900940654 2.446773070492711 10.05076146784118 0.7182762346526339 0.6171082103520404 0.31298964379471256
Ni 2.9380410999661377 5.399762158063403 6.623073907770798 -1.3150876424288513 1.1957858846420246 2.4284470450438436
Ni 1.277181962266164 0.03758429342182436 8.780229034411185 -1.4754990257717944 -0.8842013487249545 0.8854061676663332
Ni 1.9353767868135172 1.0572668767819489 11.528954190572206 -1.6995027891544021 2.168864870335994 -2.2077435496790625
Ni 4.554110995978516 6.719635718851179 1.6939280262023257 -0.05126394038129881 1.457241365113187 0.46354187495538873
Ni 5.995802903583886 8.053417565848195 8.0063072363965 -0.6623722243961624 0.15290324789135604 0.560628530097757
Ni 5.447652263561584 3.0436802338426223 4.832410786922206 0.4653506460293534 -0.17977487547121943 0.24455870471582397
Ni 1.7036966592244358 7.476757219143868 6.777274392958577 -0.29326465456195944 0.5852717825677339 0.9058937460967237
Ni 5.298309190331208 4.612407235617511 7.097567176047728 0.8697491778553667 0.7476289767831382 -0.6510827675252723
Ni 1.1994688430603 7.3087268813608794 11.391826696717999 -0.060526082409515125 1.608089273137411 -1.0696817592213836
Ni 4.58020385292582 0.4689281297556982 10.275761057955988 2.2631117420367217 1.2324323322204644 -0.3408400903480775
Ni 8.250477461010863 7.609702194928856 4.362297032768343 -0.8933902143130743 0.9791228778952041 0.9350207453696671
Ni 7.344350334431893 6.289783033202689 6.833190263613565 0.7702294877914735 -0.3649760641643327 0.6787640354906247
Ni 2.343924714045753 5.526286521722945 2.7498068104196536 0.35934097736574244 -0.09064244217892131 -0.3928298531518073
Ni 2.6049900863339657 5.402999824689161 11.244942426085665 0.4452973269229041 0.10518820120358012 0.6551510240573748
Ni 0.8991474469488512 3.7470564681477327 3.719135013570951 0.5937114286946549 -0.6094329531949697 -0.4125535568329798
Ni 1.6669605432566832 1.2669126309405212 2.452352801314228 -0.36701623452281307 0.5641560836350412 -0.5617785845418003
Ni 1.2409839373714247 3.6681942052944163 8.049395563082113 -0.5428179842788974 0.16964807144986266 -0.1282401979270372
Ni 3.653118535062367 2.9425920736175546 6.886970186314321 1.2182940930468695 -1.2040951758386682 0.06061632813047625
Ni 4.22692426302342 7.658869126701982 6.215536497333305 0.19387094855296932 -2.2209127400711686 -1.0537123803763206
Ni 8.277354654098492 7.413435756094189 0.4366125687555647 0.32959871310630334 0.21498536193408135 -0.1101655998135135
P 0.5850691597436192 5.781049844325527 7.789089902427494 -1.7764304528503922 0.30332409568049046 -0.056796183053437664
P 8.904385797349468 1.4240990655741401 8.029560066900816 -0.7405815830180535 1.3248976865407376 -0.8639567395433055
P 1.8709517810547773 3.756732987274293 10.158349585824492 -0.07533357973599283 -1.193017577868268 -0.12025795105250901
P 4.139835590884377 6.50875873935605 3.953076947704224 -0.5239329744489364 0.5179587591433725 -0.8432439324759865
P 7.052577290231213 4.320761874044326 10.654292623501762 0.7528372604569551 -0.9289498565852389 -0.22721789944453127
P 6.703337943470252 7.845459046410088 10.458632677147694 -0.12601439392031202 0.9590469330809352 -1.476190395411864
P 2.684791728518135 -0.029122583293998923 5.49551500849673 0.11037591605210668 1.0519709722051818 0.5006680903837248
P 7.1374588769521345 4.157528754980066 1.5392742676869404 0.5078700074488028 -0.33629180885576276 -1.1252278719178042
Ni 3.171490543964788 2.090994549166487 13.313397343424272 -0.7732592757567328 0.07362636723689901 1.5818557933621789
Ni 1.5484893053169844 1.5308052614089724 6.848753863886397 0.9989743654034924 -0.4999831485015583 -0.945731704029268
Ni 7.324814892425209 0.6209206175065873 9.158199708414749 -1.04344570834299 -0.28745498985871787 -0.10156397418743154
Ni 2.904342006495223 1.9327136920114856 9.127938925698512 -0.9440697429458129 0.325887068582671 -0.03991560524801513
Ni 6.712549333025225 1.9885748415404043 2.1611990178568967 1.0613994646079332 2.63261808997124 0.2959224038997807
Ni 4.611951226233602 7.150163298387855 10.506313018329276 -0.903862831709624 -0.05362447019367539 -0.27062711966810166
Ni 7.5942981979403905 6.458178178492805 11.79394489163711 0.3059934149825375 -0.37858876985176093 -1.6172529419145503
Ni 7.70949528850362 4.0890635060798886 8.383730699139374 0.8716273687146859 0.08202461860292326 -0.8720323174625886
Ni 3.4020397682817736 8.744399465098644 12.380923818680543 0.5193373846584539 -1.3352926566218164 1.340160269126763
Ni 8.960046302749467 5.33475346029326 10.144133037271729 1.3726361302672812 -1.5589441788713279 0.47910090573591035
Ni 8.824100785218354 2.8796262978873255 5.864115601679721 0.8668975673391845 -0.13753910673045988 -0.07897220492984464
Ni 3.857584022619727 3.0363567231370343 10.98551777556076 -0.8661138950956245 -1.4011162399848451 1.2210518582976648
Ni 1.4847118328833961 3.624763871570872 12.58186982581289 -1.000882895280115 0.009050797348358605 -0.34355080441102126
Ni 3.3819662352020754 9.060322766271174 7.913589584422477 1.0725814493666819 -0.5113777634917451 -0.3775760123165303
Ni 5.789221532485185 8.124755673867003 3.741092777424963 -0.23917969979209772 0.7813258548149512 -0.5478756013074629
Ni 3.260576537205356 8.737240117771265 3.3435401484575547 1.4636269569245568 0.2822788449744171 -0.4532903724307097
Ni 3.6868358689086382 4.355874596605361 8.80374908641447 -1.574907387068804 1.3701938393743758 1.1472005195341533
Ni 5.075174678596592 4.850562696458109 11.238201695372714 0.5924425892845603 1.293708919642759 1.1664997340833974
Ni 8.085019016153126 9.297848934161975 2.3523070785407785 0.8987784752081812 -1.7465390646075987 -0.04137804872615455
Ni 4.893801506240411 0.8629740465608429 1.3065289021770463 -1.077596643193086 -1.7338738104351044 -0.7642555295962257
Ni 6.298766418065707 5.761760647386153 0.155123448180812 -1.100506200801408 -0.9264869968670431 1.2370567183663534
Ni 8.478217667522967 8.977538822716236 11.19664829627334 -0.10198049289955985 -0.3496988262902881 -0.22846257048490975
Ni 0.3863959033806782 5.656404239327693 5.5073283875962895 -0.007344356180213157 -1.3988487841069068 1.7502985316500308
Ni 7.370999522827567 6.378075570115254 2.41952924586042 -0.5943104957312345 -0.5421685236203566 0.10983598438823665
P 8.84171186762494 1.7481119732172252 3.5190964651125847 0.5429000024697425 2.1925293038324694 -0.15697947484325867
P 1.9857111026094525 3.3993584331043856 1.4396827302598645 -0.5506356805511032 -0.0012827233671655327 0.6958904107582661
P 4.917258628948718 1.4647659824311927 8.241397402158457 0.9366225426391482 0.17687184289181151 -0.6109211077047221
P 8.889912059504178 1.7043897934879784 12.206114445396356 0.42731426008192214 0.6413344298892568 0.4783051493074924
P 6.46122432117732 8.185632926618927 1.4090078910230377 -0.6322064994460596 -0.3186357863368964 -0.017319722225370173
P 2.066087316617348 3.558724592593092 5.708340972098687 -2.389970229124884 -0.03135974525820406 -0.3683822616324043
P 7.146259858061589 4.199180652106364 5.922474770613696 -0.7192077453279678 0.505969190881664 0.8931050789724876
P 2.819442179398944 8.602407263136891 10.187661869022199 -2.4104290111998683 -1.3428434723858809 -0.13853129544040013
