# total energy = -340862.42156804906 ev
CRYSTAL
PRIMVEC
9.33030110681732 0.00000000000000 0.00000000000000

0.00000000000000 9.33030110681732 0.00000000000000

0.00000000000000 0.00000000000000 13.65583879111685

PRIMCOORD
 96 1
Ni 6.5237839153560016 4.310543169362561 8.719977268039695 1.540461289575792 -0.16604312770742372 -0.46611786321268106
Ni 8.995483334696958 0.32066472443141997 6.5193930756145715 -0.2814643194929217 0.6022408063219048 0.2523110949677332
Ni 5.796916131215902 6.800781897174024 7.421020200190069 0.3535408257441976 0.8389530184101164 -1.0265247642179354
Ni 8.43571191462244 6.425601155901977 3.32526522944115 0.5864269792180997 1.2905037824419 -0.1671780126428153
Ni 1.3643606131523742 5.550932070563438 11.607722281817836 -1.0198522372937662 0.3792194614572243 -1.6473446190936079
Ni 0.20791736481511072 4.364052446704463 5.400980134940009 1.2025558563760064 0.3317219300968932 -1.8705600822469655
Ni 2.087169716273515 0.6867838771848174 0.8973249226954019 1.1555450348441068 0.4579522966827532 0.9640744682025139
Ni 2.7100792845211186 7.683456380936165 13.130389182281858 0.6497897597454616 -0.25587592950085614 -0.06637842742523407
Ni 4.994454246810052 1.7166727862003583 11.370370615829142 0.1421624644350842 0.5836638146506657 -2.054351792187062
Ni 1.77675992588333 6.007948883599358 3.953679675392628 -0.05910477658195627 -1.2631739842786955 1.5534286483697375
Ni 3.3116317933379267 4.710113317953131 12.161439269448211 0.40859225819238665 -1.2608347946225575 0.45177239312428646
Ni 4.04211040403972 4.708144624401406 3.5519113078409856 -0.3415306886571989 0.11371397928640417 -0.9673549387259984
Ni 8.784338618699184 4.8434433220012165 12.874124062744817 -0.8162550625919684 -0.9888874134811355 -1.2535099788263702
Ni 7.601732272786608 3.3145055261053726 10.720953661892203 -2.732390005255256 -0.20705145179898532 -0.8823239291965836
Ni 7.429485582462485 3.461933615256093 0.7782954712858403 2.0249206314101382 1.2174587416297677 0.7045408873444124
Ni 0.6904609488849818 0.8764931592217727 9.960582632228249 0.6560516814947734 0.3004496023461729 -1.3167858560668806
Ni 9.326718357349936 6.267433890078105 0.8906322976496571 -0.5965134169198243 0.7566779743592839 0.7963570381164607
Ni 5.029321582368323 3.015217454737254 7.432818366048628 0.878875565636667 0.574412728366043 0.06488487359884308
Ni 7.498986996049203 0.9233172757588838 1.7696054509285315 0.7312101691054826 -0.6806198577524407 -0.0008217245703469719
Ni 0.8390086741788629 8.111017433105758 7.84749147318032 0.6446930619488446 0.11466425901481543 0.877202034588986
Ni 0.40219849443664013 7.39934870960907 5.404270932170783 -0.13920955245434735 0.910974760164057 -0.2843390699375554
Ni 8.23567958734554 6.635029096480236 7.906402994912973 -0.7553374011709895 -0.519413489312028 -0.16058750390949117
Ni 1.9498836645195945 7.0156400730466135 2.0396495592674055 -3.906400188783085 -1.4702251789673648 -3.9987521574539455
Ni 1.9490252768098377 5.314698174657667 0.14271348795789324 -0.33196618489721536 -0.33291106530898795 1.6168053128541704
P 6.431367282039257 0.16561937738672802 12.347773781543653 -0.6939659400420436 -1.3204630478081518 -0.010403968942143373
P 6.805950884034951 5.462882018205021 11.64199900931059 0.9455165026946685 -1.1311794615155486 -0.008108230929431196
P 8.06613868436739 8.77433653582028 8.483539971567916 0.5240579300625748 0.8386128614618783 -0.58407596248742
P 2.919087361545692 2.720053376496444 11.179352292534809 -0.0408399168344974 1.0360545580852414 1.2454130607508487
P 4.664600108733638 9.041761628614276 7.182002142408305 -0.8820999861112357 -1.6831454308423013 0.8674801793155319
P 4.4985673990040596 5.154254315342701 7.992352796472844 -0.4438120006266292 -0.3709453943738902 1.5416895055559383
P 3.5227391881309265 6.533599392211046 10.98953664506425 -0.1750021366729244 -0.05756494289866215 -0.2380129331775062
P 1.469317171272522 1.8027821359106295 7.554547073593327 -0.9029248932763869 -1.0786819058374648 0.7940628427656453
Ni 1.2856222013845793 3.53459800094724 9.973104829459386 -1.1985729604688582 -1.0719031923527347 0.26147193553139486
Ni 1.859995542826155 0.7068095026353705 3.2588428152481255 1.7289203230845709 1.2648534288636473 1.8464647318606588
Ni 3.2542411106997338 1.909828681498011 6.5234629529949615 2.0850847024945445 -0.302803190180014 -0.34912315629247614
Ni 7.626672167875518 4.249942863113974 3.4267686430897655 1.187321041704123 -2.301019572826089 -0.35415043430373844
Ni 8.582356258472947 5.164470995149045 10.139774798760447 -0.03061181134858599 1.7480058789611121 -0.28717756782761505
Ni 5.723626615344824 8.169135879237006 0.47894395386960853 -0.5581769832334709 -0.7237339153330955 0.21717234228307114
Ni 5.64579324279275 0.17243049725762388 3.406913762151044 -2.1033058534882616 -1.4586297608202814 -1.6768886512993117
Ni 2.4563697344808437 5.433314293724378 9.417585227638522 1.1532621523472009 1.0187212090131166 -1.1782931271738997
Ni 2.1158230712372426 2.9765900077982 2.676270938148254 0.7543873785528943 1.25025444800355 0.050788029186144786
Ni 6.015823657806257 5.84365160989168 3.6403327061868844 0.43617890956140365 1.498431980418884 -0.010288269299885508
Ni 1.5997827728543534 0.6063697433227582 12.1919325598072 -0.1349034688798257 -0.02515258800622765 0.15606596189005378
Ni 0.3211228422199967 8.7477545077214 2.7147257745152364 -2.820009858557769 -1.5304409292253127 -1.1882157856042503
Ni 3.926638596475052 2.3208377793512085 4.240096596264993 -0.20170407144414293 -0.05506994439095032 -0.9316795968115761
Ni 4.786500493820288 5.071261286230893 5.8454225010581125 0.1645732280301166 -0.8502067369470647 -0.7396107344643521
Ni 3.76837802763925 4.172902566163306 1.239357902919049 0.032107679167822124 0.415745067187084 -0.4152976952370202
Ni 8.09613560270291 8.820185635882721 0.0795128267668146 -0.04111913863781306 -1.533283283770114 0.6315740080683834
Ni 4.022535432136789 7.610204186269859 9.082498656653069 -0.7875810916960436 1.4988790952586315 -1.1440874278264683
Ni 5.470392910665392 2.4272312038550794 0.7916340698713646 -2.0589481533084926 -3.4956386908535215 1.8902668166472738
Ni 6.9813418858611165 6.0831511112150025 0.6655182547057134 -0.39630958417029166 -0.0568792296855472 -0.47763383427208056
Ni 7.565092180001665 0.15943991890659878 4.535227085421507 0.9227799803291011 -0.860100599022009 0.4391415917341534
Ni 6.95855729034779 2.158443887086903 12.654497169932482 1.2816023661872122 -0.12938356750286104 0.06616759696600863
Ni 4.588371547986762 8.473816864694683 11.382073612615532 -0.1865867561867303 0.7985321913909086 -0.48303417935204557
Ni 6.40898388947723 1.0161724332316997 7.417687416603926 2.553250706485506 -0.25805571076099426 2.647532545189227
Ni 5.300189556302539 0.9168775018754696 5.591793191608097 -0.47488583921329824 -0.27529829989152593 -2.0873004791989405
P 6.343559817511858 1.9722857176840067 9.420179984400297 -0.8906039098171887 2.1348453188574394 -0.4441061348282803
P 0.5134819297957665 4.7105798330127815 2.522943299553195 -0.6929238719307744 -0.03933505015419677 -0.5835092913506725
P 8.580704795161784 4.199046070106116 7.328911466812694 0.22516487357024445 0.658478288658395 1.196897115428332
P 7.5431099903909375 7.313640562850098 5.242080440472485 -0.7237197742657084 -0.46702649106987953 0.42724021231087705
P 8.8334253332756 1.8277127006983471 4.11270159680578 1.0146904905871688 -0.24252676188745975 -3.158942961691121
P 3.91838127991924 1.0748040459285624 2.3195128765818014 -0.1825591230845759 0.20123330245531149 -0.5082029653081893
P 6.860925018664155 8.075189076524609 2.305733887779967 1.299263016691769 -0.8362924408588178 0.1227660621863434
P 3.085773192358781 0.5192881762281754 10.449311272958965 0.1692292387448892 -0.022590226595690127 -0.18156102083736475
Ni 7.888209840616726 2.4833249746274437 5.781090074332322 -1.0694169355957712 0.5042349817993768 1.4646561695200195
Ni 2.557902072063157 3.695060520864592 7.730830052213544 -0.4693682518291788 1.8362443396842312 -0.21484600814273966
Ni 5.0519102415565955 6.4496733329799385 12.403912337761746 0.5766102502379941 -0.881882727894107 1.7886635045814743
Ni 4.577091213844415 0.6281895856927268 13.30056827786161 -2.237924958358449 0.22459691688191644 1.6778582143014331
Ni 2.0308706788749045 8.088512746628224 10.636000336499745 -0.4429769063198436 -1.4080649033885362 -1.1046168805356718
Ni 3.355428227137906 8.057032310403015 2.921175482952687 4.432283344979857 2.832149322133781 2.5089583123260337
Ni 6.156897811844538 2.250813868897683 2.8641076287357725 -0.48918528655510585 2.7555067937783773 2.694531539646585
Ni 8.390049420583857 0.33014431044351616 11.544168002211542 0.933195262125154 1.2538655623935762 -0.6253897336345423
Ni 6.4490575331011994 9.259017691893469 9.866548124684638 -0.05537744832904012 -1.038430771626902 0.0006553741958117746
Ni 3.7729965267297887 2.102779310169417 9.21356699569197 -0.17507078512733076 0.04271270837717805 -0.32552891391230393
Ni 2.1016130225202914 0.09101988722815144 6.012242688208381 -1.3575375840629458 0.2807374686292262 0.8828556333303376
Ni 1.9861878664615888 2.6659189689746112 13.329040624982193 0.0073592685785486165 1.3472660269336085 -0.48551195146857673
Ni 1.3178957132111944 2.2617583121970815 5.166850221953261 0.4250308633643841 -0.13806386888567837 0.23763523812311332
Ni 5.250515032750964 3.9249964634650825 13.076094293579505 1.4406083845421964 2.7060246278878495 -2.750305966303728
Ni 5.665965353972035 6.2643362300820264 9.772568665918064 1.1753553847018146 -0.06510213181597174 1.4705445099799965
Ni 3.2996890078108763 6.709951415060091 6.881095263783199 -0.3704620269795684 0.6884532377539304 0.0527927183209994
Ni 8.842466395131625 2.2300539487432403 8.15697383163192 -1.1142955412760165 0.32460794475993127 0.7090362041116047
Ni 9.372194245364659 2.4389034106475327 1.8472120971616144 -0.3974802074396251 -0.10354166673909265 0.8010408167453753
Ni 4.675078036973385 4.137064879280962 10.435996933156543 0.7584180969788422 -0.6157025882537654 -0.8311342936966459
Ni 7.398089118948014 5.068900720029063 5.780994905260153 -1.9431487522479696 1.0429235172909328 -0.10418264275720121
Ni 0.2751468500613302 7.555472639471674 12.046280026973509 -0.7319123373788298 0.09822333984997278 0.7422324883579153
Ni 7.271458271156508 7.596386010203013 11.549221293337675 -0.9082542759091002 -0.9893209014741284 0.08881695893440833
Ni 1.03729623513267 5.786009009121275 6.989072040399523 0.39464016688766873 -0.536764578995966 1.544771486915372
Ni 5.0491484724034645 7.6949233211023715 4.815568114156985 -0.026991183876863195 -0.07988134700767534 1.4650346359053608
P 0.8736828725024387 8.415157261094242 0.3735992552198319 -0.7835120638329925 -0.5789730940432157 0.23829472608398314
P 2.7266312388375145 7.8340940936972805 5.04054780076375 0.9496701198517257 -2.479876564468729 -2.0468392858601003
P 0.6086351404524205 6.637977471657227 9.468876692386845 0.5790049757224157 0.11114519011796344 0.017621312626189007
P 3.7860029665928416 6.415281842782511 1.0568236224995167 0.3340742323791537 0.08850585545189273 -0.5929226142447724
P 2.670117604511465 4.118609543521193 5.020364493223035 -1.09330428373633 -0.3334126875357548 0.77859637169893
P 5.943765741692656 4.51125660862655 1.836478518669178 -0.6219459980603159 0.006674583806698183 1.009002953284088
P 5.778544768166869 3.0352682720010282 5.380782831947504 0.19396967891436273 1.0044029926182314 -0.7915035666789013
P 9.191289035533424 2.515243935008724 11.62326283148491 2.2369199141327023 -1.412125189500839 1.218246784748702
