# total energy = -381161.5046252301 ev
CRYSTAL
PRIMVEC
9.30196118425433 0.00000000000000 0.00000000000000

0.00000000000000 9.30196118425433 0.00000000000000

0.00000000000000 0.00000000000000 13.61436044981039

PRIMCOORD
 96 1
Ni 7.699484361722574 2.5356308802857925 6.110954976315228 0.6567934447568043 -0.9761028601219577 -2.1980229799571886
Ni 1.214975650071091 6.007857620575091 6.6567549858734045 -3.0681886765246835 1.235188040588731 -0.4269005695832712
Ni 6.566431083126244 4.805160559166052 5.548872814034282 1.951736751027297 0.5158278288432987 -0.1455897449490783
Ni 1.9070973682442687 2.827414796309449 3.099976209704221 0.41343827343077827 -0.5667940354785207 1.4980167472583363
Ni 5.251691900175987 4.419622177138746 11.181501416077635 0.10389622186503397 -0.3562299425405865 0.22162446451715379
Ni 4.876246145950443 8.30067010810771 12.559710670253482 1.8066296021415917 1.379997712838675 1.2065433802688446
Ni 6.819956033114283 8.637791782569881 10.02230683618058 0.05065973113839663 2.2266172466551137 -0.9692326153646856
Ni 5.34172558173659 2.9767019701255575 1.837693576028134 0.42387026739737965 0.5093885009758582 -1.3671977328605291
Ni 2.922899427079114 7.956358017709353 0.592877234723815 1.0046066239886053 -0.5253645646891403 1.3218427017644976
Ni 3.5056672904711736 5.114050781666612 1.9894122824777725 0.6076282958860633 -0.0890316460483757 -3.459407476435629
Ni 4.406906396304636 0.9783337594933736 0.3445362676610508 0.9632365456822508 -2.1853744379552427 1.576935730352742
Ni 1.1658798993451007 7.150715166178846 4.648922960010334 1.5909083904827503 -0.8121191860467241 -1.7623708894335326
Ni 4.036130226555116 2.1097405909736544 11.469023173521785 0.6682014294834299 -0.2538025919115951 -2.4583469179270696
Ni 6.0012067183831475 6.927561119207169 6.863393400898511 -1.4473135644765138 -2.909969158626737 -1.2250203560271096
Ni 8.128332674666932 7.7087119071413275 11.512085672273377 1.0630598830294917 0.2544399683852779 1.0410458406522458
Ni 7.1435433541648745 9.35302887409548 13.23823664207177 -0.1783851942125444 0.8663841180378757 -0.5924713856399667
Ni 4.537440816527794 9.340192167766974 10.115401793141697 -0.9418542233517327 0.6914727413065446 2.2852522826895028
Ni 5.290732230944645 5.456511781804553 3.3667499428978345 0.6806561103070148 -0.5080690108334862 1.2743276869026698
Ni 1.8854703086690643 1.1865302530040054 1.4960818449393174 0.21925185051991916 -1.0741847892980598 1.7471548438147264
Ni 4.017889080823084 1.67521808175365 3.219319440518807 -2.3516556498154015 -0.39653738391038157 -0.9804300267424017
Ni 7.916350282985502 5.339427997343009 11.75864159299959 -1.0615390755095913 -1.162797859751778 -1.2204823589474398
Ni 3.0026730455380175 7.531844418641142 6.346293662141767 0.3720715375585334 -0.2442910528767341 0.5752221116412158
Ni 4.2279273626330225 2.929968917520901 9.06610244216222 -0.9633766708045409 -0.4515379085159772 -0.02143965793101469
Ni 2.804959862195668 4.646571424242329 11.558646638597542 1.0447639129337813 -0.9973070050033985 1.5916714939010201
P 6.064729810787047 1.1843721980270387 7.307276473581108 0.225981713044585 1.0128508662752684 0.22789229980373654
Ni 8.987666445710591 0.7496813233109865 11.171739938091306 -0.27330055273520676 0.7255208320301892 1.368153154795263
P 3.917158143988724 3.4502927159975436 4.359059898955399 0.2316193709463366 -0.001812370618390427 0.16486530534923863
Ni 7.1189582709574495 7.999844685887451 1.5544739755962576 0.7143889837830858 1.2021660771367555 -0.22528494408787653
P 9.097010998530603 8.0088210783563 7.404741491870585 0.8595300712305197 -1.1631462442301321 0.6491390135353401
P 0.5949608740119208 2.144771776504931 13.372460220070208 -1.432555946551365 -1.1041720796887693 -0.06115934511813983
P 0.9057542777550993 7.913485278964356 12.13085770632857 1.0760964044984758 0.48667923230380056 -0.5513126520134699
Ni 8.782158218960062 0.80824833083675 1.4302155885324086 -0.7298976209416461 -0.20762686468648114 -0.8679103248744151
Ni 7.657867387727105 5.063317885785682 3.0664844987362545 0.2570388394607057 -1.348150229310775 -1.1464952659370125
Ni 2.119842520736524 9.362609894036325 10.794050550846606 0.043502808378641206 -0.37842010548438054 -0.19781887745712382
Ni 5.827343763320721 2.5605043242875536 12.958556437841342 -0.881269005569508 -0.6608984680641135 0.4454094270207361
Ni 4.089793240184945 5.971524160488748 13.004709048072883 1.2811148850278324 0.5971798468592296 0.6416380771726047
Ni 9.564090371627259 4.789123978216524 9.131246866387178 0.39922932892024793 -0.05787244683675194 -0.00012984070964493767
Ni 2.8809382805226647 5.121538860358243 7.390786689816941 2.3171745853193966 -1.0908594217402632 1.6268225878808564
Ni 1.668409046222876 1.068655801848312 8.885643466478385 0.5393469950111615 0.5133243456951547 -1.1066999883169455
Ni 7.259585318982368 3.27844828649547 8.096936695536511 -0.18789596191645705 1.5952054751962075 -0.7296639076642852
Ni 5.021393947073662 8.97577853941506 6.144610401798688 0.40429620192019405 1.0904261908575865 -3.4874661823450586
Ni 7.493994738894258 9.234242830751242 5.144962128623327 -0.9589145212681291 0.23000137572693938 0.29651144363403126
Ni 5.9107637505338095 1.1005150186418924 3.9800087046045443 1.378008193212472 -2.5789311419707452 0.3713495717908443
Ni 7.029045514891245 8.526791480672715 7.715353507372164 -0.8120340825320854 -0.610375262503581 0.1820212483032349
Ni 2.023288164439484 7.88882578006807 8.411182987242837 0.09122094039021064 -0.12940182233530617 0.40796825145514254
Ni 3.896758943279725 7.193290242168398 4.278748627144475 -0.045934300638269275 0.5353988089966908 -0.6140228865584973
Ni 8.100138430549753 2.953540086967597 1.2220321177673275 -0.057180562976049905 1.2026185912931415 0.04863961538457429
Ni 8.329692226763468 6.74474037559811 5.541153116511072 -0.5583574746753933 -0.6141411573039165 2.562958420691573
Ni 0.499340434610085 7.90953194549362 0.5966082513240794 -1.0343656004185928 0.7155336389104903 0.8525384704040351
Ni 6.712295135254751 4.560156205552588 -0.04309226502713575 -0.8177910396205206 0.6831349108648106 0.6088146028846806
Ni 9.269711208454577 2.6014236511999513 9.497962730113226 0.024989580065802125 -0.5724856865466592 0.9282713424609755
Ni 9.000772908911221 4.326035146435035 4.98850593338158 0.6054994224685185 1.4340875527045431 -0.382272132240619
Ni 0.2737650871620968 8.89841412888303 5.594290569338321 1.1020450060434377 -0.30367119460726416 0.8919789357878445
Ni 8.811431490565726 5.6910793350552735 0.3654052174059843 -0.5645772303328599 -0.2014608450850853 0.7134597871005971
Ni 2.3154813667518757 5.786684891319337 9.736159908588135 1.7177002859990351 0.7931688701964662 -2.676294190702952
Ni 6.58617914655771 2.153813282701533 9.734676245791471 -0.9565488492494301 -1.6828865207539596 2.5486376331935263
P 6.050348978914674 0.9095922669081011 11.487252226704378 0.02025797891808769 -0.1746558090770992 0.33849421582372025
Ni 1.917803925479133 0.3281462121894337 13.049214280992265 -1.301032964107998 -1.458816680020107 -1.1028186509846682
P 4.406906396304636 6.553519961108876 9.154296195815737 -0.46930731668425624 0.2856565031973984 0.014502564491549217
Ni 7.882109764148373 2.8745013234361947 12.163436894911879 1.1954084466979478 -0.6017515253903121 -0.5874009130955948
P 2.427365354954265 8.512354837033698 3.0349136427370103 -0.1617272739408892 -0.5568436091340281 -1.2105005651443799
P 6.881023407785774 4.561839860513067 9.778119194752364 0.3553801929457815 0.4110800576112469 0.17424057591655154
P 6.8751631722879765 6.996600274547887 13.202865934960064 -0.0629550035659819 -0.30184416870085434 -0.28595140872999786
Ni 2.857618264025874 2.23957736411374 13.227263118553118 -0.8856599355483521 4.577991617784671 0.46292095354193824
Ni 0.3159764564723414 9.038269114136016 3.2189380601133943 0.40972714312777825 -0.02285067934592839 0.00791256997885734
Ni 8.578268533442255 4.796453923569324 7.048916364209332 -0.544762509599778 0.0676863476033802 0.8901213137538154
Ni 0.04542984785347932 8.689706027511479 9.441736096002138 -0.23381175061196507 -1.361043026113043 -0.12212482905791869
Ni 1.8916747167278434 3.5706042809634315 5.556061369578247 1.5058709531954324 1.1840241161204061 -0.8408684902652743
Ni 5.163630234370199 4.731507631115959 7.811470671497147 1.0019478462095197 0.8106734547391329 0.7471582077943068
Ni 0.5943013649693909 6.109518753520212 11.039026998576745 0.2882908554964519 0.7344309900356255 0.9087201598019253
Ni 7.958999774663916 7.175783951363867 3.438225281852635 0.4184280133358858 1.3410848378235614 -0.47313157552635293
Ni 6.400177132249849 3.1342957952107655 3.821523751645227 0.6878940228163507 1.9118674256361847 0.5867329404942927
Ni 4.420552373249508 5.336767636466231 5.589443317405143 -1.411021672024015 -0.5184902061668102 0.6737778951299429
Ni 8.202720457644528 0.94539551521131 8.038394803305739 2.032143374410823 2.8286726764390897 0.07950288062233404
Ni 2.881087111900386 0.18704569434413743 4.897820184347333 -0.2276490734446789 0.23971191814648393 -0.010139402426847055
Ni 3.2914989379294535 7.440154988003384 11.414701581045538 -1.9054882615827182 -1.2558283425469017 -1.8043089244282153
Ni 0.6991967897916294 3.9982154330804787 12.302140297379742 -0.564815314485595 0.24905247882111944 -0.7511770991457128
Ni 1.7685167516630251 5.940836990794728 13.392977555685272 -0.040958444690232694 0.5699719189858701 -0.31487400530161896
Ni 0.9632552805379302 1.5987838673323802 5.644609527949962 -0.09248849424872457 0.8020088370855994 0.18633401674597588
Ni 4.4361796679103005 8.582175357107452 8.14006709860419 -0.8569062604544274 -1.6587088950664917 0.534157480390422
Ni 7.883253905364609 6.363806464319074 8.744095524303813 -0.537116820129062 0.7704572875315635 0.6225332380223536
Ni 4.6343114395024925 8.568910760567993 2.541324610679763 0.43477123058059963 0.36653672378323326 -0.7819873996583501
Ni 6.013922499217256 6.806617020885963 11.026965145608502 -1.3701285333540791 -1.6503350691804999 -0.5904774951383895
Ni 1.5167219664410034 3.12983085387911 7.6264518744783585 -0.33641342203529156 -0.19371205437760186 1.8070219524840039
Ni 5.695218707748162 6.275819214202147 1.2963622285860548 -0.8298178888780677 -0.29570103191759395 -0.41836553552906663
Ni 2.594084403886043 5.075717399942132 3.891651236435534 -1.13637283279103 1.0336647176968263 1.990337237008314
Ni 8.765926296827274 2.526682393700267 3.7918439843391605 -0.08675904796411511 -2.3355798272994615 -1.2110939757540047
Ni 1.4673099490373542 3.7488670636297594 0.9231377826730096 -0.19751728705630497 1.0719289033843475 0.9231234797114488
P 0.4463006523744661 4.29942223570615 2.874958049726579 -0.46288547231831245 1.262687274450264 -0.8242162264205741
Ni 1.3740484869724094 6.335007592729899 2.26420430614615 -0.5278107122367878 0.29371408339455224 -0.20036864046217107
P 2.153655149362703 3.4932677763147235 9.9516891380399 -0.50047448631568 -1.062238672679777 -1.4399324415210941
Ni 3.4544041828071093 1.5396885084157041 6.922874791201153 -0.3101765998259497 -0.06614265726534414 0.39693307668690353
P 6.168539696748026 0.7716767405460522 1.6633618021258842 0.5040475483789191 0.39226703866980184 0.4115192020311945
P 4.30878000858041 4.072119514080477 0.19477283343623294 0.05754488829400412 -1.2109273682691533 -0.30742706210527054
P 6.190269077895414 7.528849187164489 4.676750706859874 -0.7216952876365119 -0.489299443535467 0.03168498980810672
Ni 5.317521878934576 2.8758408058356917 6.022992841493291 -0.7032159978854018 -0.2711868488263136 0.4861734963119756
