# total energy = -340896.91149110295 ev
CRYSTAL
PRIMVEC
9.01001177918534 0.00000000000000 0.00000000000000
0.00000000000000 9.01001177918534 0.00000000000000
0.00000000000000 0.00000000000000 13.18706298478855
PRIMCOORD
 96 1
Ni 6.168623574383083 2.0280095241395735 11.342021954551774 0.33905805874699024 0.024232133074487298 0.21793750258386985
Ni 4.595457472244246 0.43974894902268896 6.0343212376293724 -0.35637932363425723 -0.6726098429637707 -0.18185541214933196
Ni 2.819178671278846 1.561444076624337 4.805088914698589 -0.7887206046171256 0.3138748746131433 0.5454826755952541
Ni 3.356878162942409 4.042936510963964 4.703258660922786 0.08904013068880794 1.1966196933972295 0.17507387045112427
Ni 5.02218064702688 4.47165990839396 2.579481720031779 0.2065904530021668 0.6260602773390056 -0.14853648628222804
Ni 7.31664325382617 6.11468964299969 2.6806533419358614 0.08486105961045384 -0.9280258021090727 -1.3479468550507174
Ni 5.3387023659541395 4.554074487472458 11.477993846515197 -0.6000623106133472 0.3605504242928113 -0.08640320728659312
Ni 5.706689272997325 7.555705900233712 12.31282641244449 0.05680749590734733 1.1374892057836603 -0.4592267925198027
Ni 1.9557942785602402 6.410163974070016 0.4588672933264678 0.22753877311905973 0.14399746076129394 -0.8168402456714771
Ni 2.7010484049294208 1.5091139273636047 0.4736329008692515 0.621388068674317 -0.2271309961576798 -1.7009294942985997
Ni 0.5512631636155443 0.17983443201698654 4.917482506455331 0.058980335188950045 -0.40276510998764825 -0.0601761552692641
Ni 8.551285187916758 2.225797305918429 1.4453023199067718 0.4771725783649459 1.0762416718270886 -0.23796999575471275
Ni 6.8246065025987965 0.8283462583444432 4.787615798572326 -0.22540758570866987 -0.7195417316286188 -0.3176456545094852
Ni 0.6871467574621019 7.257537575597794 2.307801929454337 -0.13911802118180558 -0.1338889115723823 1.0505270406698035
Ni 7.702172654087442 3.9017496240983176 3.873884360217693 0.2598868504324621 -0.6793623311962558 -0.9748551037577856
Ni 7.5543543984449535 3.8805580760505833 12.653831036775706 1.0176434025679055 -0.3790119734321085 -0.032680006731524366
Ni 7.659942728194699 8.85026441362593 6.809324621372707 0.879117506444144 0.6952630615869123 1.1082171962924205
Ni 6.823173910702712 0.6823191930726563 0.2739827496254867 -0.4588568107748936 -0.3674044711001673 0.36001743460747676
Ni 1.7572766858154547 6.625368108900007 9.1879803836045 0.6361109767067884 -0.3139190975875174 -0.3162186922549715
Ni 0.3175407512759832 4.72456193311839 1.4277634306934557 -1.299461762966136 0.08606459300025178 -0.09017604406546405
Ni 6.003397975701383 2.2131922992352737 6.837835002107165 0.8123382440360655 -0.4548698011026876 0.9977026977799204
Ni 3.577091864402732 4.2816477669064295 0.3709602109784548 -0.49867291433056693 0.4188563591225561 0.19508913723078658
Ni 5.921776277672291 5.487520732920309 4.5639503615435135 -0.26811412343826085 1.1636080143578993 1.224851434549413
Ni 5.408872338826485 2.9656814651802756 9.122928998506781 0.10739909281196988 -0.2011173457027375 0.2847352769347096
P 0.37439032251832405 5.470086359845323 12.415488290320976 -0.4201570802118506 -0.10215892745895308 -0.31389415788685293
P 4.045468324314904 6.08643424560271 12.475317472506934 -0.422087464465344 -0.013512946884770278 0.3835684824545394
P 2.2981747317124133 8.471906982857003 1.4778347699645762 0.9249577047067103 -0.7514516929633381 -1.1602038737723568
P 6.18731033911565 7.781298578813294 5.744601601175581 0.2596513373828883 -0.7274003084410892 -1.3658826135935314
P 4.623505639366949 0.9528087610747983 12.531165130423208 0.5899501618800097 0.9095711949483111 0.4566289498856394
P 3.9950663176061347 6.1888330311309865 8.148299790551878 -0.8645468077188208 -0.0902691179999026 -0.21937654902324155
P 4.664474163590184 0.9719099863559194 3.8036107722082098 0.844708432836655 0.14011895164249416 -0.41703961762879144
P 0.39501333881358747 5.503927964635838 3.6172377745372093 -0.42752174810703786 -0.11291359487229584 -0.1310298448570324
Ni 1.650345864288876 1.1913848668383877 2.521393272149743 -1.250724188551117 0.2709621344100172 1.1825189923297892
Ni 1.8797677979366074 6.625097808542255 4.878541234915233 -0.13002222952812448 -0.6059365100059371 -0.7345852562253026
Ni 5.86579707358191 5.599650331327646 9.16582656628317 0.6348264535674099 0.41552060988110373 0.034394418319469794
Ni 8.473519774991589 2.3009498153853314 10.272234406651574 0.8432475320204122 0.14008372752918455 -0.12254571864542121
Ni 2.4305408169034286 5.213282999957342 6.885203337800768 -0.8592397936836105 0.0887976756606987 0.5442865984046239
Ni 0.5684191273220458 9.021995240917521 9.12586986639912 0.20973542638905168 -0.1964464225896294 0.6930835374370903
Ni 1.4675597523652408 1.009815106524635 11.4367442099199 -0.5515041991989856 0.7706457493932857 0.5218087290170821
Ni 4.17933007148548 6.64719936779442 1.5316777002275253 0.031492928401958664 1.4581016562309532 -0.4763454544779603
Ni 5.4908634473445055 7.8766965850758 7.8396564260518895 0.5022624314540381 -0.23846493311326028 1.044537655855588
Ni 5.4373439765096645 2.93960649066916 4.644747643481464 -0.3442591433319555 -0.1122042275100971 -0.5405309880169336
Ni 0.5859481055222444 7.510277420107574 6.884754639206901 0.5799861086887624 -0.5350280559208334 0.4508439677727461
Ni 4.991916016970613 4.578374489634338 6.977459552905007 0.5358490091602319 0.48316402006169046 -0.44755578393977763
Ni 8.261505184383067 7.0828334443709355 9.146902838236972 -0.01955683908600503 -0.13916198704586358 -0.623021747622998
Ni 4.611621433637799 0.08787194330150529 10.545773863690346 0.5749680866488808 0.7302079530932134 -1.2196539495088736
Ni 8.234168808202444 7.12227026656691 4.622237029687901 -0.5155218675671057 0.4484654402382406 1.1315350450827546
Ni 7.163950581732226 6.137683193432436 6.920280215226208 0.14831331452782845 0.029869276755606623 -0.3998515358852791
Ni 2.4240806383531623 5.1139656385074375 2.6334832265046093 -0.29448875677704767 0.3305500212759791 0.06594442521160901
Ni 2.345522344378589 5.21919356778018 11.322307147458556 -0.9103281277189935 -0.21646991689940787 0.17320544978381783
Ni 1.1069069950290515 3.2273592415197117 3.690953187102065 -0.46312741312578953 0.5121066712379697 0.26252325961404466
Ni 3.7648064528493737 2.5980909986617924 2.5408837299460267 -0.3471328653353248 -0.5252596636801599 0.4960799567924101
Ni 0.9829652709879647 3.294988391029191 8.253057397202134 0.08653227666528969 0.1727321096918251 -0.6395256588152922
Ni 3.437103309123118 2.9242534303488625 7.315892719832813 -0.21312079792151684 -1.477287485130785 -0.8825278176772736
Ni 4.075048193464868 6.907696832571674 5.875363904243936 0.5700084286507602 0.012874799080139119 0.00801849942910232
Ni 0.5865040232580205 7.415311894417471 11.322148571248675 0.8128367809390388 -0.12064438785765028 0.2483672798286368
P 0.23777601670464435 5.530507499814757 7.8975079106202974 0.3428851458025643 0.4109242487596729 0.029236785377930292
P 8.38822199209707 1.5542721071319912 8.17207541001972 0.9530740033269521 0.8202202178873035 -1.7902830424627683
P 1.8008040534254062 3.267480824621991 10.308155522194392 0.1364103924426554 -0.30259904458900794 0.7777185970796671
P 3.9808214887526194 6.221025803739215 3.6269037153304104 -0.41652719676874717 -0.47966063489412236 1.7427783120135856
P 7.006185272924474 3.933482886098369 10.372021189722775 -0.40275739667816446 0.44108637416534996 -0.7633610428064144
P 6.445131830351163 7.666691227126567 10.031477878002121 -1.29788156296321 0.2543006145939362 0.5580245168160067
P 2.377805217106069 8.51223579623356 5.978908763289078 0.10427905912574945 0.21339744862167118 -0.6943603472669848
P 6.847050442304114 3.872052624793329 1.6538030058645206 1.0715437521307867 0.1277516883263929 -0.0007224799883213363
Ni 5.305662652224955 2.7714526381118176 0.4898347043128894 0.24710872483118732 -0.41306983434776606 -0.12882872344065555
Ni 1.5088976870774033 1.1543447078144777 7.216910530826519 -0.345997723289617 0.3817103461998781 -1.21847535581974
Ni 6.703484912290253 0.7637669978715957 9.107289419807266 -1.125295749041262 -0.5617860407409679 0.2503277459891173
Ni 2.82773818260765 1.5529206053432327 9.388833371440262 -0.14693057524768888 0.19555604956487613 0.12280514295439496
Ni 6.444708359790685 1.8106069463998684 2.585995958653595 -0.40520611532897316 0.5520860398443846 -0.08778029013977785
Ni 3.9821099204579027 6.791855109251213 10.362749887451892 0.36109138439794586 -0.07318593726537075 -0.33067626244119824
Ni 8.140131313740621 7.018817309643404 0.2761262314624578 0.26153544177947863 -0.05840672207366715 0.010102635651640665
Ni 7.548705120967943 3.9910118122398592 8.066012252641524 0.2151522265292488 -0.8868015053519631 0.04350975035717668
Ni 3.2721570208110964 8.221491721423888 12.517028421712794 -0.7122853071765217 0.10483133208479366 0.19617902786085567
Ni -0.011191335812113542 4.72755325707751 10.001253792999517 0.9193876668181005 0.5405582417104432 0.8406977690153651
Ni 8.49205336952143 2.355919898140105 5.977036482811052 0.45479960998638447 -0.02252363502381282 0.14835548061967355
Ni 3.7576615133928026 2.906071226284097 11.530134785525503 -1.1492769424472076 -1.3460342114090367 -0.22918736446607627
Ni 1.1753830856594862 3.2177545688076004 12.589082388078667 -0.4268265218122262 0.7818516454114341 -0.4826495423191172
Ni 3.1757949432726096 8.493359821250564 8.054539804457349 -0.9114419296084626 -1.178407541264577 0.4429326833454695
Ni 5.547509392317339 7.792308813385715 3.396947487975523 -0.27046796838241804 0.4306626077288647 1.062530492888583
Ni 2.927091584105256 8.425928892003435 3.6057256823005637 1.056412552916303 -0.5343999354185313 0.11050035744511293
Ni 3.5022276753174313 4.246049209790528 9.261643538100191 -0.4116084193108911 1.2260081738616755 0.46044318142540697
Ni 7.408212005020525 6.115915004621498 11.302381506086293 -0.007778358393838216 -0.8100139667782631 0.0006738861385730331
Ni 0.3631043815809974 9.025959646164546 0.5422135076380169 0.39903598196251927 0.40803947101271015 -0.6914521724812543
Ni 4.575752576164146 0.3537573952099431 1.5914807533789 -0.0463392493861718 -0.8790000070296733 -0.2888127894381929
Ni 6.004253926834265 5.548797824022622 0.4009266096400025 0.47630688793054093 -0.2865345349269775 0.5971389663189652
Ni 7.8137706617912 9.044880671207165 11.209281052864677 0.2320934823692777 -0.6722642866988938 0.18757868778635436
Ni 0.1093761387630393 4.881182970411659 5.77437788858551 -0.1520290728165188 -0.4377637375500203 0.11298969952586993
Ni 7.740131834327708 8.6131118897465 2.6784503940201847 0.8656953195009672 0.8208115716143992 -0.11925342104739464
P 8.612219898565918 1.5218180441779352 3.5439440305304464 -0.7753287566912519 0.44073181903940867 0.34233390128478464
P 1.9564520094307691 3.2872578007974917 1.494489777008044 -0.3520583276614001 -0.8401254414516627 0.388204438564654
P 4.584924768303854 1.0866975382811481 8.208023555598313 1.2720242355804738 0.7529707007110258 -0.028015254266003365
P 8.497189076318714 1.750699377110163 12.418494931300367 -0.20374398469230717 -0.9328630755967159 0.5996596758582898
P 6.371141612422593 7.695279994964773 1.293292606716747 -0.9717669517507651 -0.20754304672342322 0.10789788682525935
P 1.7200022664814933 3.237162134494174 5.908015286459151 0.1012101903924386 -0.5290191307225921 0.5521575165122684
P 6.884802392270104 4.004508810103594 5.918420048230207 0.14440060973698357 0.6550916315743492 0.17143755925011767
P 2.43148686815556 8.495873614577656 10.335044100782339 -0.4380247045208908 -0.8189590917866928 -0.3943048950354371
