# total energy = -340888.15699121536 ev
CRYSTAL
PRIMVEC
9.10106775980027 0.00000000000000 0.00000000000000
0.00000000000000 9.10106775980027 0.00000000000000
0.00000000000000 0.00000000000000 13.32033261649745
PRIMCOORD
 96 1
Ni 6.487969339070067 2.4504443505301556 11.846451547026403 0.13671918193232582 -0.630515742007198 0.17969619971448408
Ni 4.297151154704837 0.6983786421360492 5.976140747888628 1.5232570098823637 0.7617420191457526 -0.22803653869108473
Ni 2.907390771493053 2.2477362634901104 5.005741195110492 -0.2615434121992786 0.7838676474001984 -0.18127254306266846
Ni 3.6064620049021117 4.663969699496694 5.379123430126984 -1.5271198352718798 1.2839623817789565 -2.080936998874758
Ni 3.9351561759405116 3.065166885933237 2.570944310752291 -0.2910177675093117 -0.33019675170161844 1.3743721391217814
Ni 5.401529349378269 4.9908891622796805 2.7986948964364067 0.181169698936217 -0.21733432178223216 -0.048753001033987005
Ni 5.387249773723179 3.5307502204058094 0.6515864112417966 2.275422955303907 -0.08418640214093244 -0.15750937920479974
Ni 5.9535364253554555 8.277785367323798 12.640556132245823 -0.8582722875640185 0.041816164704837656 -0.46509199305132803
Ni 2.6240381211134554 5.317726715450879 11.752928972500136 -0.3939850498021731 0.3805332951726414 0.6213399890452008
Ni 0.8437554615650831 7.483598872492591 11.382757594265746 -0.19760316190189195 0.6918303817562794 0.3137967130770402
Ni 0.39830277934967745 9.48822740819508 4.554980770051205 0.9371771295910376 0.3448972911365866 1.2948193790981184
Ni 8.955605607007787 2.6905123216136344 1.4151259697690195 -1.0073744165417295 -0.4918129539859401 0.6259065253699608
Ni 1.8704423894573297 1.546999534641356 2.9818102043366954 -0.7511411037014547 0.5367383537437208 -0.5671521901488876
Ni 2.0540109305428467 6.925057229708294 0.5350963815700969 -0.007815125169044606 0.28661552467655804 0.3781475685492842
Ni 7.743024815162033 3.9962334431306408 3.8501094260207385 -0.408085236648981 1.3893963804447553 0.20337426005771428
Ni 7.856651648848334 4.128544769372646 12.777995910292573 0.18601905660871834 0.9236796093252351 -0.13656311597043577
Ni 8.384477187212024 0.11823743472318299 6.762027068725289 -0.9507785224245562 0.42443745275475936 0.1535881897735226
Ni 7.246452344229561 0.9749337048440169 0.7243012140534452 -0.7357664210175974 0.018446379630645653 -1.593186644993966
Ni 2.037355976145896 6.691068772033101 9.575108023312112 -0.10476191229943894 1.43206615139914 -0.5257245191317204
Ni 0.2629080112772423 5.256212596997879 1.5723987951501048 0.22105985026293543 -0.5048515323374532 0.058010515076512996
Ni 6.742071156973272 2.089978351185879 7.269784752200851 -0.6916501474246733 -0.21819692689284356 -0.26226589218759994
Ni 3.5127210047444106 4.615015054851231 0.8104582942663487 -1.9867271510595523 1.3312233716484494 -0.11363453219872043
Ni 6.491118308589928 5.917987653839341 4.931253504257025 -1.2014299703016795 -0.4801314038829537 0.4709991025643824
Ni 5.206047510311546 3.3077922571181055 9.608874805718433 -0.01779511919989193 -0.11321518527311471 -0.05649304999072206
P 0.27927992246012456 6.048560676097839 12.897052441133637 0.5560964465553584 -1.94128187424256 -1.6265333387752117
P 4.1715746187654235 6.397959776782722 13.019133256863284 -0.745551011208187 0.6391438499958412 -1.0215949310164858
P 2.2567736239907505 8.839266655064495 1.8992800334475908 0.09247075363691172 -0.5548718301196379 -2.0580940328383135
P 6.538789702650708 8.379881147883903 5.916212945583928 0.3864326913762119 -0.4108167766475312 2.6878623551565255
P 4.9736335373962826 1.560387205634752 13.331521954515031 -0.06993863397266664 -1.114586333043558 -1.639464959235215
P 3.9633512845316337 6.648621390990818 8.312687052906785 0.4772355703923974 1.1340390424515308 1.018977805108613
P 4.824130293746715 1.5145815305091495 3.911861992454722 -0.17340779560261105 -0.7033787487155112 0.14325826860242424
P 0.20431078511070283 5.800338148107438 3.8283433118481986 0.4039892122027365 -1.4684686012875743 0.6058578342492017
Ni 0.619891031906922 7.6825300163223975 3.017241572075913 2.923598062264081 -0.15236074512432468 -1.4580672034485922
Ni 1.767882454430424 6.59507980808521 5.193251408736621 1.5202105097465561 0.18524489744685516 -1.20828967353599
Ni 6.011036972830829 5.818085230661566 9.36776385224485 -0.5930120886347852 0.6785573187964572 0.10982955663033343
Ni -0.1837305400954981 2.1858945065899573 10.340294875143076 0.5670280058661977 1.0833700553417536 0.011648125761889616
Ni 2.3512154063826403 5.546345543019951 7.42436730188809 -1.1558785069241255 0.038011189136450664 -1.207731487039675
Ni 1.176904605377968 -0.006134119816144689 8.793603866706125 -0.9659637148054268 -0.13624507050938472 1.698454550395546
Ni 1.8794615478220171 1.610424877369416 11.735759807762516 -0.07809314475900098 0.8816659838976105 0.09422218911037966
Ni 4.2088798964009975 7.0652227776139975 1.8881967528658388 0.07046648145167864 0.7892713349142729 -0.5204478441138134
Ni 5.705514120860537 8.203620764383498 8.129651834404688 0.19564603817552115 0.34722336816660204 -0.602175243191292
Ni 6.927514518061942 1.3074776276364664 4.7813598247912665 -0.4808351148181978 -0.5560367969620166 1.0041649084654964
Ni 0.7129703844227329 7.494747680763773 7.070072736738662 -0.20323722025921773 -0.9894306875791155 1.2178300089262575
Ni 4.975890602254449 5.288730712877828 7.070658845516347 1.2212475192482388 -0.7749939990596524 0.25608341752597186
Ni 8.232452947732972 7.730274218926991 9.179174251956711 0.06779767637026389 -0.1229118437355883 0.08912189176933683
Ni 4.794187780104109 0.8429345452336049 11.096290558424599 -0.6000566541863924 -0.4045944498869032 -0.05605724800488411
Ni 8.342503061704518 7.396974907492494 4.918412807449016 -0.3828444598043213 0.7022523484205518 1.0910221725703726
Ni 7.219913630010157 6.2848699061070326 7.371138795720873 0.8229471299001634 1.0785458944802329 -1.0989373136523912
Ni 2.4945936312840398 5.465400644437176 2.956607526896238 -0.12290747286021414 0.5243345807627292 0.34180065448913394
Ni 3.2379324593306773 4.7137343391920625 9.45686330773455 1.7414927604329427 -0.49920667534685 -0.12392048750576078
Ni 0.997103906434712 3.692585411163502 4.005250781281733 0.5256381300655013 0.2312434756641566 0.20266823512962515
Ni 0.8464639393948822 0.40371609458208524 0.20292469245788558 0.6846125238516015 -0.4649971193446765 0.8548043836200763
Ni 1.0746177023903565 3.565033943473194 8.347226515984309 -0.6051908900891642 0.007172349378723132 0.8500118473274393
Ni 5.426803015148942 3.385824813948409 4.769025147362749 0.7786531930787944 0.2331116392211469 0.6716251104529981
Ni 4.277702172439108 7.43734724503614 6.054651110787696 0.0015004958049264479 -0.8254341579880752 -0.5524058850776487
Ni 8.45274429810357 7.780630428040831 0.19371805209288268 -1.3186825588689612 0.3556319039452714 1.489876377539389
P 0.2995024955038538 5.811022801911821 8.647160402110247 -0.9677925404840493 0.4144561731723314 -0.8909427812138463
P 8.730490690609656 1.6621917520196103 8.225971167120125 -0.6815045743502393 0.2578464229636656 0.37856074482730284
P 1.8952701028971555 3.5195195025228383 10.506266501296077 0.860472380539131 -1.618447990663916 1.4011506927672062
P 4.298452607425473 6.464707009322194 4.021967622940924 -0.059825971018696966 -0.5093447922221163 0.6245852354553759
P 7.103947821853902 4.148448805037199 10.521251409719346 0.23982504668558052 -0.09129036017556537 -0.08752472248554603
P 6.272037400260203 7.996880904229872 10.209795571535189 0.3436338510431308 0.8071628704827132 1.4703542483460612
P 2.1103465413172318 8.68053492848678 5.849611330132078 0.7428084154660433 0.767668926153149 0.0721523537945338
P 7.188806179666562 4.460242292843283 1.5083145351005482 0.4394287839572691 -1.0593981179071883 1.7291152127041962
Ni 2.9007469918702253 1.95308008668373 0.7129066769468976 -0.6025781350566654 -0.3894521949288261 0.098571724328327
Ni 1.4826822872516017 1.4717428035438778 7.040342277979907 0.9357797350228786 0.19792814934147848 -1.0323611683940543
Ni 6.732842674045125 1.350798711204491 9.759048798077865 -0.26012544880582944 -1.0343967107668441 -1.8245203663790837
Ni 2.8991452039063654 1.7371572489418414 9.528966518778176 0.20139219663067898 0.36230623064165346 -0.6747621134200831
Ni 6.5804634929149906 2.371856628553287 2.6130094469395617 -0.6808795391717305 0.2520485853349659 -0.6737221021913429
Ni 4.129900828501141 7.221415306226275 10.748602458519294 0.4866596919197747 0.3638617480542314 0.1568285510876912
Ni 7.613898862711793 6.59417880235554 11.532584835935278 -0.10261838359387489 -0.42150999469531925 -0.5848830317697477
Ni 7.709714906368132 4.171128666434576 8.35545843196903 0.9050095437195574 -0.5435042117126446 1.4479110888511966
Ni 3.3137625577106737 8.829064357862867 12.772174867214817 0.1941655969752527 -0.41916000640590395 0.41616801365711553
Ni 0.2562269172757114 4.801850879340302 10.770341269487904 -1.0387105076508498 1.0427147437142363 -0.4024663478003068
Ni 8.757384346480142 2.6947989246305544 5.819653344673913 -0.8239274915355617 -0.3335962643014706 0.3676901206613861
Ni 3.9797514090252433 3.1436089908224822 12.13255909068248 -0.7193856656667287 0.15087439038678532 -1.552211488133185
Ni 1.0718782809294372 3.5837548403008044 12.973378547718351 1.5700181772973025 0.8448642416882287 -0.6431987367915052
Ni 3.3177579265523462 8.839794517007132 7.8440776133320345 -0.32738499328443615 -0.2959314027608452 1.2098457051692002
Ni 5.944453559514932 8.216325855278656 4.020648878191133 -1.3928239180690658 -0.2796599192943312 -2.6060776204785503
Ni 3.250573842750002 8.600918785828572 3.7359137755859084 0.3251409344452658 -0.08856756192776359 1.4675766856009242
Ni 3.510327423866598 3.381101359668618 7.27511251739428 -0.009227175025222818 -1.44076753582788 0.9584036430699817
Ni 5.651735910187542 5.201069226128412 11.673966286522639 -1.7761895404841797 -0.7383946026690639 0.042105156700166194
Ni 8.032893830212787 -0.06454204376877343 2.6886557037464334 -1.630928896739746 0.7257113507744405 -0.047657968197595345
Ni 4.971494786421811 0.5483102221651421 1.913332992510067 -0.4796156405887998 -0.7142097778927441 0.19445484608089736
Ni 6.222645904351868 6.009990350013535 0.452648896664405 -0.09412448719025081 1.0308814985247343 0.42150202427551925
Ni 7.9406181019992985 0.10626315958653378 11.496725718001164 0.27197797726904127 -0.4398908111953521 -0.32701938241490125
Ni 0.026829948394650655 5.237801136481469 6.11183494109749 -0.8667258176480105 -0.619276935868585 0.049181603930973365
Ni 7.619368604565656 6.478959281773356 2.6226401970722684 -1.6337259998689089 -0.05063119189330635 -0.07824741094867814
P 8.562202842656644 1.967332359134891 3.457132591650894 0.5726736341877492 0.0018180270453452563 0.4925148651489711
P 1.7358739983571585 3.641228084572249 1.9620582902425234 2.384671956840422 -0.7779870202497052 -1.241590858791281
P 4.601436261430328 1.698732539945161 8.156412614682718 0.9815993644601546 -1.0059024599818933 -0.12925886899953867
P 8.709885872710917 1.854115073507532 12.534673397300706 -0.39379787349203144 0.8582293501412253 0.4918288948255401
P 6.438796268793169 7.977386416624261 1.4109167258298994 0.6748487595966184 0.5325947638889924 1.162227846180921
P 1.5433227031788601 3.6880985846510996 6.185630040677946 2.258237444663556 -0.47799738825908644 -0.40432242717243916
P 6.9681689887128595 4.192106628120353 6.3505750663632 -0.4726399806019151 0.1971655601438411 -1.3908953335877852
P 2.3750966087529126 8.937630997754246 10.687395956163899 1.016766913500223 -0.8088310022137554 -0.5838957281558138
