# total energy = -340897.2128130968 ev
CRYSTAL
PRIMVEC
9.02732055460725 0.00000000000000 0.00000000000000

0.00000000000000 9.02732055460725 0.00000000000000

0.00000000000000 0.00000000000000 13.21239612721908

PRIMCOORD
 96 1
Ni 6.360370003468432 2.1151011353219538 11.439252316683152 1.3475550189289374 -0.32465833838189245 -0.16775779640568528
Ni 4.700534683155256 0.42087443304020794 6.120774091164518 -1.101485791105858 -0.05332467956506945 0.02386575087400406
Ni 2.827465031141527 1.5684246754293936 4.699464042973228 -0.15570677877842215 0.23248197605694804 0.3374925140320833
Ni 3.278713688637637 4.188559242315951 4.8529654992904625 0.2793724699608995 0.21756983483180595 -0.6148932049785926
Ni 5.122534823031037 4.450062655410302 2.850667049656271 -0.19686396974302225 0.12823994081672108 -0.08068353119399653
Ni 7.1521111262742885 6.095400099396857 2.7017893867727194 0.27178977251763514 -0.5770722774760771 -0.3452320487681861
Ni 5.201415547403394 4.407065529044368 11.470130265609182 0.25010457423471766 0.8000162321356028 0.035356268012106846
Ni 5.497999127001634 7.824204146444389 12.109266344998947 0.1034413937158025 0.17817693485648023 1.1501320913586515
Ni 1.9857847726950355 6.190105716173052 0.4364591987253118 -0.22919816309935365 1.5298230931356556 -0.39089535513325585
Ni 2.6841834040829267 1.4210446449758458 0.35026815041192316 0.17402408903037123 0.6859225009122767 0.6164052707477449
Ni 0.6037309293567592 -0.37120972793526874 4.595628194492958 -0.15614720874995044 1.2301335088839587 0.11328486216878554
Ni 8.50260726347147 2.35388278333903 1.4360155528837328 1.6361456650539952 0.15316344353127817 -0.6518463851641741
Ni 6.6732388688034225 0.8292243619611429 4.736590702978515 1.4275271258782058 -0.2634879375201591 0.2430738926401814
Ni 0.8453218794366277 7.3702021562710565 2.4985961433897863 0.4572652979180577 -0.6961272093594205 0.09834855257392738
Ni 7.580096379477932 3.7386917648185793 3.7945997646106235 -0.4842045455110629 0.3816404121938911 0.03195212742656432
Ni 7.615411256308404 4.04156738663329 12.648160352101232 -0.22971726882761728 -0.8060040742879215 -0.31032032449266556
Ni 8.043522891995593 8.915399536688998 6.729099926530151 0.2211421255640966 -0.15149788290339716 0.27997436521095653
Ni 6.963521378864937 0.3728942258945136 0.11331092381801607 -0.7323003168458678 0.47669023941188865 0.7066201384709444
Ni 1.7317650080905775 6.4963936650434695 9.214760822729144 1.0165455415180364 0.7047743435114572 -0.3854248189369878
Ni 0.08717773441706206 4.800927511690961 1.4608289480636707 -0.5175898058397279 -0.1882263486726823 0.5936677199409129
Ni 6.48965928413459 1.965364974282324 6.958479620503532 -0.4691617922453275 0.07693794810863525 0.15426721811841818
Ni 3.4151074703430546 4.26028130172753 0.40945487291992516 0.848743265027661 -0.8185281748968612 0.3863301043600766
Ni 5.893783928862156 5.777593289883373 4.852939320061729 -0.16497226324074815 -0.9867415707827263 -0.003063469416672143
Ni 5.380761318873481 3.105353030495414 9.424163959714244 -0.3063813944495756 -0.9455591830071458 -1.1370917132349256
P 0.12329062635791542 5.559538369167616 12.494063995379314 1.219125073588597 0.4679706001507038 -0.19922655643792786
P 4.033181006118078 6.015011812542218 12.408249386320483 -0.15530208714083577 0.6943734598931073 1.035584046206726
P 2.2406260234425335 8.417082431392766 1.1498892210667864 0.8709573392308548 -0.31231370077361054 0.9891141847799609
P 6.309437862599945 7.929805738766182 5.882859065891749 -0.2648331386941439 -0.8502869553656969 -0.5091912973633876
P 4.752893140623748 0.9570494112822346 12.47662411538218 0.08235166292503882 -0.1562035159091826 0.9118013698304103
P 3.9725264413369086 6.2891083373897665 8.129824976348095 -0.930221781319127 -0.4814868894695837 0.7228080610847164
P 4.79248696725423 1.0153297908368166 3.7425040021615006 -0.9277465803057571 -0.098947619610507 -0.9594508533875734
P 0.13784537480213047 5.500589967914298 3.6557640927767183 0.24612322098946646 0.32868777125625975 -0.2900034673121844
Ni 1.3909475592517169 1.0494259794331078 2.6082455861131093 0.09154541360916492 0.05431352584090001 -0.45105145579786193
Ni 1.9201019905328394 6.422757813738214 4.77079792761392 -0.5273420001304853 -0.14843209949387984 0.36763458483310235
Ni 5.898108015263433 5.703415799362927 9.215394540610916 0.6224746168702764 -0.1016714462995733 0.2127868116208658
Ni 8.626814162835084 2.3764240020112406 10.056522327057914 0.1859072136212024 0.6571911944158553 1.235444636684227
Ni 2.4470176463911706 5.095994501486665 6.969855849486598 -0.47476062648934364 0.543285153723303 0.7480856047045826
Ni 0.688316920129131 9.060089425707096 9.013971554729633 -0.8590212499149013 -0.21183653189245455 -0.04508660792599332
Ni 1.4170004055024175 1.0932626465825888 11.460894414258146 -0.047817119483278936 0.8704778284912751 -0.2964651637771281
Ni 4.257916143821195 6.532927230108121 1.6363552603346334 -0.5499849343409817 1.0393859364513196 0.5041010273246738
Ni 5.629427882567798 7.793366820459499 7.945710071588249 -0.3605396256595339 1.0857146443145302 0.8753264148328279
Ni 5.176518198145102 2.787419838498385 5.008238115841373 -0.29110724189932446 0.3922346427699696 -0.17693046404388885
Ni 0.8911662226104178 7.4033143669597505 6.865847579189493 -0.5319776991302838 -0.5866982306016154 0.40821379180704537
Ni 5.014577100123161 4.624470482701895 7.095359974770596 -0.16517769438333488 -0.48565901856940236 -0.14967934163741964
Ni 8.100422091551437 7.247250054422636 9.094316510447058 0.7808491722888488 0.13870253091094176 -0.5367764060705078
Ni 4.620994964404416 0.5413052043419134 10.280578610277988 -0.3357642184870669 -0.9531609066138036 0.19980376909763656
Ni 8.003730464319538 7.019084535023309 4.888018583833593 0.7132733821214038 0.11573898013623293 -0.4419893455955936
Ni 7.22256936085042 6.094407094169007 7.016574939992922 0.09550465536722907 -0.04276155933724248 -0.2250376039637608
Ni 2.3169790981439973 5.19894206165402 2.5815833957453185 0.040786437888742665 -0.20185936607508462 0.9617977563531952
Ni 2.2836231498084683 5.190122369766656 11.407740649875349 -0.09959142384209299 0.32976814880463207 0.23611623037542562
Ni 0.9393558635859861 3.2037598485754164 3.8149076242521955 0.6085369237432616 0.7385552966166442 -0.5525606654879581
Ni 3.768337484530049 2.53323758212937 2.494671967275725 -0.16422252955891717 -0.14069976384662866 -0.15746669889232234
Ni 1.1161107941434076 3.311148850307341 8.338831813974082 -0.4263056163117496 0.670163438305807 -0.6762150438165258
Ni 3.4715553038862392 2.71443395425136 7.2226090810595345 0.12123856979822345 0.22479463471501931 -0.4870823812794902
Ni 4.148098792941163 6.946360443063626 6.043138234255076 -0.5482620381126041 0.5713317754478742 -0.23392410782011328
Ni 0.9555418487999522 7.398268094938219 11.546933803591282 -0.6055259048310797 0.058156553736074035 -0.20043188959993868
P 0.11909292244018299 5.59115204469428 8.01220802076931 0.3639604784156248 -0.41546147450839416 -0.4087475528233283
P 8.418400420149732 1.5847009338458915 8.042636409146729 1.3540959053712487 1.0404370034236532 -1.2509833557497745
P 1.8603862670580005 3.2496547447426245 10.549794063064638 -0.7637179119252008 -0.4925300346576227 -0.8307594268557305
P 3.8933568427164498 6.168115164036287 3.8692900069214504 0.6574850715071903 -0.059331804991097824 -0.5332884475219073
P 7.0664960209930525 4.173068360761481 10.374809390008867 0.15932894891204172 -0.15226432875577647 -0.064824709784869
P 6.375147726722901 7.941089889082668 10.121236477756943 -0.9061120327551169 0.06255314014187291 0.06779484815678646
P 2.4321406226139173 8.541099757031063 5.760023416474593 0.3959213475929375 0.11800335069037741 -0.004483489692650343
P 6.8309822629076296 3.8787596658670447 1.6224685335891542 0.33433082847465 0.9059747358463042 -0.1706978528706157
Ni 5.443401894110352 2.7467878700387858 0.37322733401185626 -0.7728674396349529 0.2257865663146434 0.19156569745856042
Ni 1.4616495314746856 1.1591620844308612 6.859981626488971 -0.5758134653683115 0.3455410953681727 0.29011453896875194
Ni 6.825656143958249 0.9212831684391037 9.214390702598763 -1.229668139211766 -0.7753786360925807 0.014637547407516726
Ni 2.605438089514368 1.5887180913585603 9.259418976021665 0.6622575531951691 0.3236985455717844 0.197249378106899
Ni 6.534976431805594 1.8076215801781166 2.4042994642210602 -1.6879839898815254 -0.5445424231691719 1.0193804398636703
Ni 4.119852307868937 6.814028955472144 10.361649362543771 -0.7228947072612518 0.8350485411493878 -0.45044544678274684
Ni 8.305504753063362 7.08322364542221 0.6044341576044826 -0.4696958103719266 -0.4010123889625997 -0.49031657194607164
Ni 7.421314843544608 3.9015355948658383 8.064436484826153 1.2406431501660309 -0.11995584643105792 0.6751845456694823
Ni 3.1141546677422722 8.388258197824337 12.26871319443493 0.37097496206024494 -0.5831349387303892 0.4824058017394273
Ni 0.1541180222905272 4.978747666038259 10.184722010169514 -0.8455301574070019 -0.8832194444276594 0.3839099249543582
Ni 8.593097121689427 2.2767623864160447 5.681026239670969 -0.20176192126527187 0.3736041721529759 0.9492386887412622
Ni 3.658258341362674 2.6980674226323296 11.648338594727367 -0.3877966616032741 -0.31210801252070763 -0.49635197950687415
Ni 1.0411479267609343 3.465091742584957 12.752591100986187 0.24537888662427418 -0.6350280280552548 -0.2943067226732286
Ni 2.875707030574564 8.501442739158808 7.955209520690679 1.595975777703329 -0.7226651077489489 0.10077875928197483
Ni 5.590150012146177 7.943572402152294 3.6895479360922487 -0.6914778835128672 -0.4232514028664581 -0.6095159998270793
Ni 2.951229591812735 8.341532788193835 3.635377695448944 1.125545403158223 -0.17715723534271424 -0.9481477696699283
Ni 3.4439948951532564 4.4274040815748 9.415285590245233 -0.17385928131773284 0.13312966480885458 -0.7970481506462144
Ni 7.419491324853464 6.481092357214315 11.370297130929178 0.17173914965093648 -1.2685686729317056 0.3968729128729294
Ni 0.37471503638958165 9.095386247897062 0.30406451989205624 0.4727060579531601 0.373742240392737 0.1412011289630794
Ni 4.660399217309583 0.14697560650620484 1.4975060475203483 -0.322851881300773 -0.03134354730828796 -0.17457096267277677
Ni 5.934289514838211 5.637173323345034 0.2806232773906029 0.7832063596671156 0.029770289283897116 0.3000217707801349
Ni 8.092505131689391 8.976478385522068 11.097157502028468 0.29159626572060104 -0.012740073274487737 0.168838945285006
Ni 0.19713861968912005 4.791087732614986 5.802685629259135 -1.1161994431669486 0.6936440379262505 0.3634660552777095
Ni 7.92212348923072 8.662120012345301 2.561605936025013 -0.23431877215537064 0.512865146670549 0.26306730504297277
P 8.485843529761299 1.5071381982304999 3.679057287226019 0.09905869126707456 -0.5067592908831272 -1.1070054353725063
P 1.8554573501997598 3.27147377779458 1.7066320457736768 -0.43686925076020894 -1.2880095552651365 -0.7676820387792713
P 4.758092877089584 1.230306395346236 8.192253409559017 -0.18126302998097168 0.10280530279370037 0.12230917715458292
P 8.517737052215812 1.739654885991864 12.413085321780116 -0.615919589360578 0.399351456320409 -0.0866322925782637
P 6.316434035796166 7.65187260281103 1.3633609712899997 -0.6790694825461854 -0.20580215277291652 -0.03593065245833812
P 1.6353080911852635 3.2280975039780118 5.967061395553359 1.2134406216093103 -1.2496479247678025 0.24672563046015572
P 6.773442123613809 3.999725757259764 5.917118648984622 0.6673748198170765 0.1721304715520842 -0.15476164125633346
P 2.410285480280949 8.571350307199495 10.212203881216293 0.10755335900164702 -0.5813451938198182 -0.20187504980436843
