# total energy = -340865.6171182735 ev
CRYSTAL
PRIMVEC
9.31309453124898 0.00000000000000 0.00000000000000
0.00000000000000 9.31309453124898 0.00000000000000
0.00000000000000 0.00000000000000 13.63065522850345
PRIMCOORD
 96 1
Ni 3.5875529981618235 5.389115244217065 2.821832233712098 -0.38186538372050366 0.601231391220784 1.2388660036609502
Ni 2.486931494063436 2.9552311362370975 13.365238633019993 0.33482293761972015 -1.4420823979845614 -0.22254491944889412
Ni 7.3253820886415655 8.643762367565037 8.494078588055213 1.2705425088286249 0.44246037169474123 0.8972466119446869
Ni 3.4132118697414326 1.0285754053024392 3.3922341244547374 0.3473046150264986 -1.1322284716053532 -0.14418746528491297
Ni 3.885367133024391 0.8215136507820375 5.986365854998334 -0.017453676700073167 -1.693719606813722 0.27316531270892314
Ni 8.092240913235146 7.963887845292313 4.327787548293427 0.0403524356751176 0.8953565940108258 -0.36655343595378165
Ni 1.557559171022429 4.240484738141801 11.367802452827439 0.6530067240208625 0.09576279412462217 -3.2651338931276026
Ni 0.012527974676875532 8.609303918037503 2.047433527838114 -0.6228703096467982 -1.5441377099861149 0.1944679587070199
Ni 0.8780301645544276 2.0402941096197873 11.164569311442381 -0.806107175524689 -0.14825752158922853 0.6735115288424336
Ni 0.6167224286926662 3.382609041323195 3.786309335036643 -0.6358494955152856 -0.003321351063749119 0.7535278587660765
Ni 5.23420123085463 5.282452373287645 7.203992421431635 2.219147934861262 -1.8132766751444642 -0.19865628575675462
Ni 3.765731121502578 4.327944008280471 11.719514259298304 2.3164454204628555 -0.6593097834207549 0.2053501528371625
Ni 7.87018880186082 7.025072044461869 6.442310746052204 0.057097516343940384 -0.9699144719230586 -0.8294018843865716
Ni 4.857393428723806 2.5700788014639304 10.273261468106492 -0.13685056530386755 -1.0134733303506158 1.1101627500545657
Ni 8.916738479484378 1.0330829430244195 9.3556180562371 -0.01778869144198872 0.27776398782319905 -0.9364415369765937
Ni 1.6164458673366455 1.062642704862364 5.247202310730423 -0.5895189878798621 1.7679697236775487 -0.4194109460744454
Ni 5.017643845215775 8.157525705448124 1.4336316855702678 0.40649860888815154 -0.11442231820733842 0.9806534556071174
Ni 3.862037831384803 8.248756778845888 10.020453793564672 0.6754282862491722 2.608145815861489 0.30671486652959434
Ni 0.5762924229929546 5.308482472322634 7.950611097820299 0.07198626053031473 0.9501172346914734 0.4928002575998739
Ni 7.380431790035419 4.680370129096947 4.024777638027776 -1.4460118149459547 0.19289984288895165 1.2300890287992685
Ni 4.624454309917673 1.1834801055704074 0.6839015043202116 -1.1652051836416901 -0.5301496447826095 0.12644273970698225
Ni 1.1457248206015898 8.385500944903399 4.319281899116806 0.9979819195832362 -1.067981231590509 -1.1598192367394282
Ni 6.49124546961909 1.7437372425102515 8.333155766142735 -0.12329339544472315 -0.10605440585861735 -0.3634053772431031
Ni 7.441413932604688 5.035441168742024 11.014251310199361 -0.7185035201720916 -1.308388890252437 1.5673869103220426
P 2.391556093627901 2.88570888604168 2.749398710186327 2.0796506759631668 -0.48415389477878557 0.06692530106763957
P 8.71585503183332 2.1604330282428132 0.3587059404155078 -0.17360859875950746 0.7357270831392296 -0.1972627478433377
P 6.188346385177595 6.199633855671479 5.2661078924982325 -0.5324924339831731 -0.13729536615077 -0.6018721101285763
P 8.858028731965033 0.7299817644329921 3.782915643412904 0.7446105016717885 -0.5193893209423119 0.6881485620293181
P 0.09117333221206964 7.562670422563741 7.644194457598656 1.1411368298385767 -0.13892261734154784 0.7303856163216582
P 9.05745002378479 6.280862665611791 0.21692525287029688 -0.27835328466776577 -2.5002029347309067 1.4470011754424177
P 3.6939830417295707 6.378501148002783 0.7110612817140356 -0.294917359674034 -0.7114337578095038 1.7587266078127262
P 1.928788429567579 4.686786851184642 5.1410879810651045 1.8367791291417785 0.3726281813929518 -1.4164556985553929
Ni 6.385169323641085 2.7356656210854347 0.9211395475322667 1.3666374894816848 -0.4333000453517118 -0.6319627588663697
Ni 3.986060310400527 2.1306497521376633 7.853670166204878 0.0315237816398941 0.6511295616028077 0.7682744209476318
Ni 1.0418372518233066 7.770091662530566 13.17319703725581 0.9499647682740092 0.36876689866533263 -0.1502562971868122
Ni 1.4243632939568076 7.497665023184771 9.265901291999652 0.2390624574879431 -0.11566004726918146 0.5522860716703327
Ni 5.495433530651209 6.567277572846871 12.217442580208964 0.07820781595999433 -1.3492228935496635 0.9940327051275009
Ni 2.953424395910519 4.580356807616895 7.216818415131451 0.8499339429016523 0.7678077657238582 0.38198648267940016
Ni 1.921133065915786 9.034828517324687 11.238025412740617 -2.2695456705875237 -1.8225110492585386 0.011702890259225007
Ni 2.0173838972312104 8.635650662284366 6.873298406553673 -2.9814802792928456 0.207126785121611 -1.5125074846753435
Ni 5.774435214690636 7.601543278868587 7.051287474076749 -0.7546552875023003 1.1446361012410866 0.19217016381177873
Ni 8.951643957546324 9.41190639919505 6.245797933634462 -1.2661873171837226 -1.1562592873023119 -0.3117737691097404
Ni 8.70725904564037 0.5693057395238853 12.317491291447991 -0.05086747627382853 -0.3839868009388806 0.2541818296278848
Ni 6.942073746572845 6.742149547651876 2.755273410176048 0.3174697910532533 -1.5754264927970674 -1.2657270897178523
Ni 4.34802303995111 4.372581670060329 0.9577726046178227 0.5063088336092699 -1.2896414344416047 -1.7539546403453794
Ni 7.273545404838793 2.6690211170802893 12.15524601012121 1.1198918044168713 -0.09232471497735067 -0.8949300479963684
Ni 3.795998678520007 6.968727822937116 5.989936495416944 -0.40043131964814904 0.20623049855958675 -1.3019336215453965
Ni 0.048529603957575614 5.578348010690031 10.305551829242132 1.8557405007356298 1.1887683156736109 -0.5228901350067189
Ni 2.946579271477346 6.565433580142425 11.177832089272695 -1.0682702235858377 -1.556124707144662 -0.6895927506750124
Ni 8.373906142292107 2.4943633434480237 5.640637711722452 -0.4081693117223551 -0.34308543473882847 -0.41792073468216406
Ni 1.6292606853231015 6.433318022034964 1.7293075339432349 -0.7492127763304903 -0.4618809423131981 -0.41414969767550613
Ni 7.477567365325198 6.199764238994015 8.733515452870904 -0.03443786996289553 -0.18377962575523832 0.17737577911142355
Ni 7.7595306134051 4.427407857186976 7.11514736283629 -1.0387575588387012 -0.9160465182600095 0.438145032148839
Ni 7.0598005737289435 4.87980073401117 13.464497593848227 0.1859617210082217 0.9178612028712451 0.5110167806079006
Ni 6.120994085992964 7.60841634258516 10.320859762617378 1.2225718944866169 1.7748996180281624 -0.4203077468571019
Ni 3.2013762229972973 2.8362749806113685 4.942285078717951 -0.9650849117448992 0.14692234771757276 -0.33374487406419295
P 5.648121714436055 5.598613304250008 10.111179165932883 -2.591826766986491 1.329826748411239 0.292084003990297
P 6.764193642255031 0.28790872758757136 6.674850333105708 -0.5148089006604811 0.11285034573452823 -1.3580967990005255
P 0.8388732588683414 1.4432409364412164 7.322469884001765 0.2942285611371255 -0.6446226137222253 0.3176279138976723
P 5.613579447058318 0.4925211382631781 9.909118543141208 -0.27785089111005057 -1.1067724934260939 -0.534067491779777
P 6.168816826080502 4.416073821220758 2.1575552820525408 0.5943616606841441 2.302407454312551 0.47639893342371503
P 5.457575801643255 3.0664387972663656 6.4192207909404155 0.20384220083306828 -0.19426149912316867 0.5226111703137192
P 7.806207842873208 2.7924754973335317 9.888276769033729 1.1702211487990426 0.4867702493557101 1.1350086054536517
P 2.466535817180923 5.351890805632861 9.30712011680071 -1.4672159598273957 -0.07191606941401163 0.26712193472832063
Ni 5.814146249497504 1.1791215773598975 4.80199821152523 0.6005693321567528 1.083511208905308 1.0088193765183724
Ni 0.748225185184205 3.0236358150964873 8.766705458932046 0.18442625820030176 0.738604918907657 2.214960893363108
Ni 4.554885494249921 4.58292722168976 5.08333468834751 0.9121273857112613 1.467228815343202 -0.6224391356466507
Ni 2.1698299405599166 5.183780137410826 13.267425064453022 -0.3281588953359832 2.4414167178306343 0.9219328018374573
Ni 9.153393522982805 5.058118553768929 5.470663493297592 -0.9897592745631275 -0.652923677388753 0.1986737692582514
Ni 5.001196920387228 2.90290085842758 3.038940954543393 -1.1681107873242593 -0.18824280373291452 0.47308092479407554
Ni 1.1468237657486842 3.3850583851679903 6.587545660335189 -1.0624091368193704 -0.9247239914293494 -0.9944137426160036
Ni 6.24335883419358 3.9751733029687197 9.137554743222946 0.33523945633184843 -0.4649991762272056 -2.298120654011739
Ni 2.5787679186015495 8.545127384066086 1.8755510563569848 -0.008392852049385545 0.6285725022378982 -0.2386073722283955
Ni 2.1464354472590608 0.7009165279112402 9.03602059341645 -0.4908878710685094 0.455880244645073 -0.17411947695765498
Ni 8.39899561878594 4.304968604230626 2.014692412930276 -0.5370255459668365 0.735351959187998 -1.720336180959986
Ni 0.7407570147311968 1.4646051751482878 1.9817473412536126 0.5942906982368926 0.5800706979827688 -0.0506846708390611
Ni 7.559382900216926 2.3883617022257537 3.2106325075879503 -0.3219697358061358 -1.1651565897919416 -0.18904910168429376
Ni 3.292560730922727 1.226506602007491 11.938941009342411 2.7325758960138167 1.2251347701177866 0.6084829305768746
Ni 1.4114553450256826 6.565498771803694 6.0144718427899955 0.1350353664719997 1.10577721939236 -0.2766843816057751
Ni 3.6552591949361957 7.799977382674853 12.906948704779358 -0.10825886970910388 2.687628898989481 -0.05645551188456729
Ni 1.1934078642721242 3.906321595574919 1.3758234455953184 0.5873440917157304 0.17678802492875362 0.22862969219039336
Ni -0.05913256200814266 3.991899620631274 12.8302767919617 -0.7551358266831447 0.3608715550776559 1.2073404222488433
Ni 7.341503055163771 0.4307334130225219 0.7587275618145295 -0.17129640568656307 0.3401284089930336 1.4544668876918434
Ni 4.023731777519143 6.625661362059875 8.4138630427929 -0.7828754586902582 0.16230217260775273 1.0459206522460438
Ni 5.981605001106854 0.3372634717149144 12.039426504711933 -0.4539316055591344 1.4749539519016017 -0.5602994288931125
Ni -0.02305177142447392 6.100626348393852 3.4677884659363674 0.5525583514951129 0.6294034827796258 -0.8395384585999411
Ni 8.231210908870246 7.450252059253777 12.216460980052153 -1.8725112924360652 -0.8623575133769859 -0.49585292838326867
Ni 5.563158353614515 8.030634793336596 4.0413940611756205 -0.3446005858317743 0.7993940251705717 0.646217469013171
P 2.2587234272464887 0.1790256149372423 13.514698898262612 0.18624017148058894 1.3234522123434629 0.4560645927417372
P 6.3787898539312575 8.185194909109287 13.423332784995075 0.21047461854792138 -2.4344893945831814 -0.20389927932324886
P 5.245656337048918 2.520467947238748 12.631065044767448 -2.137565288891764 0.5911647510134013 0.061555037894661734
P 3.6265934901670733 8.818522585236439 7.922709066797463 3.5508271631002075 0.15442302696999213 1.0977481784402965
P 3.431819432486301 7.883050185319611 3.826847372632171 -1.1884685250450049 -0.2911519790943308 0.33770257316036034
P 8.77187329505173 8.61063569054627 10.464403418945173 0.5544967061684063 -1.256465204799952 0.04355191644902177
P 2.6872002774796804 2.5138649632617147 10.238121300063979 0.6155012708762367 0.40279262079147404 -1.0128004726533073
P 5.826197393737673 0.7981713108101962 2.7269625343061152 -0.42957683086385373 -0.13547039712688924 -1.670484033324549
