# total energy = -340859.0170382061 ev
CRYSTAL
PRIMVEC
9.32330303676586 0.00000000000000 0.00000000000000
0.00000000000000 9.32330303676586 0.00000000000000
0.00000000000000 0.00000000000000 13.64559640821628
PRIMCOORD
 96 1
Ni 7.411102738440305 1.3585077778501666 3.938732766840781 -1.848858686014132 -0.7949442169293343 0.33647461429053016
Ni 8.850602047926275 3.0501371656171306 3.330030175048706 -0.5088416273334526 -0.32342883685016555 1.2097616300958263
Ni 4.294052228452258 2.6850739202238443 1.7319806423910864 0.7565067388887423 0.5569827058150536 -1.0417667779786703
Ni 6.993213659243813 8.42148771212917 2.5974255503714008 -1.8864518137765576 -0.24030147210136682 -0.4942673290637036
Ni 1.787901812732003 7.757659227727103 8.975882064968955 1.1574697626706454 -0.008111059142908612 -1.833604588068539
Ni 9.047155918070857 8.579629574637112 3.744201121078817 -0.8043562542718535 0.4689486477932569 -1.3733660664547702
Ni 2.8900001163047624 4.064754918788286 7.040908879502736 -1.4056925465016177 -0.5131734219395871 1.8829479143883572
Ni 0.8906746977534976 4.708836647808217 2.5623289092191253 0.8230571731154663 -0.7595290706548339 0.8695537740151088
Ni 8.704077020737572 6.225197265778767 8.794300486830121 -0.11864998313544081 2.4071863358928547 1.8889776655222048
Ni 7.330614665157022 1.4880643938984122 1.7017563592948572 0.13064083694872983 1.2545157943830652 -1.3132374765939898
Ni 7.47984345016481 3.024871014962932 9.445303835866905 -0.8547169661125925 -0.863647435833003 -1.1914785155159222
Ni 7.367059455897709 4.7347461063573 12.950544043904234 -0.5746832084186103 0.22532376774561194 -1.0284165819240094
Ni 2.434323690760865 5.55880487309998 12.884267481116224 -1.3169437218009836 2.3399676719545117 0.699789488702356
Ni 2.5249834874255983 5.572771180730973 9.21371112904756 0.1656050117287406 -0.6762651803281708 -0.5568217547571571
Ni 0.3408207933892096 9.331320864856586 12.259571695659126 0.3787679757421025 -0.15623102671300834 0.2764534965418916
Ni 1.9704614053371197 1.4294860822525337 6.128892209253842 0.5008557809144988 0.7636292088661365 -1.2688800335245372
Ni 5.222242964440969 0.5682236079192577 1.4806971200065497 -0.2621831026658065 -1.2554205655855217 -0.3883720744907699
Ni 8.569672287220621 0.5672129618930898 5.670167996016639 0.7863909280426844 -0.1362070181825977 2.3650521257269657
Ni 1.6614218866158186 0.19338115019342947 1.1772776882278138 0.9477965569780967 -2.1705214321028103 0.5701832636657277
Ni 0.3030875221981863 4.103474595418134 12.62779833770074 1.0743105162426467 2.2633750230004375 0.41942688691404534
Ni 4.60086347779852 4.926125543434326 12.829876264768796 3.9456393367893665 -0.025543652797059238 -0.21829719991613375
Ni 0.41547993774666075 3.288067853696522 5.8452819989861675 0.7628231680250733 -0.02222718682931656 -2.1987963677881037
Ni 5.746436342441586 5.200650195099596 5.26874200494752 -0.6187858551647795 -0.18908766823171305 0.4970770305983569
Ni 8.473651591431842 6.333049232851744 2.2651421053785197 -0.5675072594954613 0.41054166860927366 -0.14524598845641437
P 0.8571863263384363 7.404455223526488 5.029821182108174 -0.36264047405262057 -1.3381005583842567 0.9708038165065475
P 6.578028337866404 8.099507449087564 0.03769224865859581 -0.4855880561221508 2.510775568040431 6.1884285652186515
P 4.947876808923715 1.4383618665413889 3.644629179244213 0.9893355567621478 0.07405317036167246 -0.49750743326755603
P 6.567539622188923 5.155385559887 8.458740833224736 1.1360925825464498 -0.24421057734778584 1.0487717485415937
P 0.8161488766264359 1.3190235903887157 3.574887144796365 -0.7899974144470201 -0.5017862631485681 0.4947987760871414
P 8.182606047161688 2.474078254004224 7.0304565247062705 -0.9474078061801103 -0.7098180765829518 0.83931605817649
P 1.6483319694503225 3.5910192556734724 8.800809084531855 -0.5569184282360216 -0.04274896093175218 0.5140830782380501
P 8.525554418255432 6.194449013063805 10.996317305775289 0.8348369393592138 -0.20683933578817926 -0.2250275766614318
Ni 9.023362849262918 5.527944740751126 4.557874660805368 1.6689794237545643 1.150022819474297 -0.4828146071420717
Ni 5.806366532997006 1.035520598103522 8.636843887079776 -1.5652492951537493 1.2312920479684342 0.729491386642163
Ni 6.8549677249632 7.332805641320762 11.983480729119352 3.7049917942024897 -2.409810403779263 -4.408879107123303
Ni 4.486578431776687 7.681581076679773 5.007060202922899 1.6645643254060043 1.013009760450636 0.9576030015455573
Ni 4.255239318794166 3.3732828415117906 5.373390485170025 0.23262827182682516 -1.7398274569153778 -0.46061621666816155
Ni 3.08589203194881 3.3714275042497297 12.89716254125269 -0.2316952184895945 -2.947039581116473 4.905428804463281
Ni 7.446232943482748 8.900789387030168 8.248134881063176 1.2584567813086842 -1.1919122606192312 -0.11462543535708
Ni 2.6985367695023177 3.642782232954694 10.912860692872707 -0.40928028539834677 1.589681717164501 -4.0750671272666015
Ni 1.0676393763336751 6.08669027901907 6.655844352560206 0.08767744601332643 0.27068008439322416 1.1307158916155688
Ni 2.5654932381977367 8.388884122152147 13.016752546581621 -0.29946641249729716 0.4209340675871912 -2.161028662121027
Ni 4.778649539357531 5.329871172246161 7.429521855500245 -0.2272523522268925 0.21147503478797772 -0.9568859208738745
Ni 7.787764172547179 5.7956167648404415 6.745305172481719 -2.3120100103993213 1.969767897497395 -2.083363863148696
Ni 1.981528165789715 8.936637486390092 4.322406257001907 2.244102547924071 1.4675347766193951 0.05794623749748085
Ni 1.4374108896532973 6.841784574769459 11.29384627482955 1.0769893486263902 -0.9977723746755914 0.17237729745556762
Ni 5.112899268916083 7.98507323022054 7.60066506379685 1.6189169598805346 0.24195623409597036 -0.20708976123608852
Ni 6.067596154834643 3.4619101581607987 3.530129697257418 0.6444791461658256 -1.0256940407865238 -0.47823135864676347
Ni 0.12121785400207759 8.141294492346649 10.173147049791778 -4.320290205039301 2.014858619188446 0.2407971807908627
Ni 6.1539952021086135 2.1974558592034574 6.296733103690034 0.6890163093462521 -0.0382803836374373 -0.007798927219128503
Ni 3.0688024178716344 6.072817204416323 5.410206343363125 0.3915748976987837 0.7127010545577016 -0.0464840024941522
Ni 8.288882376057337 4.018166374574622 1.3271525781213342 -0.160477203583872 0.09727460278345827 0.07733569776768617
Ni 4.0341185457072175 5.050787425499747 1.5270647019432753 -1.1774112387895788 0.4446612360008019 -3.248270541713361
Ni 0.035607558147053804 4.224285953417066 10.252195605118969 0.45532668613444804 0.015437160490676642 0.0776354883962921
Ni 6.042488500328459 6.088713435731971 0.8044192293430235 0.3792490291435791 1.1277424108095415 0.5364295642540503
Ni 3.9147150064347733 8.243291425245886 2.8861803591375947 0.9490342860399399 1.3578921391888872 1.4292127411107451
P 6.167374141661667 3.7943791368798863 0.9274178341845667 -0.5016854759046456 0.0627868534192338 1.155396167971068
P 3.6291049477112587 5.723090792169219 11.125022704275665 -0.38919585594364586 -0.3931460988406455 -1.1597269341359382
P 0.959134778062987 0.5308278402904788 7.644754030523284 -0.5725299095210333 -1.5415614646185065 1.0258395652254526
P 6.688490829730221 8.349278731753978 6.122342589019682 0.3524324231713672 1.2002562617085524 1.0203731427942426
P 3.248695545868965 6.923596557053812 7.401261992309122 -1.0600015558191422 0.2782185588621144 0.8143745577398039
P 7.6034331524054215 4.199597847537982 5.076912252344075 -1.0967343924638016 -2.1760580456503233 0.23395727505089386
P 3.57273625883477 0.9842890490832926 0.02433475270203842 -0.49923881413636595 -0.05652698855245104 2.921049070589982
P 4.062852965012103 2.0664821011258994 7.3940028687300225 0.09818708729539863 -0.15188097727442876 -0.018883210057748127
Ni 2.833146615681403 2.127969283252999 3.3480558487294543 0.056874087479224636 -0.3135712273297955 2.1105152267525074
Ni 4.157512458588516 4.801929826510126 3.560285920243029 -1.371839602507915 0.37985452393806196 2.2359133272450586
Ni 0.38373502395976733 1.6601539174316964 9.406905813184501 -2.0507753876897135 0.21499847456020393 -0.053744540711307444
Ni 1.3204034392067312 2.2199063724046795 1.632477692997383 -1.0536025942713338 3.2143533201406256 -0.7089678127675144
Ni 5.330775532620131 9.348196042968798 12.297425237456583 0.07005716182840192 1.288526347000555 0.15906695349990668
Ni 6.217328398194949 2.6946116590132343 12.710572484836574 -0.04968939680532733 -0.34836468085989686 0.2983415548642346
Ni 1.7181168910911628 6.707640893731596 3.131145479198017 0.6860965645962958 0.9697175254209041 -0.2680696433535706
Ni 8.874758725544366 2.2756224300834584 13.493625501096856 -0.7094416670801394 -1.6293414976479683 0.35151222534994303
Ni 6.8909463505626665 6.975061188644652 4.618202024061109 1.5419828684266412 0.42006966270436685 -1.4670310975100993
Ni 3.6969506223646182 1.424041273403068 11.699475210811922 -3.0903449009067487 0.566396800040102 -1.816241157089427
Ni 3.3372575993982023 7.326064893378701 1.1196111955981642 -0.7325779959872867 -2.2441562839801414 -1.0754482293915157
Ni 3.1890916709123993 9.198808761812996 7.863765872511348 -0.46421987485901983 1.7940476517115231 -1.597034043764514
Ni 8.958370105273833 6.411448886302356 13.096633672851036 0.6812875732434267 0.977869207993761 0.838356522476698
Ni 2.569977746856286 1.6860726992836053 9.416634679681792 2.2769157377993494 -0.31246591008075864 -0.199352797603147
Ni 6.677507979003046 4.978298746039822 10.657360240620681 0.7097106044708099 0.8435635205989344 0.5414020777679772
Ni 8.62517390893444 8.97918904048078 1.0750709810150263 0.6014357939221062 -0.5706972271876688 -0.7582293780068039
Ni 9.128977223658033 4.464426264265847 7.683385135776301 1.3346753347527918 -4.147887710772753 2.057908656300385
Ni 7.425180925705191 0.5955716520941512 12.807497540999323 0.9776483502322064 0.31559879928278556 0.07449797120857492
Ni 4.1944140911676 0.7699593697736568 5.586069939879737 0.6226011151458116 -0.6554384733908067 -0.7515447668977766
Ni 4.7313244542207356 7.307809866448473 12.162115211235385 -3.4247857725967017 -2.316823629737881 0.3191806030967729
Ni 1.2576482878955093 2.184664287728343 11.918514090378176 -0.5395552543672257 -1.7380305129159555 -0.9645449800810292
Ni 4.1651109503904244 8.865220986754977 10.012756406642582 0.5014255373750397 0.550205277881904 0.1883613315886498
Ni 4.859202875760585 6.56506894694045 9.574377504828847 0.3913424699730034 -0.5412645237488485 -0.1591368875058937
Ni 4.858578214471348 4.004722171901797 9.641827871442452 -0.809516201206238 -1.1504012858596382 -0.15712474217187133
P 6.263292281119377 8.127924876096419 10.070955259863508 -0.0021538131182091943 1.1628644513236555 -1.5471962943067805
P 1.7556804781707815 4.412868399646763 0.76668968747313 0.1079156274370722 -1.8813443173466633 0.28593701055229465
P 5.449405237758148 6.522834385145792 2.975477088929397 -0.5077856752651125 0.9096717250819172 -0.13468055423574224
P 2.198313603063305 9.071508385048261 10.85840141641466 -1.2638959500463844 0.02542049695563364 0.38527415229173645
P 5.453638017240438 2.002552213658799 10.888789789640601 1.3342472460764376 0.6616176056183252 -3.0154707773056777
P 0.7423167092295114 7.266768687415342 1.1325873684692025 1.4366794818014355 1.1257204952835063 0.34057912337720697
P 2.2543373297352907 4.264226982716914 5.00558712107664 -1.2130953224547496 -1.867586087220306 -1.8560269216277971
P 8.23144150735604 1.6070670311494057 10.985523718095449 0.7783896550047626 -0.008950781435384584 1.4699868377043135
