# total energy = -340859.3586108708 ev
CRYSTAL
PRIMVEC
9.34380496597355 0.00000000000000 0.00000000000000

0.00000000000000 9.34380496597355 0.00000000000000

0.00000000000000 0.00000000000000 13.67560305397667

PRIMCOORD
 96 1
Ni 9.078113649313915 2.072418515450051 10.266849306804959 -1.504126973921132 0.7664227124508737 1.398879380234526
Ni 5.098904901182066 1.3368087999194007 11.940961982686659 0.08005052559568795 -0.24591727562624743 1.0751746640151547
Ni 5.000486605887131 3.6715452895562932 3.278671003681568 0.6105423842090647 0.5709404535467264 -0.11679776041805047
Ni 9.426217094791253 7.062141058280146 11.78318623341939 0.3951896116332355 -1.3367898099926332 -0.46006908591543993
Ni 2.073147332219538 1.9769902376709596 6.54108191835979 1.0433922293972353 1.538839951922285 1.2360637583254648
Ni 4.278967347899893 4.99467475934071 5.749332755208231 0.718774257334975 -0.5499463677935625 0.6359009175785112
Ni 3.2160534962364906 3.191871729577106 4.6161179854645065 -0.8924628174027984 -0.771258186166304 0.7729941950208042
Ni -0.26989299668713634 4.410098303579103 8.600011717291492 0.9886914954202456 0.06955373982942215 -0.5980357671016217
Ni 1.522993453109078 5.092588489179847 4.093764728588075 -0.16795988511416235 0.27674274564753626 1.3390878619981905
Ni 9.071769205897484 1.5457082424247515 6.471527570277955 -1.2883885358711102 -0.46871159208178637 0.5809538719186704
Ni 6.745021669310736 1.3278200597623964 9.717213074476929 -0.9069687243284574 0.7823746077944397 -0.3386865343401845
Ni 8.419020350774646 6.949585586418113 4.627974339295299 -3.0157222311948515 -0.22495455733165126 0.6030687015398388
Ni 3.481118549016013 8.726954779687574 12.809827435093716 0.049128896316167 0.14327395233170812 -0.5006331233807314
Ni 1.0090841925734833 5.311130738173793 10.495368870497083 -1.4724720660200126 -0.8374376102068545 -1.2882101013117169
Ni 4.398343797219943 4.6084672781458424 1.2471708779358348 -1.092690561411731 0.16783672927273677 0.8861178490213771
Ni 7.334279371245587 8.660763266930589 10.792498123612132 3.127227118645079 0.3908349342089656 0.3492964486455468
Ni 6.5370846386932975 3.1428167547077996 7.235597580657068 0.4137005259532294 0.37372655666345317 1.0405617019269757
Ni 4.273202220377157 2.5244531010171607 7.708732346081295 -0.10723351376838307 -0.6263783228000568 -1.5860176380493523
Ni 8.348820345785484 4.48875445185526 11.776745548814166 0.21230678666065372 -0.27650234750195607 -0.3523923139620512
Ni 1.538139760587773 6.818211691815741 8.988987767829936 0.24743602626361902 2.3309744673169663 -2.228111057591821
Ni 5.183541084489909 8.737363778164603 10.733364920953486 -3.043665494572339 0.6139832915698136 -0.18129491166017164
Ni 8.722338940147491 0.05336900951638469 8.506922193838076 0.0578963580961519 -0.8914318050351229 0.9466992101488597
Ni 1.6835947689288202 7.345949783362112 -0.03162130399099201 -0.9897266215529794 0.7060807210277066 -1.298108077151719
Ni 2.6790089751720565 7.607753848288419 10.901943977257687 0.8436535092095793 -1.089602923625343 0.28939565852485644
P 8.760031848456592 4.970689212580804 3.8973962626155294 -1.36572397652848 -1.1746565588625768 -0.10960921308941121
P 2.545775663427019 4.085027336778496 2.517363956363191 2.1016783451871675 0.21454261796970794 -0.1479739289105387
P 1.707029031209243 3.373188260498801 9.675803200643443 -0.437333334880821 -0.30696220665371005 -0.472254058017406
P 1.6437060665065208 4.067302139192387 6.161624401706939 -2.309459476063326 -0.7883894465299519 -4.656658889879586
P 4.778047990317852 4.933855934307507 7.991967361552409 1.5735403315179481 -0.7702950509220863 0.68443331796126
P 4.675817422690216 1.5115472923062399 5.521251415958271 -0.4367003292825124 0.7416208229158453 0.053507742110153016
P 0.572925665635029 2.0138982663821525 2.508693839947718 -1.3874492840207138 0.20251345471931573 0.7620510657457391
P 4.392027385217723 3.235357796823154 13.05165351111182 0.3722281177410557 -1.0024962625138218 0.5674540376600227
Ni 1.9877823321422072 6.160006054726488 1.8281546407760618 -0.2530646853043061 -0.11482932383776999 0.8904560713854148
Ni 5.044916397411617 7.90570909374222 4.904166929136129 -0.1765710238219411 0.31527201207098604 0.31610993459124914
Ni 1.3842099213502566 9.083962871079283 2.175145239109222 -0.09517118328721028 -0.35400002476880327 -1.2243500694329623
Ni 6.282718242337652 1.9614608341980477 0.5064005790489331 0.8406054664118748 1.6231875622314305 -0.5590647851550629
Ni 6.450467568781207 2.7857245690734573 4.900146289957793 0.4179832124889834 1.498566449114219 0.7486489334072204
Ni 6.876797347516799 4.93812605307232 1.9387077352829527 -0.3013520595557842 1.0104211737878535 0.7900344383325426
Ni 6.916050671216982 4.809274985748941 9.37820862605249 -0.6398586166746787 -0.49859500990478 -0.18029500964074754
Ni 8.537836171810476 8.237647757024527 13.524774260828941 0.21401219938753466 -0.2849941870230511 -2.4408343629646025
Ni 3.586432572206862 1.1497271414749701 0.871715312851845 0.7949390747230116 -0.05645911142899309 -1.0354542054970812
Ni 2.6654417706939166 4.303055676511907 7.733771874015536 0.7965079618720283 -0.250209218133382 2.620117129290752
Ni 0.4607458147234245 4.300616943475547 1.9689041090515507 -1.8831613159507439 -0.6370327171901093 -0.4667071600572479
Ni 5.068004938916771 3.339457125398192 9.714710803568357 0.4929061870501189 0.9856437097328572 -1.384808503963757
Ni 8.80664809028954 7.049639047542025 8.02379049172572 -1.837727609097977 0.013937436016698578 -0.3091720698208353
Ni 6.0354531375821345 4.6737617856480735 13.30994430545701 1.2100501078705226 0.8406825995067135 -0.4494116062015938
Ni 4.668968413817987 6.9293282177482745 7.089993071440228 -1.9555520110083287 1.2642217088169196 1.1121581832180394
Ni 9.153107026133164 0.38686528504835366 3.7701859674039695 -1.5605804289231704 0.58475601927358 1.332930327037227
Ni 3.495134256121529 7.975740910246115 1.363684385484465 -1.2246886837193036 1.2971441705765532 0.4838078242932765
Ni 2.6876333069443175 1.5876525818891931 12.457188506797031 -0.07660627580082936 -0.1365487177927326 -1.601570498182287
Ni 6.839328690521385 8.339635385729002 2.6149665375045847 2.199141409832348 -1.7339082632174656 1.3020076693164415
Ni 5.681715377848379 6.9105284826174085 9.45909981242174 0.7797975910958828 -2.407299721542267 -1.0511888426235187
Ni 2.623497431229475 1.8875233073140811 2.6146656669920523 0.15859412762854622 0.9128416381694667 1.8495652251628532
Ni 5.498090927156642 9.26858710887788 1.2694838836478166 0.4451924259139236 -0.4413630248655044 -3.092978224764538
Ni 7.728214178957962 2.861689701585355 2.6518904506838297 1.1626685332627653 -0.4159528123225159 0.07946714228839218
Ni 6.838730687018217 0.5466882619335026 7.335935093444984 -0.9904305895985395 0.18126071598812654 -1.7815276648676415
P 9.04312110057381 7.500290750008057 1.6109719153713509 0.5198184380599306 -1.2592093432039926 2.806435462307444
P 2.485022245026975 8.986488300062787 9.177697117059555 -0.7972903485640076 0.016639151218577796 0.5308312442306664
P 2.887777604411089 8.15268454055089 3.4255743017568525 -0.7389931554850112 -1.8961867816761346 1.6676997857111922
P 1.504614189191378 0.5143960727623932 13.71731363562026 -1.14272320048909 -1.1753841810572208 0.17735212496233974
P 8.301307098697784 3.3959591126428967 0.12693278421087084 -1.100032346488783 0.564525551159318 0.6399488623956399
P 8.79823866602623 8.766750044062503 6.146007166469499 -2.6156827476684823 -1.1379951988858013 -0.8650684845502457
P 5.819517810109814 6.044815629928618 4.412064240095769 0.7229214467341292 -0.9962027161956263 -0.02114423817778294
P 1.2920426314243818 4.891995689085698 12.405125761182882 -0.49994072529939704 -0.24656390807131087 3.2843264068956537
Ni 0.974278519928118 9.02083612627604 11.067938537171633 -0.8844584590410832 2.520417204895253 -0.37865844674743177
Ni 3.97923677954606 1.2470989306393598 9.80152315899945 -0.7914570297116821 -0.798437060573941 -0.7659406306081324
Ni 3.1017507328886365 5.265719847151921 9.680466693587686 2.856657334577474 0.4237285996131928 1.4764863293857282
Ni 4.066451852961319 -0.02316516070399722 6.90128372221061 -0.30322587953972935 0.021180233622040943 0.8285148537959278
Ni 3.6966894681035893 6.024044351998244 3.6956952872795714 0.298266478651925 0.48607785127437575 -0.9522458509987021
Ni 1.0215955471163407 7.7955362920881255 4.519404000153602 2.445370046051427 0.34301215829873183 0.15827608216749517
Ni 1.1577160945251144 1.3814628427575755 8.819177198061396 3.3559565696381304 -0.10308066794227409 -1.4339952501010529
Ni 5.665616002286509 7.744603212466679 12.706495232887587 -1.0544636567200485 0.7413426295537942 3.0574080409694115
Ni 6.686903203846529 6.376296446778815 6.695890075242586 0.462134710195217 0.7343654269050126 -0.20946443211585217
Ni 7.066897054891284 6.524311657617804 11.70127003167049 -0.5080970358579443 -2.5158617243140866 0.41868383810043375
Ni 8.72584286692387 0.8964296763812385 1.0687630734287712 -0.3023650742013309 0.5966725682055078 -0.34144044293623776
Ni 2.214051907653661 0.6777846455351855 4.7754251843281725 1.005583386079578 -0.6261186413807669 -2.1037131162290095
Ni 8.322153127066054 5.784104790156543 0.18413275366942997 0.840187662148166 -0.12508571145845554 0.4515265956620675
Ni 1.3830699771723414 9.078805090864455 6.708840588608083 0.959789981894547 -0.28873205679892855 1.7101630970817259
Ni 4.488586263369993 0.05826236005715725 3.2562019564304783 0.12195719313180287 1.938217119274307 0.5649778082053882
Ni 2.1358442620048805 3.440276778510539 0.3147768971218415 0.5672411503182683 0.23766609136104877 0.09171510641780978
Ni 0.350391743257432 2.508316350236343 12.36037921467781 0.9029665451475997 0.05898496317464035 1.5698993923312512
Ni 6.503101220864789 0.6128227774815915 4.473344649082981 0.6317825245347635 -1.5753958966694481 0.34050996070216843
Ni 8.048108677934264 4.84560369856644 6.19497991585712 1.6191046504113085 -2.0441224011495702 -1.1499006920741357
Ni 0.2914416791716307 2.872089356257648 4.859133527825631 0.20615670789885784 1.3683537008418436 -2.118988554330841
Ni 3.3152940463482823 3.2479625894133823 11.092445468235864 -0.14944074326405232 0.7022451493317002 0.2800656393731822
Ni 0.7681887595071862 6.02202609017505 6.443807304764665 1.232711039803148 0.2232745985260671 -0.3023900139019953
Ni 6.339360386653411 3.188900399670737 11.501633102800938 1.2835520337144153 0.07838085120274887 0.2793912390139769
Ni 3.4386883317052472 5.248788872968457 12.805082651048261 -0.0667797766287108 1.2890248839035283 -0.9656932347528595
P 5.888213462536317 1.752533360278486 2.6999334915001185 -0.39651784352635583 -0.03207271216482863 -0.542405322221511
P 4.994030036813857 6.750310262791884 0.9792223270144704 2.758398256393559 -1.8550835838779214 -0.6944989297273781
P 8.305764093557338 2.338380573484327 8.34639843159765 -1.7456499771344256 0.07217652216424988 -0.7695643434036488
P 8.1906577630021 6.422940720025974 10.008900495713142 1.4292574783057514 0.225201897455767 -1.1520735313557384
P 7.0843419383352835 0.19346254269933524 12.969832616171237 -2.2912540087988926 1.7123549625267218 -0.31527124074003765
P 5.522468913715504 8.802303221086829 8.602801777385963 -0.10841647833289071 1.1099627182286174 -0.8362975830651405
P 2.5543719637850693 7.34226832429573 6.936307105506348 0.1366793298333259 -0.6313199830760483 0.11345224098458526
P 4.51203921325989 6.462969579519327 11.19874619720694 0.20530952940721411 0.11777195140586169 0.6363619163753299
