# total energy = -340860.2830470241 ev
CRYSTAL
PRIMVEC
9.38952404372122 0.00000000000000 0.00000000000000
0.00000000000000 9.38952404372122 0.00000000000000
0.00000000000000 0.00000000000000 13.74251754562185
PRIMCOORD
 96 1
Ni 9.07310648897353 0.9122476606482488 2.882960406421065 1.6652343548898352 -0.2714763550422744 -0.7003998685928454
Ni 5.0042689117395085 5.910329814984439 11.73422718308918 0.5320098379197999 2.055824005857214 1.064109921560561
Ni 1.3476032721796407 7.798103016827982 3.5129035756253133 -0.4960491035544747 1.1306536709190658 0.20865659150257612
Ni 9.155546510222797 0.880774914950593 9.487834255096892 1.2369888412428955 -3.250392730262686 1.5187375247454553
Ni 1.239529850245807 3.526808521806183 6.6971409458065825 -0.7353069648826756 -1.3639406593758123 1.3844089545324931
Ni 2.7059575494083026 2.2282749023655706 3.4811998476357746 0.6211708104571882 1.3421955543892368 1.84008968157225
Ni 2.569696776245506 5.2322089978268895 6.366949881655149 0.19300988610425468 4.140834403470397 1.512898549466175
Ni 6.831423346249879 2.921287504682726 -0.018358397442661288 0.6003790705228176 0.3127317621476356 0.15271195781615635
Ni 3.8922581877563776 7.918298314323637 5.603731807939273 -0.2668663670740888 0.8402311137915917 0.4990853192776373
Ni 5.2876259688306675 0.9293318996759299 5.417396702962998 0.5703041055143082 -0.24493074334326206 0.015138655413651348
Ni 3.7512650944671986 7.457469862969109 1.0889876109873229 -5.903533108556994 2.8701689959106633 -0.036771146081762476
Ni 7.348701616254815 6.536620459329238 11.330747127837629 0.8000573697861835 -0.026284644728141827 0.5044776939378021
Ni 5.868884455782359 0.6983740205555755 0.5142247967805338 -0.10924077400639895 0.012115038095979136 0.24917177800780316
Ni 1.7277663223322954 8.36090169947716 10.152504579038087 -0.26195581714634886 -0.5457608689573052 -0.568830349182259
Ni 6.7050403523984965 3.9285111401531223 2.2118028603066198 1.0051283008200302 1.4098711033593394 -0.48999209872711746
Ni 5.427370255419828 6.496461464923416 7.48710226195095 0.6136472483866335 0.5530697439138927 1.0550331560702733
Ni 0.3195583671055713 0.8171890580143705 5.234552623032335 1.0520828151926978 -0.15350797135489047 -1.2057779628577299
Ni 0.5048709529116819 8.679253512740987 7.8078390143260865 -0.06402535381202523 0.33457199795117865 -0.5572027922456596
Ni 8.343925439976173 7.978344320689135 1.7939896965770508 -0.8700335418650049 -0.6660710134039884 0.47359128877159085
Ni 7.210365758274697 1.8921487200556337 4.6066432247395435 0.7648972769452825 1.2297748399929596 -0.9889563190458582
Ni 5.550466915850112 8.02432482001233 9.883769827766004 -0.5450255334531775 -0.6508979052079757 0.12779488285950247
Ni 6.517531556914686 0.794748095510299 9.878245031808936 -0.5138231397084442 0.8195753852144531 -0.30130912213299077
Ni 7.875416357940335 8.921831866838344 11.256056280795313 -0.4118801849150391 0.6874060274363387 0.9208832775270205
Ni 6.927421840242191 6.094636782763693 2.830821318266731 0.20526993441853036 1.618257986140297 1.1092793190083476
P 2.585996990014154 3.796034345186618 9.744214270610454 0.2333435527262949 -1.4320065018057984 -0.706527578757138
P 7.182112680377311 7.77064804847572 13.453169230709623 -1.9396628505818982 3.537621720153527 -1.247219003611336
P 2.406150046163533 6.478011050144963 11.895591787779543 0.05604747781287121 0.427991745764921 0.4399610023116552
P 9.01629047888477 4.643786304017203 8.032488072230338 0.020877100559325335 -0.42501569385573257 -0.46453972009228384
P 1.9238008056628406 0.6554028636936998 2.46935187156569 -0.5875819187581494 -1.855055558853463 -1.1372493218587125
P 8.0580895485331 7.4380053795921475 7.320158402063968 -0.5308461566290018 0.18433498403807608 0.47994525601407667
P 3.23091645009455 1.2613511041619 5.403544338116866 -0.6907865138727974 -0.3716753305613792 0.8565838441180021
P 6.449823698916001 1.296176848901482 12.080277153378427 1.2938251335056492 -0.13002660040349864 0.22769046820557565
Ni 7.922082292519931 0.49266175477609864 6.869444346027174 -1.2746827562492433 -0.6460236078348099 -0.018106736903039784
Ni 4.348316760888283 1.3428521730051386 12.001973217477715 -0.3744076418908777 -0.7964526831540606 -0.6767238651321442
Ni 9.356651336545895 4.628913297905719 2.712442893676739 -0.02345360303724993 1.556478490939655 -0.8387851253736844
Ni 3.1354062113533723 0.2666192915013013 0.6864305459508983 0.49680500788389276 1.1773950408396625 0.8175794378303468
Ni 1.2247413498508646 1.800516354751352 13.316774187352763 1.1637206286763635 -0.9488273122354562 -0.4611515203463413
Ni 8.482618099870583 0.11299728835104492 13.743205056264859 0.07517082890588345 0.8495169099688917 -0.22532633884877326
Ni 7.850909700143001 6.040346554647148 0.1631965008345249 0.7927307542177832 -3.9740914214824716 1.7383418735087868
Ni 0.05983661997895233 7.60115774966359 12.480308436442636 0.9289434288273357 -1.1060299588331146 -0.16874175758550938
Ni 2.6040999924023756 8.974065789185687 12.340135048603921 -0.1154661860908205 -1.1932001261927192 -0.5442223208255917
Ni 0.617911433073404 5.697366019773207 10.64838975742408 0.3518474972021746 0.8693295738194448 1.0188932158146065
Ni 7.178356870753199 9.300229686467665 3.4952860116310083 -2.895817292606387 -1.3785962045054578 -0.6166017030292672
Ni 6.4915695228880095 4.183239538384483 8.032089017457777 1.664459938617656 1.4047831473134709 1.800681612088273
Ni 8.201157726639602 4.3128431389885415 10.056485428092843 -2.060369973356684 1.4959686064800557 0.7998131149858613
Ni 3.3635528669700783 4.802281470154745 0.08844743874303439 0.5925006962160053 1.2845097696419943 -0.21549058370527402
Ni 2.1912989566161842 1.5508395204644216 10.414024420022251 0.5645021541205503 -0.14302609798696012 0.48420891638643704
Ni 3.426143434355911 5.700295551280015 10.011740590135979 -0.5286712604648701 0.8410443537215063 -0.6295268957313674
Ni 4.586472649153248 0.4985133061704657 2.9888460692488534 -0.49429149743341966 0.7841592104986882 -0.060517854879399
Ni 7.332589192967373 5.703131187546219 6.045539900404891 0.7962451951289449 0.8605829379750661 0.8313430672733424
Ni 6.294305011905568 3.299826167172952 11.118026521299559 0.7475392452828094 -0.43141054163848286 0.022061864896045873
Ni 4.670001855193508 2.4405344832722817 9.330015134691688 1.041387540262381 -0.4678027071142718 1.093090367953311
Ni 8.602287584018864 2.0786152783687526 12.117162959696834 -0.346495488861642 0.5110118955118941 -1.0884613538217318
Ni 0.127271242827484 2.905522493785514 4.2201901324189075 0.19814617888955552 0.6379048353824175 0.26311358489987585
Ni 6.657801656851223 8.097300201008833 5.7488797656251265 -0.12697367250978778 -0.4461288216852639 -0.4188435036067496
Ni 4.766516773009136 3.9662100792551502 3.7648310788294927 1.7151772624668655 -0.3868602658319337 -0.8767119823264449
P 1.8234267934584376 4.236844331244628 4.732606506865431 -0.3236604932449974 -0.1706783124865899 -2.3619488042112935
P 2.0459491241630356 6.38964623921366 2.0310751790991444 -0.12625864872063416 -1.0702486874684471 -0.2720651376662088
P 3.7523261106860106 9.430556280424366 9.957608106023649 0.6633492435974511 -0.46368817072526597 -0.49885880508912794
P 5.004043563162063 7.848393307694846 2.8243481803795736 0.7853786847280861 -1.0780460720256788 1.4064623347881067
P 3.277826512299714 2.8484623560711873 13.064778140622945 -1.6035109097381095 -1.5849148919034768 1.3820743928620456
P 1.8657078203018824 7.501788416533636 6.70948159727901 1.2460080140223702 -1.3490645135949282 -0.8992885820753803
P 5.653563890031997 4.8884115743597025 13.599279614611653 0.9783271214667861 -2.7365366804337774 -1.7508459195130683
P 8.957361825882447 4.695259674915663 12.493102601927175 -1.154832325047798 -1.0069699820144595 -1.6541672984423965
Ni 0.9586516275065631 5.5286738305062 0.06324595616524034 1.0674680393995164 0.8970242115212358 1.0092973445960554
Ni 3.2597422889596124 6.173921923928706 4.089471056356488 -1.9238757629509704 0.6456623678406493 -2.2996401759800587
Ni 0.43778186454856854 2.9702820412292716 9.67860778809646 2.776988360690921 1.3443817634072783 -0.09428158159340536
Ni 4.027410997080061 2.4881957074022676 1.3660827944826797 1.1232324387543302 -0.3064184183350981 -0.26217178981189687
Ni 3.3948669297111156 7.399743069046503 8.337503005518942 0.9363870295895744 -1.0043173748829606 0.3597274141708837
Ni 1.3142141246212817 6.192353559659037 8.504488179311789 -0.37199311891211423 -0.03650375135298875 -0.9818500470183801
Ni 2.8718986081256483 0.05842349660788004 7.74891130027617 -0.6914367458622867 -0.49082976413706436 -0.8562521718101963
Ni 6.1378192039169255 3.8194048705726575 5.761385672721014 -0.45724575753403185 -1.731874263506572 -0.6536176181319839
Ni 1.0814853812631584 8.0754883366168 0.9980491315110959 1.0867613404114898 0.4226644200147366 -0.22271564069880354
Ni 4.713963606843743 5.62895394747 5.484350582179643 2.5033170548798562 -0.0182903136687556 1.0877111059192686
Ni 7.957903326809903 2.3324798403865685 8.533979735432725 -1.201701221685195 0.8940265623454926 1.4536991562878836
Ni 4.322091820187918 4.215755460205237 7.719268572817863 -1.5084945068612086 1.1082817309817687 0.48742048134519933
Ni 4.942410727230379 8.348113167707059 12.935020551824298 0.8710007908742805 -0.41734660734624895 -0.46059513362223903
Ni 0.12520742543903426 6.254371366077193 5.019386045476561 0.5187131208108937 0.3711032601079931 -0.00862913642990772
Ni 3.0670974238148285 2.1721161589610305 7.862960215321966 -1.6602099050920507 2.0112886424490006 -0.9105351015234772
Ni 5.286020360216359 9.226550091166642 7.457473618778733 0.2843622098660071 0.2193868334358867 1.3210592866312538
Ni 8.332028912991797 2.996478813357456 6.4668854030859375 0.05326888662646955 1.3316627731787132 -1.551403647519909
Ni 3.7310870072616553 3.409092058662441 5.647556472538228 -0.8709874211378419 -1.9917197191781377 0.20846041633137002
Ni 5.346470116116448 6.385655691488041 1.0964353814719376 5.108987669727975 -1.6674956401201861 0.6945220696558296
Ni 1.560013085471316 3.1126553945553117 1.61175030199587 -1.831862922787084 -0.9590731583331804 -0.9780034195787801
Ni 8.693234514066743 7.6415045345506165 9.496093280460315 -0.6317997509259442 -0.7451198372080393 -0.1944389052412974
Ni 4.1353905237732915 3.9408489747683313 11.519431491733787 -0.7037237907597558 -1.7401509016930674 -1.2730195096142076
Ni 1.673945570418765 3.9139855464318676 11.918445889342268 -0.5928555084522629 -0.23416322041411283 -0.030173952480219004
Ni 3.192053210009047 4.442869268175312 2.3340845100484704 -0.9069142169414381 2.082585076001142 0.7433642879695133
P 0.48022533015825647 1.4811786414611974 7.127625272255501 0.8922409311999795 0.5838278510323559 3.061573485201011
P 7.746282233539291 4.532820908672803 4.236529782188608 0.03345082345927788 -0.5890258502935275 0.03343076885461985
P 6.148917621356177 5.400046740404411 9.946257110387176 -0.6806088020088472 0.1989131389625671 -0.9668399467627931
P 0.621516071360146 0.18852004722510257 11.777736359679709 -0.8989713079452777 1.0998857936085895 -0.6743319678611999
P 8.949502794243992 1.9674714820672075 1.0175436613650513 -0.14263966118181887 1.5800308243382981 -0.3355035086265125
P 8.759421269167664 8.480167434090848 4.628301100936988 -0.49082642170295476 -2.0598878915139425 -0.6756128914561527
P 6.272934455144368 2.1287835054228337 7.3284587413332565 -1.7790342090218265 -1.422352523655802 -0.9800376763999896
P 6.069557363998683 2.057394953992518 2.4073181029566317 -0.8020000953348511 -2.390431227921703 0.33263595727073036
