# total energy = -381168.2150319486 ev
CRYSTAL
PRIMVEC
9.26678269330549 0.00000000000000 0.00000000000000

0.00000000000000 9.26678269330549 0.00000000000000

0.00000000000000 0.00000000000000 13.56287317239952

PRIMCOORD
 96 1
Ni 2.912901866532757 4.526665698927653 4.373727647800936 -0.9400606217864197 0.34105066369698683 -0.045646337084205256
Ni 4.075225124355028 3.3206402949996976 0.9816117329692301 -0.22749763546847918 -1.592192913622129 0.21994501993220184
Ni 7.511588998779616 0.7091284813289921 3.553933396916537 0.27223945846054404 -0.20643490126090897 0.2793686133061576
Ni 0.7345843327607804 4.638080224506245 2.9615079939190023 1.347754536534253 0.7932287769001243 -1.9525800728641987
Ni 4.567402474644487 3.174271465962531 5.131119385564962 -0.16506508006487058 -0.771098263549672 1.0122253168761277
Ni 0.9151299822076954 0.22410230706789594 7.483830351905236 0.15012928469064468 -0.23919049842537515 -0.13314997652382876
Ni 3.371412996126297 5.7455811972646424 8.29167601347906 1.8088595199133752 -0.0591400006952659 2.0914846924836175
Ni 1.8155665541386368 6.560001640997497 10.586297227258246 0.5408469765954557 0.029695470181903695 0.33064129543820475
Ni 5.995710189564181 6.5763297117011055 1.725482308438345 0.8864009274794348 1.6481807418416585 0.06707339660972965
Ni 7.886847354706179 5.601130592197764 3.9535504172310136 0.8112336981179771 2.0970153924938595 1.7180486704773896
Ni 2.287004845271072 6.119746072860317 6.459847182792319 -0.5783408597758556 1.2514872919693865 -2.3915712550634165
Ni 9.133869004259992 6.401845464664649 7.020536635881427 -0.793900349045852 2.351700387010408 -1.110929710127577
Ni 8.12219582897379 0.3691506196037776 5.8806176780251675 0.41178222588459407 0.5869584262415375 0.4128410061664115
Ni 6.370069667591624 2.5414336246344433 2.9286174029154175 -1.60633938032584 0.9646555375169643 -0.7086446251001408
Ni 5.802729444727271 3.631577913835601 7.37926027185541 0.9941517472038686 -0.45004923978559264 0.47557926573589715
Ni 1.3757094576474589 2.0460036336997147 6.069331069536873 -3.3105722279660594 3.0755769985689545 0.5199955870677432
Ni 6.423020062597535 2.2201079426550985 0.20890849053802327 -0.3556025933692327 -0.6562637975055795 1.0054103508368233
Ni 2.8234774157439846 3.7979815265624386 6.823914972213957 -0.14003436234848785 -1.119525165106072 0.7381143524244838
Ni 6.60131295722717 2.062359504750718 5.276133411005723 0.18864003917133318 -2.8865343246425645 1.0611665226615208
Ni 8.691963948844014 2.0018288816883074 1.7076604324013538 -1.1812722644068818 0.214930597436746 -0.34862410516887055
Ni 6.550679257837548 7.421729009214982 8.942517359780457 1.1850566711499784 -0.917833177846787 -0.923375704931571
Ni 1.8188377283488373 7.4148715901907645 8.47318818833709 -0.904504836168997 1.2456524304551644 -0.44927559484436175
Ni 0.7047415865099864 2.6665259211316075 8.453575969927831 0.43272463246421605 -0.44284089496261153 -0.21521804677017775
Ni 6.085746247995653 0.17721887454192334 9.816156250178654 -0.4232331480340131 0.7983578705965735 0.19409720563116248
P 1.5039339266178466 2.5817533951403444 3.1493530879137217 -0.5201377690725623 0.9591191810797676 0.16294571972902258
Ni 7.885587072290918 7.941058032127351 2.67451759432956 1.0747404046912135 -1.611387998493341 -1.5001242805196422
P 8.416592241109386 6.176505115459409 1.1624696729852209 0.3814835749010526 0.5879555000474841 0.25013876990676276
Ni 4.622271093620686 5.206032055013298 6.3552641292470415 -0.8361520586262114 2.013062960740604 -1.425048068210094
P 5.6316924407678535 5.616050111966668 8.336446619602977 -0.6154789022787336 -0.2481255961314759 0.3457231294719917
P 5.025728268588724 0.6175318967303868 4.444241375613061 0.20380337717533287 0.3560124272131417 -0.1687903514352577
P 2.859766135877542 1.7568614872218624 7.861312735623438 -0.5568325533904346 -0.3493645828793209 0.5048247928645757
Ni 6.084411831320671 0.1371715474404976 12.260538862055501 0.5467029211556004 1.226018715384637 -0.07269974165757156
Ni 3.4383932997844573 6.236303662707071 2.7241161941178236 -0.10179305947910211 0.4302864553363686 -0.27000285582054145
Ni 1.389915435166546 0.8006296180682062 2.050408135405404 0.7137477506546611 -1.178071755191713 1.014735227782175
Ni 3.8185908507649495 7.791631164876684 1.0145477312068938 1.5562761451208615 -1.059757043908504 1.068109272527941
Ni 2.277385925072238 4.045812356810617 9.951228871390793 1.587332243095718 0.9777447666007548 -1.5700194628488833
Ni 1.327549989176034 7.205164303004245 1.776735955574886 -0.9768757337322402 1.014799248250891 -1.244849989158527
Ni 3.1804060759544655 8.929666185857775 3.4178034358251232 0.27093205250303015 -0.6464146726256416 0.17248682645023844
Ni 2.3198370555451255 7.25841123504904 12.963013793574511 -0.7319385626310749 -0.26901555220660767 0.05922741820274961
Ni 1.8887648688309178 4.4975958023344536 12.115361741243353 -1.430376422401543 0.643728126932414 1.55187775894285
Ni 4.580190634446404 7.201318588281204 10.070433054309596 -0.32165066190382025 -0.47998125145833465 -0.7878289460407916
Ni 8.13576239850278 4.551315340284972 8.208345398839375 -1.8600090462039967 -0.575672311804757 -2.516115235085789
Ni 1.06648619356761 6.662260585500513 3.9866300505968875 0.6206758730986408 1.5842075814238072 1.3728130221647776
Ni 3.2329209321845145 1.1123567667701408 5.825701798458397 3.0573823299377993 -1.8763576627653489 -0.5618117517725808
Ni 6.716647331788524 2.8273509308144202 9.496031543206794 1.462781578205126 -0.03835314585690169 -1.9999739887671297
Ni 5.73044854149904 4.857128428417644 11.527180524614861 -1.5813580277901538 0.9844622878302466 -1.443286959815624
Ni 3.988756777172641 3.689180233639022 12.186417575829688 -1.3335191096611614 -1.1324223327837142 0.12102851066994638
Ni 3.764370906561312 1.819180599300048 9.936513220836124 0.27544845231614495 -0.02882695153402132 -0.6705298205062903
Ni 1.1244406511047065 5.072914724901307 8.192219343993509 1.1902603268381051 -1.6024482728015499 0.5919486803672773
Ni 5.618144404803793 1.3641352463484768 7.707034707752258 -1.714844047497163 -0.8200407548866457 -0.013873672658298686
Ni 4.105342167366791 7.9350346235249996 6.685763925866892 -0.9574492495765122 -0.9529840147163071 -1.3578679708191712
Ni 7.5769476155063735 3.3943575495100275 12.162411049175452 1.2911247038553504 -1.0083671194723023 -0.5070439120030816
Ni 9.173549366775799 4.087494344338897 0.4951834945211556 -0.1337770685848664 0.7187660298048589 -0.7820547625611758
Ni 1.7372344419606582 2.8194741657190368 0.6448151576643043 0.4244209976945271 -0.8271624535330916 0.17964400632030997
Ni 3.7416858230866055 8.762113492105259 11.597694252426985 -0.1332757034684156 0.35771295484401616 0.06305373392737527
Ni 7.860752095284295 1.5145536593229174 7.81251293248367 0.8674596104902416 0.46621787912565515 0.5527421853711448
P 3.384395758359983 6.973680077024604 4.7444017264419855 0.16309895747743525 -0.19409566296926573 0.08582753728878123
Ni 1.759558120919223 0.4457674503474554 9.782113798114652 -0.6119361792327978 0.4374451778683369 -0.9649311597758542
P 7.65926444414437 5.419325587013834 11.353860185456028 1.9670507556765477 2.2141329981451743 -0.38144372280205274
Ni 9.012965293437079 6.272277312236814 9.555870864297303 -1.0786847340509422 0.1797098265612389 1.5676795018617968
P 6.688281710662675 0.12481614637970277 1.4387087515585872 1.868589074563524 0.12303962756270422 0.07766402764138237
P 5.332236365406281 4.610771016581425 1.9930504586590636 0.5622488393099994 -0.6446722360132381 1.5534129646404535
P 4.385180464249625 1.4403081982120736 12.719858981758248 0.7154284807911938 0.7732847296780295 0.2493982921963124
Ni 8.960385569729773 1.5362749974212473 12.676390358570687 0.8771878935215989 0.0047100038811596304 1.7272393358377223
Ni 7.91685319632836 8.43794290790911 13.50707493220814 0.6741108529893294 -0.66343100467798 0.45572572134507966
Ni 4.854987801668192 0.8852307085838639 1.8151328687192672 -0.5589169467232891 0.18091490261293358 0.6986512613328548
Ni 6.771821754586073 6.191637771225011 6.551504928155194 0.825309716595069 -0.9381199531202812 -0.018343792614510343
Ni 3.6849267804875137 9.003188837936337 8.57311931708486 0.4623679092519456 0.6382478205441331 0.6234881457364553
Ni 5.698209405302756 2.449738812141707 11.2642911728608 -0.6430136173638926 -1.5117891184520802 1.6947231083775718
Ni 8.774753383387733 3.9472971924235254 10.21570469630289 1.2137373269141225 -0.6278469369257833 0.7553014057267314
Ni 3.069871894710064 0.46554832419758113 0.4890664914159049 -1.723466499058851 1.1019665873970184 -1.2687363088578214
Ni 2.3633167988716464 1.4909140972543 11.862861379310981 0.008031869165541005 -0.21483160996503645 1.9979487308069848
Ni 6.578572273057673 4.15226915377035 5.219101925002156 2.0955799455989137 2.221485324745187 -0.21173523042789988
Ni 8.728855009837808 3.120996733570339 3.86761583671862 -1.314967057690587 -1.8804403174751552 2.0489241934135873
Ni 4.63079653348863 4.006966004716676 9.495489436432582 0.15498249901788794 0.407525250380453 0.11495787899583428
Ni 6.851599484828616 7.797589706001779 4.790989548607319 -0.08608104806048401 -0.3019938069048412 -1.9051514470685897
Ni 0.7631825501265037 0.6679385599496124 4.456420707807018 0.07060352125017517 -1.0696056545678096 -1.3813547410872016
Ni 3.589191650839969 2.1825218729764186 3.4089601453186233 -0.6324042172791625 -0.3030063073297556 -0.6982918211109072
Ni 6.81450455462059 5.031779477538472 13.502124617015253 0.9149275741642179 1.1060456425623983 1.4326107110487005
Ni 2.2651445054357646 5.2089788918372175 1.0084622351620247 -0.7282829681563586 -0.7550797766342286 -0.9559042736868956
Ni 7.571962086540118 4.42044057152955 2.1878678797805677 -0.6853185487796907 -0.6722858839654486 -1.1696531921107147
Ni 0.6392615749329352 4.78435638571876 5.366760690158473 -0.6304645770542884 -1.337459325255832 0.8146568648669131
Ni 5.666016603018798 7.208657879993609 12.399951117496073 -0.30379100801458003 -1.0242735062899133 0.3768897848827832
Ni 7.63930379471442 7.841801525143047 11.138930139672146 0.32530728481980103 -0.5788262840527063 -0.10467295213005844
Ni 8.666193026808411 8.395843915169898 9.047331156209117 0.7673220843366914 1.9034511765480318 -0.5887124328181669
Ni 0.06879010627360552 6.185299292018843 12.632717866168893 -0.5726700346433233 0.45561439257819597 0.04052547091787214
Ni 5.318502993792918 5.6664058078823345 4.013172895611839 0.07341373700546067 0.08829939586804147 0.38830034071256997
Ni 4.513024995138941 5.537236127100501 0.23208286012688978 -1.4477953892089386 0.5170928115986514 -1.2184951533140822
P 8.510650083130738 3.285723058670983 6.325506637394927 -0.279989277609292 -0.5360737235765283 0.20619373178438036
Ni 8.292630492072972 1.1457264504271738 10.581278337875116 -0.15512339547112639 0.24298441825016864 -1.3373922194633225
P 8.996804024817845 7.8808517464512216 5.290388502471875 0.6440330597673425 -1.2814195607524448 -0.49374308112911747
Ni 0.842003021740396 8.788486755001097 11.612762040715333 -0.9431770559282144 -0.964458333904494 1.1723927025290648
P 1.122642895306466 2.5980814658439524 10.73141967405385 -2.473835243370656 -1.3100832472357244 0.10727825096338944
P 3.6484341911397227 6.170611441811568 11.64262795392229 0.6025966469994267 -1.089397492482756 1.047460743039654
P 0.8248817144577705 9.035807912213693 0.33490707836028016 -0.0928340505136014 -0.4957945643415074 -1.57726328889549
Ni 6.279310800127869 8.363586245408683 6.763302801465853 -0.14567587690498138 2.1263051425969124 2.0722214733786313
