# total energy = -340889.1320778223 ev
CRYSTAL
PRIMVEC
9.07393736144869 0.00000000000000 0.00000000000000
0.00000000000000 9.07393736144869 0.00000000000000
0.00000000000000 0.00000000000000 13.28062453612588
PRIMCOORD
 96 1
Ni 6.409248407920975 2.0769697496413375 11.442346243351277 0.3900209229481025 0.6744057585219289 -0.4283630130614106
Ni 4.907911077555579 0.2616342716421508 5.878986581343759 0.23214593287376795 -0.051274224793943945 0.4763619095381925
Ni 3.1622579918226625 1.5703899913996335 4.793043200906629 -1.0557972879298074 -0.8032571076704037 0.21583793974236376
Ni 3.7181455240538592 4.561985374978942 4.817772401578982 0.8036936809871901 -0.16005888509953078 -0.7266696009226518
Ni 3.442869495434196 2.9326510884310295 2.9103155923553694 0.19195907624223715 0.5645659174789504 -0.6813572501390975
Ni 5.383203900810943 4.508902843172072 2.6423259351956916 -0.9182764360317928 -0.011608273662889685 -0.3286836574912017
Ni 5.183849503580695 4.623397781007814 11.387590477550358 -0.09781556288859283 0.09940656152479654 0.7458744559858768
Ni 5.319450419020332 8.018220779703997 12.51396006238167 0.5778914309432628 0.7884028162663905 -0.833079590348475
Ni 1.917713080283665 6.446651176486433 0.2349723223758042 0.14113325183962144 0.7222537312431433 -0.44713103769753315
Ni 2.6476024295966654 1.682888663081955 0.0035215949733754625 1.4946578580884322 0.5915493880463296 0.13291523480520334
Ni 8.064261936351528 8.991500342804294 7.223397429388749 -1.887088676029608 0.18230124143749896 -1.0355223397308553
Ni 8.459695039532999 2.479326266800355 0.7540541511001588 0.8486270511647708 0.36055248117534033 1.5711895718975843
Ni 7.253859543496244 0.7609675837469373 4.913446179162791 0.3002835090819538 -0.16767937775926606 -0.6637914733411924
Ni 1.17087361654071 7.772779856140912 2.3616000999771893 -0.6051011585888353 -0.7143871840108729 -0.6211283872550271
Ni 7.727927385248372 4.079043222781152 3.531569952386624 0.17431333813601593 -0.59470130341175 -0.04454847603433618
Ni 7.712111512951043 4.076910847571816 12.357368408338814 -0.5799094898145561 -1.0288557263439573 -0.44521402318047837
Ni 8.432092122993428 7.045122695344919 9.047784159606287 -0.09272914950462094 1.707248494538092 1.531743192976504
Ni 6.994508274418641 0.5968899316287536 0.07709035448287362 0.02399893401775867 0.4760379505398704 0.01381093774116331
Ni 2.1625369761266007 6.56128222337809 9.158664040916925 -1.1511718454770756 0.002357958709215294 -0.9364407656456454
Ni 9.376915819470419 4.915197449015565 1.2261166527618055 -1.6164078203054355 -0.28411949772758166 0.6733117541268017
Ni 6.630815803076559 2.274618246704116 6.939471216568831 -0.26317066339005646 -0.4487973696563625 -0.21930635790693842
Ni 3.5006976963239715 4.649966268722433 0.6356873643204863 1.3688524948551328 -0.8289943645355078 -0.7896868251851368
Ni 6.119336118821914 5.6666736945966925 4.543912814534541 -0.795229866490553 2.1960303750071923 1.0463639104310496
Ni 4.971628263597945 2.941543546750813 9.549393215125972 1.7144069599597442 0.09486650756259792 -1.0883821638443643
P 0.0731132478690358 5.59865546238741 12.40479334038815 0.7016838775115916 2.256304232196585 -0.20050799425351273
P 4.09783534643449 6.190076532149496 12.497757640365542 -0.4098071044360942 0.8331842342471392 -0.3051138405910616
P 2.734739447193482 8.709164791151169 1.238924514923412 -1.0569041478407413 -0.225917692575869 -1.2861269935304431
P 6.65776539614774 7.811198905657201 5.602418424086608 -1.6136904213742727 0.08075912162693834 2.1175942450864755
P 4.760695522677858 1.2692986118414151 12.499484410588252 -0.43095828459241264 -0.15392988938365748 0.42497969841147454
P 4.073753117474587 6.106514645754716 8.338186855742808 -0.022986176482528157 0.6757972395528168 -1.474876818806763
P 4.781610947603471 0.977217651784773 3.288614380184548 0.44802218205323485 1.9725374898227317 1.5932673776332305
P 0.24539373909036674 5.88149008057889 3.3361191628800198 -0.6773370732361109 -0.7118837008627289 0.09949834990765445
Ni 0.7963160129617828 9.22837546978179 4.289774522298486 0.6024066424758077 0.25718487812026675 0.07256321607970728
Ni 1.7118708180548001 6.88309847518364 4.552876956957107 1.8570149965726794 -1.698792907571571 0.5001348435880741
Ni 6.0502562359764935 5.835203927630711 9.107333686356533 0.34727376178856323 -0.1940874354391496 1.1971879071958738
Ni -0.5486011607712112 2.6089928274020955 10.160779668603386 1.2900648951322684 0.4701732642289773 -0.684341529578402
Ni 2.432740673929163 5.391071004242832 6.604480515544409 -0.28438869222856833 0.4308618682238644 1.1117354938583242
Ni 0.7846995587362859 0.28871815898183406 8.883290013777003 -1.2153404097351843 -0.6764119903186803 1.3301782182133866
Ni 1.4982703396387775 1.1838765683491281 11.08087507180173 -0.7607161489843995 1.7751742118457878 0.6980534798478558
Ni 4.160726804204305 6.909122526674598 1.5062354415909265 -0.035013025740075185 0.4596391974668729 -0.01950181747835351
Ni 5.722569146892474 7.8466054080692365 7.948639108139103 -0.08880924562492447 1.3488804226085802 -0.5016991027514005
Ni 5.534575318862603 2.4920842223081263 4.762564753712425 -0.3677405142833473 0.8868107613233437 -0.6558575632060963
Ni 0.7424885109222037 7.692266812598628 7.112943115726271 2.081027244595719 -0.9877810677908343 -0.9337917580585724
Ni 5.253029199733787 4.848558455239555 6.89806230479094 -0.3849069987603048 -0.7108740286512918 0.6622310708326079
Ni 1.1291062842489108 7.1606520620056155 11.21908565154011 -0.1859375526385056 0.5760093834292016 0.5643350324150668
Ni 4.720888160791235 0.6829362619908377 10.317145381613422 -0.5294479907298946 -1.659810869881419 0.3790001463575666
Ni 8.562185158637035 7.41622857326584 4.948985161055917 -0.5992593550960776 -0.7212669418498416 -0.42984602536484035
Ni 7.55086765137701 6.240509474334554 7.098998289250921 -0.991633608767705 0.6888335039114847 -2.373822158610112
Ni 2.320532368232794 5.39375688961289 2.5115523542725096 0.35492485057591777 0.38304783406437903 1.095677926174829
Ni 2.804082474213671 5.143570296966901 11.007950561823563 -0.2207675158334972 1.1190862777964405 0.46425355631043275
Ni 1.0398550393168804 3.546276082181392 3.60875739799605 0.3715292919018182 0.16951514541642418 -0.8403745813479914
Ni 1.7143026331871494 1.3561089677040357 2.150677340387869 -1.296200061495729 0.12906346515928094 1.2620396135639362
Ni 1.248038377307484 3.36876265145698 7.712417304629999 -1.709994175604029 0.26099242479181506 -0.25534448247741837
Ni 3.8500624210467285 2.798946625837143 6.861965275768563 0.49660086229288675 -0.84138348222848 -1.3477131417733563
Ni 4.424115975274055 6.886011208980222 6.006932723478733 -0.7389841566239467 0.6784218216598574 -0.7891888025027957
Ni 0.7952543623256453 0.23095256825777966 -0.00015334953633095932 -0.7028419023754348 -0.7659324030780164 0.5508861059990126
P 0.5313525138119497 5.677716675999934 7.755619226371142 -0.1437652901458298 -1.1137219281607333 0.5222738415789586
P 8.65473931665927 1.87896736903318 7.832739524846317 -0.45649705229346543 0.5653693872168521 0.35055423231204785
P 1.8525985079339036 3.4674417169953937 10.053684526440891 -2.3334380983661105 -1.313081667742416 0.08265968108376086
P 4.202784502482057 6.31543297264726 3.6045470911997444 -0.6125301040630547 -0.02706471742727597 0.23575679015347786
P 6.82170421702889 4.030252663204137 10.190475035029225 0.6015553502191059 0.05030620445371982 0.43310875527651216
P 6.598476291391143 7.980609310586137 10.033617514630484 -0.4368006023058026 -0.3029191469325879 0.7519468874322018
P 2.3585703123925206 8.501426076076555 5.702181825103811 1.5762772708331372 0.6311184085882033 0.6352668835389381
P 6.859469943076787 4.130238375679334 1.1265728410214786 0.1695223445052758 -0.780194055203353 0.7322879755506937
Ni 4.9490250863789855 2.731327646858545 1.040060110294459 0.07315816935122885 -0.2543072994621556 -1.413230763860192
Ni 1.5523147087741147 1.0349278914927553 6.8393884129670806 0.9598231491253275 0.3685079885769912 -0.5592864142475659
Ni 6.914811885211847 0.9249064046280879 9.180404286721382 0.044816384983742165 -0.12513353397725546 -0.2507887447859358
Ni 2.8554863276642557 1.6635521032049565 8.89484385783678 -0.0695282859081254 -0.11065899451016425 0.4664672761322998
Ni 6.692999493755616 1.8987394778891065 2.365491911582654 0.09981510981712488 0.22840652043599374 1.0674166173362907
Ni 4.247673269122841 7.138847391248024 10.30815492477338 0.6264788529336629 0.7726761495597532 0.3615464696574935
Ni 8.544908382472885 7.2793210108894195 0.5516717810726548 -0.27075387505395304 -0.2601629869119842 -0.8092848019217223
Ni 7.451045269768911 4.206414077306459 8.156029384030575 1.685014622840556 -1.280576238915543 -0.04186398722363758
Ni 2.9294479886484956 8.419697124968097 12.248201686345293 0.38163681264946536 0.09049897462252156 -0.0962613310275955
Ni 0.20219907649887173 5.206842860093278 10.172161107859003 0.20095947996863453 -1.9302688109615078 -0.12376313599229008
Ni 9.163769037907446 2.191491909288263 5.518298490562575 -0.8387581287904909 1.7292720499970344 0.45728123875765764
Ni 3.4552917152707097 2.897335325389604 11.28078751616123 0.7004294362792002 -1.350150033349623 1.3788970235753284
Ni 1.3080533970289612 3.7318743908271577 12.39908311179566 -0.6152634438338178 -0.44592390476330945 -0.17745959707448147
Ni 3.1774659103369043 8.421475616632053 7.897561916422714 0.822686677149925 0.052269498827677716 -0.47189718889861954
Ni 5.998752569218238 8.101338043182789 3.555833660087747 -1.8325576348612633 0.8901632227353444 -0.31102763497233527
Ni 3.218398440419091 8.491816776728951 3.4419258059798516 1.0535282893899727 -0.44023893856339025 0.3439688657850463
Ni 3.2398764494424865 4.054643406024113 8.61418426235882 0.8969640477072618 2.658109035153493 0.4925233497894034
Ni 7.177946986043888 6.256552195058409 11.428534803750722 0.4372014372886471 0.8682646228900401 -0.9730643304059501
Ni 8.214698738885906 9.055344563965514 2.317694948113818 0.3930522535752586 -0.08595223579210359 0.11221476903305834
Ni 4.839502666052673 0.2584683750015667 1.2939125735130932 -0.3071046457688453 -0.015343829445921962 -0.2754767344509191
Ni 6.085998474059786 6.012109404572035 0.2557652491510938 0.6049551199292742 -0.8710887226023967 0.7236871212555601
Ni 8.446329130242143 8.800575633103719 11.221795129146527 -0.9884055887487108 -0.8067021287962107 -0.8693079765528899
Ni 0.10205003315657597 4.94454256147085 5.6414626678664 -0.3222556424776708 -0.46540643896795336 -0.4069999740046023
Ni 7.200532015388726 6.353271290191645 2.6820089841445784 1.9953647721298926 -0.4731261762097142 -1.958789029888388
P 8.782881455834762 1.7840358395009612 3.3933856870657193 -1.1330165147242874 0.6686549720810807 -0.47899163385155574
P 1.8510650125705943 3.4287050796819694 1.2592446895778233 0.48031858019309537 -1.293792994716133 0.8628262254832882
P 4.904317798479421 1.1980954277237204 8.0729593050245 0.25474130167578063 -0.5506498216184903 -0.898946368244613
P 8.472643547719052 1.6285720758347881 12.1236292340096 0.897476725677622 0.48501829966160986 -0.37511469526023133
P 6.582043391373666 7.999401434239475 1.3034556331201506 -0.2925974532916058 -1.5562121246521456 -0.1658343541307273
P 2.07319499182396 3.3589627994310964 5.55641356318732 -0.41511026181656246 -0.040810863368774875 0.5143602431588368
P 6.880702955799535 4.20018935648261 5.696179415737958 1.9298798030532054 -2.1400536025312564 1.166940678275558
P 2.5256124197485343 8.778997810772653 10.035052104079828 0.7565553327384906 -1.4955441173481276 -0.17820958786662858
