# total energy = -340886.9076836564 ev
CRYSTAL
PRIMVEC
9.11761173841553 0.00000000000000 0.00000000000000
0.00000000000000 9.11761173841553 0.00000000000000
0.00000000000000 0.00000000000000 13.34454640149422
PRIMCOORD
 96 1
Ni 6.60318405731987 1.890837655472371 11.1197972194485 1.382553132270677 1.5633333090779593 1.4579419907246374
Ni 4.7372739520809395 0.343664665112988 5.728519719459889 0.002272855194576731 0.9112930627354241 0.49026103611778793
Ni 3.1014832471133293 1.9068755343533585 4.678624915183866 -0.939805311242504 -0.47568750917898717 1.4501795731703992
Ni 3.8845493231188097 4.818575695106391 5.067084406301569 0.16246080967280407 -0.012478849193301089 -0.28550172278708896
Ni 3.891332826181604 2.9557838130495515 2.7832722184256133 0.20262324082430264 1.5657465465051421 -1.498386729003245
Ni 4.884760438026851 5.194239530043549 2.2656106997519547 3.622969489592412 -2.285956250735063 -0.7426783176460822
Ni 5.621126107194118 3.6110027385893058 0.04564367564872837 -0.9288246438612844 -1.2604660984292293 -0.27338822735300655
Ni 5.943661619084365 7.946500015985987 12.11154992603483 -0.7950568312477985 0.13810860608068473 0.8942556476371631
Ni 1.9348027788175233 6.647614178858844 0.519560717179008 -0.28439229177299413 -0.06286527206565302 -1.0421349599513665
Ni 0.8061081041510362 0.5210450643545764 0.17420747038963633 -0.5277382071276395 -1.3505477830086738 1.0667980099156855
Ni 8.028284992428546 9.04778897357432 6.59344644808457 -0.9840825358933245 -1.0269014308310638 -0.12315275610180079
Ni 8.923306221805062 2.497560004680133 1.488330660095465 -0.51674622689251 -0.8167055198658257 -0.49199138854533336
Ni 6.87901004476026 1.1652945913259876 4.64805265158191 0.8167744254305481 -1.1791912135081368 -1.820702278184574
Ni 1.1518643493750524 7.870185606529553 2.5095888697214566 -0.3239032053834228 -0.40797545054399414 0.9602394107271397
Ni 7.933580360287091 3.898672503554654 3.5545866047837347 0.18228530059789896 0.29669733439259227 -0.19014696273416284
Ni 7.756735164848978 4.105514641300015 12.46321894240968 0.7134608155418616 0.027812908447210166 0.2611546614012921
Ni 8.39219622595718 7.928583909106431 8.743559802341975 -0.7882287525823716 -1.5574799356209756 0.4355528459416306
Ni 6.9519874083551585 1.0134225341795327 0.20531676131739668 -0.3994419591516863 -0.6912899358717771 0.7864431214368585
Ni 1.677503778236809 6.983671108816462 9.239816815921257 -0.05796037856486792 0.02297049275324431 0.3020051197587509
Ni 0.2863869170071019 4.772595579588017 1.3741015743805316 -0.04488837587225818 1.2972195038991787 -0.367745913599986
Ni 6.383522557603691 2.1091953367235234 6.585960888925223 0.01859267540052282 0.7377546550922197 2.2109234900689407
Ni 3.2883304625244056 4.380055045498665 0.06431198548887765 0.20614385238305144 -0.22147122676874115 -0.15817632336483725
Ni 6.116403889282885 5.7260971700462 4.426853010781465 0.3560088276687159 1.0672968039289747 0.3496654019491914
Ni 5.92095876609195 3.2443562215676094 8.951975639857011 -0.3659816226107116 -0.9797826229663901 -0.6061825645784722
P 0.46834071024909024 5.730683328702901 12.42846990091382 -0.004838559039223925 0.6374962870900892 0.818979660611983
P 4.091601165931972 6.317383402741449 12.664921482471579 0.8345358631790273 0.10935930186213424 -0.3278300512416547
P 2.545491289090226 8.810056367580644 1.1907828746755054 0.4769537774859205 -0.16539495260046355 -0.23607329295263216
P 6.406973054750877 7.963176127682024 5.462095813146319 0.7045401160134641 -0.009880492338505565 2.727061136843174
P 5.031061634459103 1.2878808798733903 12.575433035951393 -0.7606287314769158 0.7003535887359422 0.4648922183356961
P 4.373034484533139 6.197030929046713 8.086862000193637 -0.9711059211279985 1.198656007100968 0.7260916169319946
P 4.912523565481433 1.3359853989047104 3.527324034208384 0.762606681138893 -1.3980604838776567 1.5177805601488248
P 0.6088859584507749 5.837952029689156 3.630103223221359 -0.5639552804781449 -0.6997272680058529 -2.6214106512911948
Ni 0.45090418974198326 0.21325546577542745 4.926819980538505 1.182916484878524 0.009930885960466767 -1.02507466203497
Ni 2.1268196800304873 6.854283081982977 4.645236221345219 0.5249521597420701 -0.33514586817677766 0.29807338880451245
Ni 6.711574224538281 5.798336007097972 9.189908833306845 0.26992315162254155 1.0388904848721399 -1.3482610438570264
Ni 8.7303684418161 2.2426133479034522 10.083485832999022 -0.046587360841235895 0.5999445540885604 -0.6506351384648924
Ni 2.2572562322029786 5.722869535524387 7.210111552789614 2.1874531748611425 -1.0776187546802731 0.21903999161942925
Ni 0.857987314402782 0.36243691572587367 8.948839181451632 0.5868432408199119 0.19508219525225112 1.1702226914609395
Ni 1.4789677846987133 1.5329075751818992 11.448953029153122 0.18770081518651544 -0.76885497604145 -2.3002377003547414
Ni 4.11835223849412 7.123662917991384 1.3174666178955152 0.5153115513285125 1.5016006079548525 0.1822045679586346
Ni 5.99813934865452 8.103158819245301 7.803717305886979 -0.8308275610895045 -0.6017785219735056 -0.161908793824076
Ni 5.820874743080805 3.3711001410244665 4.5441647609930795 -1.4905633763040846 -0.7701487551522092 -0.17414930175432589
Ni 0.920897011220883 7.468709813029532 6.8243207865999755 -1.1069128756587003 1.6543750435778282 0.07409636489478207
Ni 5.631784595205416 4.868521971689707 7.121103604403041 -0.1062320690870622 -1.1887760289830944 -0.9955949074082981
Ni 1.2466783928562306 7.822938142992726 11.660518089729837 -0.7656611516945008 0.07165793065661853 -0.35073729485713145
Ni 4.915833258508038 0.5543608173000736 10.5063743374439 -1.128055571174586 -1.6027159246406397 -1.5469582101540453
Ni 8.255204111012985 7.13480463941979 4.596034853633181 0.32985633764306416 1.4778004202114614 0.6779585088701936
Ni 7.557177998806806 6.342739480722135 6.776253649776393 -0.024473045440699788 -0.23619336347026418 0.3479797867166523
Ni 2.722008250509171 5.109062802069594 2.3055640739739496 -2.1521912663350546 2.0761269790806245 1.2423778734689506
Ni 2.4760150883664473 5.768111124499636 11.328305144841137 -0.8787184712335124 -1.5510364939884773 0.2746771213677592
Ni 1.2141467545120779 3.6335141217372073 3.5248686613927784 -0.3001346422089154 -0.15851108099643668 2.6072251038194323
Ni 1.9431180406364323 1.3443097783352627 2.6090319246340603 -0.792346374295171 -0.901957387156795 -0.1381188904933299
Ni 1.8368066888727494 3.4201346564434276 8.020939844488511 -1.2356976332352976 0.27497536933446837 0.05986376623516787
Ni 3.985891576536763 2.8130567203815673 6.91892056620753 0.2858395657424819 0.3387940064523262 0.15453924083288226
Ni 4.280381315011479 7.146101360246137 5.861992436309679 0.4030157925458736 -0.8988550940823875 0.42793003928905005
Ni 8.641590257242946 7.448003716987051 0.6987363741532097 0.6425227937704031 0.23170216046813 -2.460791008592188
P 9.072953581710493 5.826901484377185 8.348815541518379 0.779804018853786 0.27042477384930846 -0.2503182329074205
P 8.715953497807662 1.5436390040863466 7.67762438390147 0.2876794471646981 1.7540955367986177 1.099064840369191
P 2.1645210041765277 3.646123778640224 10.483088869067462 0.37195172415121747 -1.37454157482011 -0.13046651615439467
P 4.081389440891207 6.516129101347345 3.6019735677787077 -0.16471438159367116 0.506714810798437 0.8329515494110429
P 7.135707282972501 4.0746515258866305 10.39301324835743 1.050323666409746 -0.788419528436939 0.5128463776174716
P 6.623343096663739 8.048790501014869 10.08743649412417 0.4750501327053045 -0.13095039776934866 0.15430295645236006
P 2.47393627291172 8.664603109031242 5.794388993017484 1.0092942592722616 0.5339721038524933 -0.11331931495114676
P 6.941237744227424 4.295616844067835 1.5505966535315323 1.0585938768383383 0.1992080444951666 0.7245990915468682
Ni 2.859975949899227 1.753307601441205 13.196915886648883 1.3875469859408425 1.7388946606884632 2.3680256065329925
Ni 1.8068188641771448 1.1786518923837745 6.952334789358777 -0.03003279891666441 0.7220490714315048 -0.6505073546377764
Ni 6.945203905292365 0.8649987577566647 8.92221666721366 0.47722477175912004 0.4086763332657607 0.30042774796930194
Ni 3.0750786437936357 1.6505247653835724 9.216357201162428 -0.3999685210791176 1.1463093751784517 0.10748933853293101
Ni 6.480141888190292 2.208230834395661 2.275485073161909 0.16391682539304028 0.34538142986185677 0.18713260138787124
Ni 4.207312775300145 6.9212792923397135 10.33807325587695 -0.10612382564397206 1.8177750772354502 -1.630228785348928
Ni 7.857667125742973 6.52126231670266 11.344358523661917 0.3699138677855823 0.026114437698864703 0.19746303677960184
Ni 8.203115195693437 3.7660933126459306 7.80411756903813 -0.2171890544536195 0.9554553590749352 1.228362275916149
Ni 3.3435376010260436 8.856145894438741 12.264772301465692 0.749136157456284 -1.5449792320508036 0.4017292125239662
Ni 0.24271993956269308 4.736498955091239 10.326210331367538 -0.19499323508287064 0.24124403852029416 -0.3380352739094307
Ni 8.76910005607786 2.67956576830849 5.828283714302345 1.2239824016808984 -0.7454322262421356 -1.8697560982884314
Ni 4.347824288338749 3.0706566021465185 11.261582462833704 -0.6051824054487319 -0.24471939866340436 0.40174746735641126
Ni 1.0976145600959861 3.539155958838206 12.611036397658253 -0.011196382936451685 0.8914356616898648 0.31523755928862485
Ni 3.524777485276343 8.365654858462834 7.933479154797848 -0.6521616024117478 0.1908038795918714 0.4902337824242783
Ni 5.908148521732775 8.067527192942345 3.504091447979478 -1.0196154386926117 0.26919810053105897 -1.8975728633903837
Ni 3.4346498941799446 8.637086157091035 3.698281076047098 0.08099874844157018 0.6062730674097495 -0.8303282528555829
Ni 3.8548988500540156 4.3194593985156935 9.275220501933125 -0.4222111345274019 1.4229089103799044 -0.6515671633608585
Ni 5.64088397162567 5.432546545570768 11.236321208014113 -0.22774266159974974 -1.2411725403069398 1.830753491772989
Ni 8.129618128234856 9.109150499935348 2.6169460115406538 1.1485971427713637 0.6501075480961965 0.660403787815882
Ni 4.585629835225573 0.4919753831514761 1.4891047453240016 0.7328019390726347 0.08246941944982572 -0.5311832282534464
Ni 6.324577198328202 5.992787310619761 0.3410862045401947 0.08076297828168026 1.1647626967876326 -0.26766957970167454
Ni 8.22882686052822 8.949938765415844 11.76496580167358 -0.10106749416698724 0.6303267659248435 -0.9456653695677067
Ni 0.4898482443550381 5.382354093473078 5.707809064611586 -0.6643653435667913 -2.2237332402390995 0.0999197537157892
Ni 7.864642098650281 6.30935078688349 2.503677010331785 -1.4312624245509222 -0.8986175241502846 -0.058494653801783134
P 8.879468745022919 1.7840521879032238 3.564355213898624 -0.06981470680029267 0.47861985233443377 0.8987445366464523
P 2.009767781750714 3.2529632469591117 1.665359119527613 0.5305479086622926 -0.683827823166777 -3.869861213316787
P 4.9189332464668425 1.289120875056912 8.231009616755685 0.5753843482506928 -0.5840052571504846 -1.3660880447361183
P 8.632727938725424 1.9416683403851094 12.517878112451543 -0.10925285819125702 0.33541943355313847 -1.0932256079795948
P 6.766644598865266 8.122351391754954 1.465377984544016 -2.172494239558465 -0.8163193401710005 -2.053116120007748
P 2.256636234611218 3.6633013589766548 5.706181570933214 -1.3342842699619601 -0.29447615837155733 1.4190846515378075
P 7.357949066783802 4.341186667062251 5.700336270108541 0.02963736325045863 0.25457803662503903 0.6789900354585016
P 2.643250321132268 8.896527796407982 10.123359883999719 -0.094612739680579 -1.12354791311222 0.9194483448527067
