# total energy = -340890.3267884607 ev
CRYSTAL
PRIMVEC
9.07389383358875 0.00000000000000 0.00000000000000
0.00000000000000 9.07389383358875 0.00000000000000
0.00000000000000 0.00000000000000 13.28056082870067
PRIMCOORD
 96 1
Ni 6.214074600979972 2.0253656579523933 11.101300045110857 0.6537441164075193 -0.009840383129189504 1.879280235728783
Ni 4.838118438986481 0.4313474980969074 5.899716813950679 -0.5487806296202354 -1.0362885284729186 -0.45910492222995763
Ni 2.6394686336472697 1.511302359952425 5.003637148171821 1.2929195909722444 -0.2853518274727859 -1.435153274964896
Ni 3.7752116085552894 4.193826619056597 5.114091841019402 -0.313202274026151 1.4669002283591899 -1.2279994932600915
Ni 5.008154132439986 4.628611308075122 2.437779569520666 -0.8874921036610843 0.9334166341073407 1.1156911360719624
Ni 7.3626208398542055 6.434261704739122 2.7260072649528584 0.5985800696408659 -0.9452509077381074 0.13536035391158624
Ni 5.239620086029049 4.311923345151765 12.119520671392923 0.3868960041658756 -0.5007891893426214 -0.33031527955735374
Ni 5.6284182819357556 7.970571715641858 12.48842798498897 1.090301235243948 -0.9392805490872855 0.023379812376521023
Ni 1.8068753723092457 6.357451194835504 0.5349886041888327 -0.6113615376762503 1.3171715215410735 0.36712884884127744
Ni 2.409772089323559 1.6284644749997408 0.3628232678913373 0.996890229180954 -0.01835510546842 0.4573365174756253
Ni 0.794205246784185 9.09911909287078 4.708583162532837 -1.5314647425041368 -0.023366699750398467 0.16787169627573023
Ni 8.4277144786595 2.453889360339672 1.352001082708723 0.9872928153005062 -0.006298945634834313 -0.7366683640065764
Ni 7.130075092918594 0.5320704399850519 4.9071136042734445 0.020600449859170974 0.49768406805473636 -0.7429932777833398
Ni 0.7767788339938836 7.5131295141331575 2.6993272953994487 0.6873162959360098 -0.3014631312123518 -0.3450821534538831
Ni 7.779330332685133 3.7748668005958876 3.4916714865922303 0.3711968482630639 0.8880688021001609 0.6526485693504953
Ni 7.815535168422338 3.7745582882111597 12.475639239252628 -1.2932916295996824 -0.2811964105435157 -0.3674191263881866
Ni 7.703009813039611 8.618846974892202 7.126667845846083 1.1035691559974476 0.8053556420706453 -0.5443976700611914
Ni 7.062456437301138 0.5736597242251283 0.445261406648143 -0.8773652996397278 0.45065447746975934 -1.1354462072117024
Ni 1.906180064617008 6.540516999596935 9.318849779778407 0.6055968672783312 0.23332992587954007 -0.4256931795387314
Ni 8.774627581392537 4.9445189161429886 1.1209243991580373 -0.31904510596017316 0.07345127511161545 2.168292028551659
Ni 6.340737082698178 2.1060053509841077 7.025416803346433 0.5847292798007027 -0.6009629680507457 -0.12743672818913537
Ni 3.1075272907480835 4.393170989059267 0.5520366356131586 1.3688301262576297 -0.4484998930206018 0.2017624354859041
Ni 6.062694832908846 5.553540511383521 4.666071970696042 -0.15363189852726444 0.40939495659934005 -0.046719001323093735
Ni 5.027808186125897 2.7696245644278386 9.258197152330236 0.5783444593202813 0.5577882324354846 -0.8504455924307482
P 0.12290679712882585 5.685275299662404 12.433035493700416 0.42912688781062874 -0.3861542409038446 -0.5415128923142287
P 4.09044774849169 6.041362108894268 12.734742458177124 0.4765061484255406 0.9944607938038551 -0.09189534074941592
P 2.232604315446635 8.45966365826619 1.1275292863593185 0.22224075794491402 0.6370417160511738 1.7999845860212487
P 6.452391344288731 7.663275232665371 5.583041554478458 -0.6663582056271039 -0.5102166533041084 0.2721924072726925
P 4.916798170985805 0.9733112043486948 12.754411030092905 -0.09885248879353944 1.2099187244989809 -0.7693997928013265
P 4.176395669319461 6.128807222177335 8.392663842196923 -1.893991573797028 0.40864419447624456 -1.0981978643832053
P 4.650143657750407 1.2431052847933854 3.7582924264210558 -0.39690556588307774 -1.2901520555294361 -0.08068713073842233
P 0.09356001022625234 5.629906400497385 3.569084503035436 1.2140877682750058 -1.3093859640583838 0.24463172404560446
Ni 1.3103156151957607 1.0569725039720106 2.55791519952314 0.34207344853454635 0.22319617987964788 -0.4732472751686108
Ni 1.7461891714545021 6.33965728935163 5.171649363337256 1.4214120141194038 0.3145788426587034 -0.811111570717816
Ni 6.102955699115857 5.625351305875812 9.056479051743894 0.7424584883257922 -0.05999566382734184 1.8220161118999911
Ni 8.509216191589719 2.261631701292078 10.075071707666366 0.31758729046772405 0.5373579896055907 0.4575404059563153
Ni 2.6968519372066893 4.959345658397273 7.11273578950751 -1.0390324097666426 1.097856936104019 1.3798426753180495
Ni 0.42312201348643713 0.07084805437406586 9.199829331307788 0.6884244413985241 0.42499358236854545 0.07786457368796267
Ni 1.4734914450359002 1.2729402471753226 11.423818892105574 -0.18845414841277222 0.05295289804794751 -0.8239999966447099
Ni 4.020497102201436 6.84925623166671 1.6610397532695569 -0.09828273233299847 0.8717361263784084 -2.074269871267228
Ni 5.645894601141234 7.735013436008313 7.856939345231578 -0.9890162257495161 1.0449261495432587 0.7277350660726886
Ni 5.68464920099928 2.9593324593545915 4.578075164677931 0.12457611881188867 -0.10850389584037441 0.8306612107149695
Ni 0.903228986600248 7.795990001460448 7.108938365007254 0.24134713975706176 -0.8799518294199813 -0.4220620105440473
Ni 5.14872689315196 4.384396533881855 7.122842292275455 0.17114059683498914 0.6566273514925852 0.5852069907680695
Ni 8.264738274480067 7.109568093227846 9.02168429908277 0.040054959039356824 -0.24409744880868928 -0.09684574277615579
Ni 4.618303364867737 0.3454957605420224 10.135471173481186 -0.12569274891483515 -0.28879659148827685 0.3905932505118047
Ni 8.531510748333154 7.071394222564583 5.004752329703676 -1.1323655114038498 0.46348711045805335 0.47559572079612933
Ni 7.142252258221684 6.0126250876462155 7.01985178435956 1.1627760053749072 0.20175163685262676 -1.442069542468755
Ni 2.209792546764095 5.333689141690103 2.8063420751573123 -0.3002053475458507 -0.23437379376302214 -0.20012849942690694
Ni 2.257630114184282 5.482192485468323 11.67974806302484 -0.5044347565150087 -0.645629714830501 -1.6645815517971847
Ni 1.2490577590399032 3.2727084510889553 3.8975258804275645 -1.7222771067364404 0.3631801486061745 -0.15526532036562937
Ni 3.499310797671717 2.9464203086643552 3.0507700858517883 0.011650696865050903 -0.7149116890557752 -0.6670130656022835
Ni 0.9047987702048936 3.446146854668137 8.281120282109125 2.4261597916715636 -0.5413938502378611 -0.07057215379160749
Ni 3.6682213283103313 2.5978013139216447 6.953223090541333 0.2533459639901508 -0.27670135088663955 0.6602214966017469
Ni 4.295390710887808 6.6790118386588295 6.062429875213726 -0.37225074344887504 0.6044498981580816 -0.6185778529190314
Ni 0.35766657411954444 7.454702712801864 11.189961060145501 1.1062916971349335 -0.3422696237057525 0.0254282102651175
P 0.38732278079621285 5.64835362632539 7.841361284581545 0.16932179845869547 0.3271155416731334 0.6312695894540871
P 8.45069865132174 1.6977073575838537 7.87316800405764 0.23840554063023456 -1.0140669980705566 0.408079066001394
P 2.0172626709064474 3.3200651021447127 10.458574379228152 -1.394107669877496 1.6374816102565994 -0.10246951672083641
P 4.023718334453744 6.21028171342655 3.6431900852364834 -0.18243956678757614 -0.7615093343096563 2.482832047552627
P 6.880352465268564 4.005488882073783 10.294971168996229 -0.6155560353735721 -0.7960539050537452 0.39687574108640683
P 6.443580593536644 7.65134306249133 10.113106747756502 -1.1159281917834332 0.04016860179908566 0.2824205127586039
P 2.6091527549009035 8.426044882224499 5.626083569094858 -0.21054686654675353 -0.5269383369341635 2.3982813200937403
P 6.647861161694964 3.827513531660365 1.548487176205825 2.299051907576757 0.26797168432312557 -1.5923456371499092
Ni 4.87816153174545 2.7615578729565664 0.8963473456420785 -0.5505978853346324 -0.6037107059992118 -1.446432190312825
Ni 1.510131827669192 1.1782632406384814 7.0528671464722965 -0.486406181148072 -0.11766910727941025 0.6990068449000606
Ni 6.9067030524818085 0.5557950423706398 9.176548442322588 -0.4284031222707267 0.35630656141479283 -0.8822766208984161
Ni 2.6539777896231573 1.7253192160170157 9.204557737298428 -0.01989365360013348 -0.9706768040103799 -0.5386425127449692
Ni 6.374573632187912 1.9222136347291987 2.5323903366337275 0.29922652857234916 -1.2548958034303033 0.7187354336772396
Ni 4.171368732227127 7.105929461866789 10.651328380259413 0.08428950337769998 -1.0361293771872349 -0.6917185387687637
Ni 8.467113324968006 7.334618803993299 0.40909286648561194 -1.896580417570127 -1.1532711512082654 0.5604123003218929
Ni 7.800726573955392 3.8730463300887594 8.111115439894094 -1.9703456243777355 0.2329936255860439 0.08741416504961075
Ni 3.3488293450737703 8.4438024921337 12.542971159830161 -1.4186007699228536 0.1897348148974087 -0.213868988941451
Ni 8.952103867654188 4.851184845869081 10.09942785305128 1.404465358962736 0.0036831052785420444 0.2763640221518789
Ni 8.871582135240164 2.273073881208022 5.7869646112262405 -0.7298145743095367 -0.23153683853485932 -0.7775283354457319
Ni 3.686314672285265 2.357125358259082 11.359195528788081 1.1716895058144532 0.30343053935136777 1.5384817972519182
Ni 1.0498132018675856 3.615266084861126 12.920405211306472 0.5676224449170869 -0.92021453359477 -1.0076672651918002
Ni 3.1397940566331712 8.573913053445928 7.928614031318841 0.27516768785093254 -0.7619358803241135 0.07239043794726888
Ni 5.5236692534269105 7.827839368236787 3.3482150424724146 -0.3540843569524934 1.2705646203158119 2.162366921316476
Ni 2.992452171244516 8.501040613394425 3.5326954672567608 0.8163041706623491 -0.261162374710776 -0.9401938049301742
Ni 3.9350663933127685 4.687736799218888 9.981749433454228 -0.9737209901533423 -0.22515844581234123 0.21729704078639353
Ni 7.2627263444579935 5.9305244977338765 11.393061114737552 -0.9873524648938481 1.1782129087552675 0.2950155758147951
Ni 0.5600624945629225 -0.011235295140302559 13.205126754225166 0.48606216754509196 1.2884726109444842 -0.0421213546500823
Ni 4.586063820663655 0.40039463201501424 1.6004406617940306 -0.483716807241367 -0.7486857001824267 0.16978099748330117
Ni 6.304731872621679 5.7841081494994055 0.605934656614518 -0.3415800538378956 0.14229436202725818 -1.0251857336915378
Ni 7.676740890869384 8.979352770340611 11.326604824899029 0.37708158917861506 -0.2368757342492695 0.6122256854487585
Ni 0.1547797560287021 4.620671651115208 5.910513840026795 -0.8020348052275285 0.972132819730616 -0.1688245471073028
Ni 8.026122092680247 8.946723048708785 2.5063999829991217 -0.18122420632323627 -0.97684719448715 0.054833660010428144
P 8.463238772371568 1.6448791486460075 3.4481775920711413 0.4946527374275804 0.9326260198852454 1.9581909912930726
P 1.708831951221401 3.2577728221106494 1.8151607446179279 -0.2921526524447033 -0.5313629483644203 -1.806685652190508
P 4.658264792583689 1.0398772883006084 8.070543339134252 0.7446025312519885 -0.691147753866958 -0.2421416106338991
P 8.450335695575001 1.65514172238505 12.296285564390967 0.4814138701398032 1.090601025872554 0.4378627250217298
P 6.389001123120782 7.844244967989384 1.4239951698531168 -0.06074925416391474 -0.13020117830814995 -1.2071100514055921
P 1.9434737675944298 3.3436662995764097 5.904510551975733 -0.8076380103469188 -0.5447475972014425 1.06145680020843
P 6.973033215198343 4.015697012450814 6.038086433279949 0.6534607808391456 -0.15979688968739578 -1.1293485789543969
P 2.4732802711091977 8.621460256268723 10.202896555163505 -0.9136574492025425 -0.09009196899209 0.2510129449816
