# total energy = -340854.2161318459 ev
CRYSTAL
PRIMVEC
9.50835305769845 0.00000000000000 0.00000000000000

0.00000000000000 9.50835305769845 0.00000000000000

0.00000000000000 0.00000000000000 13.91643581899855

PRIMCOORD
 96 1
Ni 3.5982650118905233 5.77726572530777 5.488795609435588 -0.0691261653737003 -0.37877414638968965 0.3930363127356586
Ni 2.5271110221393527 5.900284795375416 2.5822917974702055 0.12252694959234384 -1.700816879980135 -0.673342350254421
Ni 5.134510576327802 6.549125290223626 7.314742621448075 -0.1067131224885388 -1.0712966691169872 0.2986274615357696
Ni 7.506625937532489 3.453376730108888 11.910520380566432 -0.35070027097160894 -2.0898924082958334 -0.9785472078973921
Ni 3.0082812216117016 8.035775285834745 1.7890973902744167 -0.6071217885632899 0.1661691117623267 -0.04655547916203595
Ni 0.9269189318150792 7.453635886714202 7.575258179738029 -0.44901154254969766 -0.04256769815888153 -1.078304210783072
Ni 9.017465182969863 3.4794106004014536 9.917116060283474 0.1847291341527012 -0.5123684095397887 -0.7408196671707886
Ni 4.533506605015713 8.70989849109491 6.151718925792313 -0.8812998588074435 -0.5465705093427942 -0.7566157536627808
Ni 2.48537886117731 5.183602202449246 7.505788251640313 -0.08159832969878204 1.0908915605297793 0.564157369186622
Ni 9.529841796722781 4.960346075908179 7.0668075649054165 -0.3806554225728025 0.16365920085627944 0.039053771468352094
Ni 4.083114943942573 1.8913445125549413 6.3402030057081395 0.07464889496414241 -0.24863133212330082 -1.9028605941518844
Ni 1.6923537026634816 4.150624249668366 0.10231368075095866 1.2738096096156708 1.6268974069828497 -0.6332300556145676
Ni 3.4687707534849523 9.410550000999432 9.747822689064318 -0.6614101175932093 0.24766871109971544 0.5310690712730854
Ni 5.760692666169733 6.794307678596198 4.999381667982357 1.3605241774950956 1.754316137449856 1.0968012411459949
Ni 7.8767861166740465 3.935630881814017 2.944369876630507 -0.21412121416157318 3.459621392218648 0.5507809478797159
Ni 8.3318083456188 7.717873014336701 9.951002879251947 -0.42704429424998713 0.8571777689482593 -0.04661358609348101
Ni 1.2709339929349177 8.19686580099057 9.491732318222928 0.6924700722228074 0.9055651591127115 3.630282735424374
Ni 0.4702536594859008 7.171370921957041 1.8225106932675157 1.0297481562512396 0.5791443295137575 -0.5453677472839445
Ni 1.9498779331250782 2.2209705832022673 1.4763248751762408 -1.385152260456421 -1.166172946871598 -2.46624200440443
Ni 7.954764118963795 8.406135140387605 6.957841840452238 -0.0015784002307134104 0.8921329448672055 -0.12018827415683817
Ni 2.2077634809976017 6.420153991228607 11.138882360273593 -0.588206953936658 -0.8438512270426821 0.6790933938055853
Ni 6.849589242467993 5.054773528748015 13.299854285720887 -2.3312590884369206 1.4943554963566652 -0.16853272689849685
Ni 2.407543484181349 0.17826069885718213 4.936952675221255 0.5142167756024371 1.0551509125950602 1.6572770477159715
Ni 6.228456088026117 3.1332970457923643 6.6743227239450444 0.249081532286842 -0.7546159496239326 -0.08058094417786123
P 6.532913548496516 2.094718673142118 0.45369771538311937 -0.05749295201014614 -0.014461169730652515 0.7111427089316462
P 1.6251866976427787 3.92678811359923 10.679681210220885 -0.20346373444772703 0.6849645078743817 -0.3026160138698724
P 7.338851050274518 6.576690005336171 7.798463912008625 -0.0017763751741324248 0.12812835493952127 1.7486121450865433
P 0.6826997395932151 3.6710419451335103 4.552135370054864 1.4726582138888897 0.5719498686478472 -0.8791766418168536
P 5.3029795733488685 2.694667217280183 10.698913755670398 -0.1689423036320897 0.09672644358947212 3.4481864109088294
P 4.39272593169514 0.09105388922413017 1.1690082529830594 -0.11936706380712345 -1.8845340279285545 -0.7184901504356529
P 4.425339582207741 4.230399330659829 7.092998323021148 -0.8336745436199965 -0.19408589277725283 -0.004583505605624365
P 8.11520806612112 2.431979951183501 8.243163873024375 0.6210779936330658 -0.7776167813944801 -1.0385750105142502
Ni 3.6085245246902597 1.6390879096105404 11.481407462491005 0.32383764225281003 -0.55871100136007 -0.7010287604260959
Ni 5.673995504253147 7.67841334972233 0.5395790606192452 -0.9675554847725789 0.2968490294791081 -1.4806098646357984
Ni 7.3665869157396076 5.264832061437336 6.098293392410331 -0.5630512806066367 -0.823832360718594 -0.20470943392937005
Ni 8.881552786343882 2.61543411240511 5.74910198396132 -1.633219749656452 -0.05827019649580287 3.51639340690237
Ni 0.28330708023709744 3.8013919553018027 1.884911160969861 0.41537277144932977 0.15634775479653074 0.12472601412619165
Ni 3.414905934198106 8.012517854594565 13.356145636672693 -0.603752872091057 1.083256669692341 -1.0347782624759791
Ni 3.624622166182339 6.230509892256648 9.349409390058872 0.024742754162318678 0.9895088491152185 0.10646449681284245
Ni 8.940257357266564 1.3963872013498602 12.763806627375805 -0.5239522577226461 -0.5692113866707617 0.28593803899355913
Ni 4.206913698949588 2.174569820956934 1.0735025529221947 0.2852744372676313 -1.0176475163329635 -0.8418167131111567
Ni 3.715940387617621 4.06967013291493 11.66663493153203 -1.252617548919088 1.3581505350565966 -0.7751845178039036
Ni 4.465341222938502 3.0869248086057888 4.039482063231999 0.6830688335135656 -0.4289158002410871 0.7108316054491306
Ni 5.219619843306894 8.165887587180059 2.855847110953448 0.04534243269054127 1.0621653962396804 0.4620313518481333
Ni 7.640912405809298 8.077840239148957 3.9168918198810045 -0.17348518580776573 3.1552413444698173 -0.10276467936375205
Ni 1.677159354698719 2.36447064545771 12.413822222293339 -0.6966499146321099 0.5106876794032559 1.8490211797339253
Ni 6.024197650617461 2.255181637005281 8.906032040934171 0.8514390666922691 -0.7064640725090543 -0.7118541331763741
Ni 9.102099032302998 1.9205731894283333 3.672435869671454 0.46977885700403615 0.048891840604696445 -0.48524687073264816
Ni 4.824794996693124 4.226653039609693 9.321590801923387 -0.7802493339213208 0.9310388779037836 -0.8133417455999155
Ni 0.22926065140949592 7.4131398116316465 12.305441261544685 -0.15209720705029287 0.4600577730615303 0.07082360768078125
Ni 6.73002170450999 2.101754854302271 2.8661037712473085 -1.062726668059789 -2.675850161186998 -1.2191631259153841
Ni 7.505114109418347 0.34721652354770804 9.050483889316817 -0.3525887462435734 0.26589346163785815 -0.7556737014644856
Ni 4.780495580442919 5.746430136791046 3.465415255739793 -0.691961508017505 -1.3065220122470274 -2.435438131649696
Ni 7.71886188304029 8.118716648348277 1.516153463883874 -0.3453983991427213 -0.5081646558710861 1.5499769423757113
Ni 1.3171540964747872 3.3817503075691153 8.231126298228764 0.12059707955948264 -1.1738816283697655 1.02906938501666
Ni 7.160074998689119 7.387771526043419 12.091531845923118 2.278690313201269 -1.044791423737607 1.2357937924935298
P 3.242234245186786 7.957825808603753 8.054304213168244 0.8193036196103051 -1.1405945841818614 0.35641660463009583
P 8.425570213754296 0.5882684834122115 2.323598990434849 -0.8516540109165526 -1.9886009710434978 -0.8570666972916916
P 1.2947334002914892 6.305255054553894 5.907680392275912 0.9652777444819957 -1.0214193246705698 -1.9036136702678248
P 7.903533113435546 6.182245492839166 4.2690888186877505 0.01950695968467608 -1.905404186509344 -0.028534359994266987
P 8.975466788126086 0.433639844900224 10.659238251444764 1.1674065621683831 -0.48349517814886406 -0.7806360278367781
P 6.680188426860852 3.302051293401005 4.639447722405318 0.4181217949493766 0.17837773801337667 0.10127138264767721
P 4.497622081098934 0.7817358910929512 4.1032469795782385 0.09367917212271608 -0.6869784529806169 1.4950664063807606
P 9.203030198539517 3.4433168927204534 13.570473419822703 -0.034781369345243326 0.34879868307352185 -0.15921659170389355
Ni 3.574779380180283 2.1829086464670073 8.508481149538488 -0.3791492703409212 0.09563732429035142 1.1382952466247236
Ni 0.8295952346760777 0.05560389703575435 1.009410549235537 -0.332735201852756 0.08619546215116122 0.6766431324928798
Ni 2.636276422003833 3.6275887722931066 5.6811904749070505 -0.8302408353480991 -0.6398398476216013 -0.24023976562549595
Ni 2.4926242261016847 0.2611031745003555 7.410863511942807 -0.20687815944591467 0.8059575373207023 -0.3705129348221619
Ni 7.176743141356346 4.396900098626636 8.454582100181133 0.7537536016236374 1.1154114000480146 0.3945882306038107
Ni 5.738899521279098 0.6505434408560243 7.334239499108742 1.2858881380467597 0.20298525214941168 -0.12905652318074548
Ni 5.412563340741791 8.43282508703159 8.762302827373377 0.7206383071269072 -0.5976542153924869 0.703430427889053
Ni 6.102546478671055 6.130586611429557 9.866502146859677 0.5068945309094108 1.0539520071909527 -0.055046804462498745
Ni 6.899631703881352 1.1077231150781275 5.236156770703838 -0.2605177991482417 -0.4689920994366826 -0.43819696843269695
Ni 3.141322095656106 7.632250296299975 4.24427582091 0.6192555957123463 -0.44014689307021615 -0.6080471285910367
Ni 8.7558808858118 5.533271881050089 0.32474162975277093 1.6441873044115491 0.7371082797574724 0.8705971276779588
Ni 5.419494930019833 3.9118695078691226 1.7867031870093806 1.0279010757401716 1.6653078884402481 -0.31076409689830353
Ni 7.051023699059669 0.16734701137660984 11.447520643522532 0.25914534428074726 0.899505840292509 0.879805533650104
Ni 1.4259011288108263 1.784385050567698 10.235691523168192 0.4156679340922454 -0.5728839504263423 -0.22641057305188747
Ni 2.0307084412905647 1.987350351979352 3.6223924574228046 0.5591419182499016 1.0405976973712336 1.451187188499307
Ni 0.4338804062290779 5.698964439018771 3.667871860270274 -0.27910944610749994 -0.2772785635463482 1.1982831971425816
Ni 5.297445711949937 8.333890674908089 11.545436711048396 -3.512345719195557 0.2538748399104273 -0.9981202449333134
Ni 5.348106216303037 3.2116553821988783 13.021914670706636 -0.06012627586793516 1.0099815151472735 -0.36205683363500873
Ni 0.1722000747065315 5.96690031592681 9.416598264291288 0.71080640863815 -1.2124134658963763 0.07217060862697894
Ni 3.9471835306107548 5.7689744415622926 13.807442492943734 0.5305653921637895 -0.6276466479895191 -0.24086865745874644
Ni 5.048583590997663 0.9513582513231078 13.035789259286224 0.9401243851448196 -2.4071009752678996 1.076550461316759
Ni 0.4289294068640892 0.7684213445002996 8.537969404446573 -1.537988145444951 0.09086329994047578 -0.30871287079622967
Ni 0.34496874891762674 8.253155250271794 5.357758145351243 0.08473070468017666 0.01533868723959939 -1.2912157209072601
Ni 9.242784622094382 4.885077954200381 11.649754752594706 1.1839775791531866 1.5825913859766227 1.3449859726501803
P 8.609281100504722 8.825434487415203 13.756355063544564 0.4982376265653613 -0.08046704430781626 -2.522268913392011
P 1.9527304390008158 0.030559846282069543 11.788376078967346 0.8592778460103976 0.01908401321464455 -0.4610059959074125
P 5.336582092565058 6.175408987090315 11.86854860911083 -0.7280011752498817 -0.8823239291965836 1.1259873757916479
P 0.49601749255556343 0.6683392741794597 6.439914250265133 -0.28779231859347854 -0.3279992298296674 -1.4878356929602763
P 1.4601407076725972 8.747713210654272 3.311290559932519 -0.6676234454927727 -0.5088575681730527 -1.5405865022997467
P 6.495308012701375 5.9024146664293005 1.4143408733317533 0.28379296762609835 -0.413451643167217 0.5164127548124913
P 1.7761318002338968 6.307622634430755 13.37855111949132 0.3697387756602987 -0.029620908190226405 0.5273018909211693
P 3.2270874389866187 3.573029843243164 2.408281332367873 -0.14269262590694134 2.517509801440471 -0.15531828509075188
