# total energy = -340875.8946021725 ev
CRYSTAL
PRIMVEC
9.14699061808616 0.00000000000000 0.00000000000000
0.00000000000000 9.14699061808616 0.00000000000000
0.00000000000000 0.00000000000000 13.38754536154662
PRIMCOORD
 96 1
Ni 7.662854706591347 6.841701928094254 12.152570843065961 0.44919511931541345 0.4982342841312516 -1.288851591550458
Ni 8.556250416087403 0.80820063994372 11.193339669418847 -0.00045971324523791797 -0.448782200147711 -0.5428894609467813
Ni 6.884692783462087 8.623590560176334 5.603370462602977 -0.010982724263748826 -0.793222349142221 0.21865252637302343
Ni 7.4067572664661245 3.752552854181458 7.511804964207895 1.4037148539499569 1.8061467489679022 -0.6337486471221989
Ni 0.2061786541498174 3.9260072351049025 0.10854093341516986 -0.8561485563527965 -0.8651602729331036 2.054108051607372
Ni 6.384489607762116 6.781834875246923 8.395664021404697 0.5015990868384265 0.2798211274625439 -0.16610534840392682
Ni 7.114739594632503 4.610339329646245 12.782280769114848 -1.3376501011103994 0.8957222048803607 -1.5051338179190916
Ni 0.8966319147362988 5.984912474594381 2.447055952119873 -0.4615780663607986 -0.37052861855144575 -0.31252813077726177
Ni 6.152842073253534 4.030045105095055 9.31979270429445 -0.21203476394618967 1.0076304984165936 2.5513938557824254
Ni 5.841734632238494 4.838977504279079 2.5142479149626427 1.342675836459765 0.4445432223656989 -0.8149733676660673
Ni 1.1162072511779728 8.421798802672136 8.323304923626333 -0.024119775866339108 -0.5679957690961056 -0.07122110022951605
Ni 7.675184849790461 6.363113090954749 1.1078350107698502 -1.0387426464403657 -0.8605662258045178 -0.4069722060904604
Ni 8.758362318259234 7.805547758450532 4.375759269982147 -1.117314016387366 0.275256648020313 -1.8228576339646798
Ni 5.69634321818069 5.886847589403207 4.630430694287828 0.20856377467845372 0.3606980056142691 0.2972732615007203
Ni 5.536161120478251 2.0037854747136166 5.395033118694266 0.005328611301765016 -0.09119600068954617 -0.105517816628857
Ni 3.494232695363814 1.885697827309637 3.787537348761319 1.2792279524177645 -0.25897693702368296 0.23446532503556397
Ni 3.878616677304746 6.199912486386057 2.9128216232721105 -0.41705041626206885 1.24603526771588 0.29387632000402936
Ni 0.10100655733719481 5.187276608682543 4.82712026048901 -0.3102082243948335 -1.2870307362916351 -1.5519602913543271
Ni 5.699718457676591 7.295749389712081 13.326083075051152 -1.2485744891979658 0.36692393191932293 0.3922780944133954
Ni 1.9499279946272778 6.532597677999546 9.960789101925968 -0.4494869395242194 -0.19063341545227816 0.2351314978646531
Ni 4.58330082571703 6.231122017985002 10.61353846765581 1.6646553424579136 -1.4300144110764341 1.2807611012328395
Ni 4.349714129221645 8.184242312298103 4.680526931879007 0.47343342303748787 0.09341229161457461 -0.3512617999020337
Ni 5.381769067764714 5.140736720999239 7.111691817396639 1.8750114331501 -1.1799656297803163 -0.04278264238316503
Ni 3.3627355598812723 2.9539382602857143 12.523352335428699 -1.2172885346004907 -0.08692514122833415 -0.33142573901271305
P 8.919193852287442 3.147662372165566 5.71661569323425 0.49049012140945847 0.13522897054004454 0.4884404379692813
P 0.7770121464229338 2.358414296545707 12.194915920904224 0.1868191839125105 -0.7958034796058359 -0.6825533273297277
P 3.010420926646642 5.064588025055155 11.441611859168075 -1.5979565555787834 -0.427182105379432 0.6108923113493155
P 2.1670775491873457 6.2803511208764204 4.354112002255869 -0.1262311379168084 -3.0585730078117908 1.7657197513011076
P 5.287491036642109 7.153842979036222 6.421496501942365 -0.4090386017011859 0.4638568350926463 0.026143748274903362
P 3.861621568948697 1.3320853740580134 0.6431431963027585 -0.7142210907466539 -1.2815481159105089 0.7456119463531095
P 7.742918314471055 6.253001619270077 3.138897725864831 -0.34982995255151367 -0.6626493893169492 2.4944716886740848
P 2.796600876629955 2.970247344353979 8.494960091517681 -2.060172512633897 -0.4330537336688607 -2.2001094301725725
Ni 7.668324606912615 6.109073723692879 6.325213450501328 -1.5744515304783078 -0.2565649851480807 0.38297815716870814
Ni 2.1068354697293588 5.275234069367025 0.2877542595598027 0.03897175327750707 0.6826281464317211 -0.12139463576011353
Ni 4.0557938833632345 2.410076498911135 10.041181086764762 0.05263073882183839 0.15501875157246206 1.5460488109658987
Ni 0.42139179082023204 0.22141022273673502 6.165299359620652 0.34014229295010456 -0.3486662712607157 0.6910346253278615
Ni 3.6916430444166943 3.9318338680558194 2.374481900064671 -1.3970536398796973 -1.139211844901722 -0.04886612957308359
Ni 1.158987725764217 1.9077420744237803 3.619323278697498 -0.7882616627028359 -0.2578489940668269 -0.2701604644443283
Ni 0.6459376019016676 7.860036380881633 11.712455162684464 1.122794322775647 0.4497851874909286 0.18817055573408237
Ni 8.393955363578588 3.9008895991814843 2.944028410773904 0.3033606053453808 0.6028241896292005 -0.8903097756155376
Ni 4.135217201907677 8.94693667448545 2.4827603148523822 -0.5553364284608823 0.8478114972420109 -1.7948169257773798
Ni 3.477704083523458 5.6191060303666545 6.01258760906266 -0.17290745892742482 2.341198973258452 -0.8917051133011675
Ni 0.6734727874152384 6.8463577462606855 6.103689805082347 1.8197918505551627 1.3094127035312613 2.2370404988709667
Ni 0.0768520995138262 5.0145814279709136 8.930068709297403 -0.2728449532550269 0.44803863711346703 0.08085399533358979
Ni 1.832608694425617 8.016175508781394 3.5192908758489576 0.9275061821601769 3.5613524881115635 -1.1203697724945545
Ni 0.5496298535862717 5.147596963877086 11.599678257966985 0.6145661606564771 2.708905291869754 -0.011838387395824773
Ni 5.881194749271862 8.153737098967952 10.258849275686396 -0.1906637544695813 0.17767454129876498 1.60791932321845
Ni 3.0559363513935205 0.7057479434078753 8.01264659984503 -1.692122694640247 1.2266877164272034 -0.11917731639382056
Ni 5.093885835638807 0.2845921449426412 6.90876308897282 -0.03371436153330968 -1.5170189993924519 -0.21453259066737893
Ni 5.362853091402867 2.83774403991602 0.558220707067435 -1.15237229354308 0.6546920821430854 -0.714811158922169
Ni 5.967963101190851 2.3363243144790444 2.7746490141199 -1.2311894609522989 0.25446542230657465 1.384498943143138
Ni 2.2613555803099494 0.6222633610797481 12.539524214639407 -1.845083792352732 0.5350987612577688 -1.2337777905047653
Ni 4.474835812323041 4.928974743845906 0.16764787135163584 0.7888715283726929 1.0481680535193239 -0.973874227901755
Ni 2.3722445461874435 3.9717604816048797 4.720996876663993 -0.08524903907749189 0.9198635780132546 -3.1253473851238627
Ni 1.6052053635107961 4.455553956341044 6.899284977412789 -1.5185842869970427 -0.5097546260660254 1.0397854858825835
Ni 8.210549056987015 1.2684314671421113 4.69017883625861 -0.5674771775884743 0.6654722034777248 -2.9381376506411527
P 5.291899886064939 3.5427849209579523 11.656241417844347 1.089281278619866 -0.3264794507510313 0.02007954435869445
P 4.859110030377928 0.7156166314624186 8.99260119517754 1.9173171358968462 -2.08378732383936 1.8216394452868627
P 7.124362228642494 5.83873441935325 10.222582373037902 0.6226741344755922 -0.17570661893911674 0.7680887872993868
P 1.2155344210586712 3.7064703160233448 2.3173973617285943 2.530879280768841 -0.19819580118056834 -1.0305824792270766
P 7.213344152263402 3.607454143819775 1.1883733474567053 0.7016170288293981 -0.5297639793084167 1.0054753997468038
P 4.747818596918268 3.7447870592437376 4.4697802706715954 -0.42877233268468745 1.382355157327258 -1.4021747631563466
P 0.2342736354822204 -0.006813593226276095 2.441633616149224 0.5696998962714059 0.5867303693911314 0.43210628215392677
P 2.388160309664045 0.5344412758547219 5.083853416454247 0.4539647727899149 -1.6137760391095433 -0.4201943612076892
Ni 8.348037471249542 3.5154811543041276 10.843764559840103 -1.0234440684100827 -0.8006672354560405 -0.5951869847989169
Ni 3.1920618640709817 7.381904893267317 12.223658509164295 0.20044654488795802 -2.0996428028143774 1.3033474711737876
Ni 3.8947062336009193 3.4604254184617917 6.46958497511796 -0.5679937122135766 -0.8162478635031168 -0.04158527964095418
Ni 7.447260140416923 1.7626616580431047 6.690305514770709 0.020906154025047863 -1.9383862978623199 1.6103808973850655
Ni 1.622703556344554 3.522679835830613 10.275704435087736 1.008980327576269 0.1778259792749647 0.1135093194747658
Ni 8.026593930965216 1.6259324439923932 2.137616007473676 1.212954168891195 0.31857510830229 -0.2673232521058493
Ni 1.4171798267148081 1.0812566004629762 10.0004028883998 1.0877830968077846 -0.9137605504393103 1.1662531652902302
Ni 8.460371661626635 7.590648363554398 9.701739927965171 -0.15935697393649975 -0.5926289942637535 0.1783682249316799
Ni 1.9771219973950573 8.251509280463004 0.9210415735947234 -0.40888767794561837 -0.5719257002781312 1.0156675097884573
Ni 3.9503199358639867 7.382590917555101 8.828336795613257 -0.5407040232596881 1.8713658659777126 -1.6604284488607597
Ni 1.9150596668268154 2.2508365412305866 6.123115268815254 -0.98820041471644 -0.8798749534354589 0.4664032556635838
Ni 0.6202995022185837 1.9274355449784484 8.078740923827345 -0.922367832492347 1.0401495540902217 -0.10390084985072427
Ni 6.185725504114673 1.3520075193752765 10.813802677745874 0.38915471829306525 1.5370373514959077 -0.7269092277372835
Ni 3.8185118027043163 4.867991758157112 8.759912733149626 -1.011564029143045 -0.272969137537717 0.3302211771816506
Ni 4.377301452581087 0.4405190626627155 11.928517140073629 1.5326736752105734 -0.6320458054984793 0.015774746335753476
Ni 6.228149246071268 0.6784039299958337 0.8609074286246813 -1.1072229506999511 -1.4346326265747358 0.345659880334224
Ni 7.033935080521988 3.815319503018492 4.653872601550952 -0.6591256924344068 0.16897315687002512 2.0296342348357235
Ni 7.3997140837782025 2.2496474324650935 12.762695233048124 0.783309203793567 -0.20528330415496904 0.3781789360078519
Ni 1.4703695764943698 1.664294922165305 1.0056978854063865 0.6394662663322663 1.7877181099490695 1.7946220361577545
Ni 6.241723379978899 7.9084605486087165 2.503390437234639 0.4153342049019105 -0.7805025875827074 0.7056783433829652
Ni 7.117355633916588 0.2465306027573043 8.731477483770483 -0.1871518846615809 -0.407363270881292 -1.1499677978666454
Ni 2.8507419134219116 7.961394182654173 6.4084702727659115 -0.2359779050253484 0.32977200545937396 0.80517335085651
Ni 8.859820736927317 0.3113406892728858 0.29046817164227845 -0.5169794259492387 -1.619272286337424 -0.8962752491703532
Ni 5.261394672734785 2.4977412558994962 7.881220810888419 1.0687445921190948 -0.5396149039605674 0.12321523390862006
P 0.308585615733143 6.924747454878199 0.27840603526492536 1.489149012455061 -0.4353895808908889 -1.135410983098393
P 2.725400702548423 8.56682433710979 10.688522751708764 -0.961563528855202 1.2958038544985748 -2.4797197271758904
P 2.0010871125149974 6.340483436448363 7.7569443097095725 0.48054175194749504 0.5329313212928047 1.3600500660721544
P 8.159463115023327 7.951405669024029 7.407020699792633 1.083462872165876 -0.17715903511492714 0.08967570739027782
P 7.7883148283413846 2.108234959276439 9.280674684705925 0.8287071723123922 1.8431613785190388 -0.6749662590110892
P 6.8822505369975735 8.997601854885964 12.385367239581818 -0.36961844803235056 -0.011303855048593435 -0.6195965239915329
P 3.691377781692084 6.8101448108561655 0.8793367850917253 0.8370691711238422 0.7812119549449063 0.9890128833154064
P 5.87889885465541 0.5164354250480035 3.9378260615348544 0.2718666485021576 -0.9409656500991923 -1.21153260595332
