# total energy = -340874.9141147862 ev
CRYSTAL
PRIMVEC
9.19799163103489 0.00000000000000 0.00000000000000
0.00000000000000 9.19799163103489 0.00000000000000
0.00000000000000 0.00000000000000 13.46219049926232
PRIMCOORD
 96 1
Ni 8.911878819788678 8.174089521998734 7.146053921816621 -0.5981409252209182 1.6012781637528486 -0.1734489332531916
Ni 1.8957152553708314 8.301886416521917 2.4021796648053146 -0.8330849896651137 0.17994071162512235 0.8149222027131577
Ni 7.764089048890138 2.3829512634809507 9.805240187169577 -1.0399541502499638 0.5226330246905903 0.1399392315315203
Ni 4.4207570922355535 0.08038124810983788 1.7555102702537404 0.0019337266876031216 -0.6940993802961143 0.379186808447076
Ni 0.7277138178517907 4.026310422829181 2.4171365188562826 -0.2344298438119382 -0.06572356745005455 -0.33561355184181557
Ni 7.440108192708331 6.310374079212195 7.19882555870649 0.7552376423683316 -1.5545825594685225 1.005635836584068
Ni 2.323311486304593 1.578375349084355 2.138697678210147 0.8212689708667921 0.5914025780558202 0.4745791066061569
Ni 8.062711042382986 3.1807114661428635 3.9402484951412866 -1.6564650933376373 0.55046521641151 -2.0822765436217883
Ni 4.989781641161862 7.708533179959663 9.810652285394527 -0.27682476383838134 -0.0832327799784115 -0.15081268391091446
Ni 7.35708712102514 5.273318928521269 0.7796401593186953 0.6028437300132263 -0.5078147287308351 -0.379544706007127
Ni 0.021170097339467085 8.428128850474032 12.119053827405029 1.4486968179772857 2.136227543916947 0.4555421445793639
Ni 2.6744080215604145 4.192361764187106 3.91569353691334 -0.6986103807925903 -0.5877955774308522 -0.5571979071496533
Ni 3.0796991229980826 4.147264011643046 8.921124640889492 -1.2824292329638818 1.4512578938362426 -0.21233326902321498
Ni 4.006589928957171 7.22400138136371 2.9248766897180265 1.1917417964796377 -0.8103476959685979 0.10110143272871622
Ni 5.0484004412767485 5.663387353952326 7.72635520837683 -0.7095262563741459 -0.7412148457266784 1.686640074259121
Ni 8.381669795181343 3.373253023149757 6.154280483500649 1.0332394572339496 0.3975403712535992 2.1102596590982756
Ni 0.34008929877418226 4.973777135873943 4.586002689534155 0.9734366261437042 -0.47496220097718844 0.7516144437934476
Ni 0.8218460633210757 4.975671922132168 0.028240593439939954 -1.3613381887559588 -1.6652649510174546 0.7822064576476916
Ni 1.0243527243675836 0.10330356283858567 8.735211156589768 2.782256551068395 1.787613466050405 1.1342904963407043
Ni 5.51478460255485 6.381189416115461 12.095616425149775 0.6930267160572258 0.34290211508342877 -0.07397063795019519
Ni 3.251793544800928 1.3915273488436815 7.73758227685639 -1.8947081402480788 1.6074236145289542 -0.9907851447244808
Ni 8.936262695373891 0.524665395103295 5.230922626093912 0.04613818911895925 0.3836060205606942 -0.09430857817659888
Ni 5.4397289915494405 3.6776053653750025 13.012459345145343 -0.45862643993164237 0.2253592489692377 0.49352890823578227
Ni 5.367184432235755 1.5574867102861585 6.611874124259404 0.10724945460798303 1.070799931986227 -0.5877829790253619
P 7.0642690601970495 1.7272908321943536 5.224124390543165 -0.3116395575247214 -0.9705906720544768 -0.25559387948406304
P 7.588876507953612 5.4641496591008325 5.201022714979293 -0.6614435419343059 -0.25378947928547263 0.24876605792895223
P 7.989936533280682 3.2164824552605156 1.3772226323932386 -0.0009754765393918684 -0.5774528007439474 0.5556788994019656
P 3.5770437238159163 7.057609714318628 6.531060570546962 -0.8715337805596152 0.454928679365081 1.371136148682987
P 1.353070546194954 6.640710747551447 12.623307039672147 0.8929361574947912 3.463228649953933 -2.089463034067898
P 4.197282689663563 3.472766093672738 7.229155935825405 0.24501096176189419 -0.04153102936425106 -1.52895611714967
P 5.951744388881199 8.129929964592243 3.7303595260809375 0.49002912261263987 0.17699345607134034 -0.017876623170104695
P 2.0921015728434424 3.2756715308511786 12.070913379257957 -0.13948003250691463 0.47329638323899126 -0.1364021649125393
Ni 5.971943178313537 1.1676390366521763 0.23785362275394561 -2.311170545217162 0.12724749499646473 -1.6572197121154748
Ni 6.608241837398371 6.148066320412996 9.652807392092855 0.8102821328379852 -0.9790326321742429 0.27765445882852824
Ni 5.8962529058915365 1.1342135353784435 9.243529881119679 -0.9288848076752583 -1.8406918339326237 -0.49314632808538295
Ni 1.439126955087921 1.123212737490886 11.907671104517808 -0.670079106122117 0.0868202402193537 0.2568598906806802
Ni 4.146022282784501 3.4925785674601957 10.954910947339025 -1.17529856332195 1.504252443755403 0.5502315031341491
Ni 2.407629474795597 2.111969234580169 10.007617156535305 0.18428998973275357 -0.9140760247972 0.2650162012392275
Ni 8.059087033714343 0.7214297500283966 0.584727360091558 0.9223583194106502 -0.40003434132004656 -0.29204389478098086
Ni 5.905919995005101 3.715942594133648 2.338960949118883 0.6231343619414622 1.0405480750802207 0.10340616960249288
Ni 3.697215483348475 5.154131354084002 5.748597547623174 0.8103484672995462 -1.944368740698 0.04345575719078967
Ni 4.768845884256231 8.768482131605548 7.489676169143153 0.47122895918700136 -1.8143693939880108 1.8094184777406384
Ni 2.8514417648228068 7.454843375163069 8.777199987991692 -0.960963690487674 -0.8210861654320245 -1.674607311464303
Ni 7.263469963082364 8.652900169853835 10.627497400712706 -0.10922354761521834 -0.4418188814560004 -1.0941838581278058
Ni 5.569825383958817 6.653532747764871 5.752999706376506 0.8494801431936855 -0.7155161554089935 -2.4208188390746246
Ni 5.0773649166512635 8.966634463454758 11.750675185835721 -0.15801897185136657 0.8137132700067212 1.299129062217066
Ni 6.4866259931932815 1.5316035620791455 2.4982186539218323 2.3191679616003413 -1.2878982264982528 0.14641249796068978
Ni 3.7222616143249123 1.9222146690113444 12.454787877182758 0.06083667167139845 -1.9527788191385658 1.798944317682192
Ni 4.91353029125563 5.494926138809668 0.9347366927467862 -0.3710734353113222 0.4346511600629675 0.8299382165060158
Ni 0.06652999264255273 7.561576869048703 9.348400781717494 -1.472183074024684 -3.4427480135020767 1.8893787576153656
Ni 2.9022698660992647 4.013672382446652 1.311302466590105 0.7379017221930453 -1.1685692150179166 -0.15316935706854912
Ni 6.434261827328845 7.455533224528927 1.4188748173046233 -0.5068839893864496 1.153512063574478 -1.241218305943211
Ni 2.280715587460714 6.615618626617286 4.559859238166425 -0.04331537495818346 0.7015805191645079 -1.135984596213676
Ni 2.6696894518979417 8.844880649376496 13.438820285814643 0.5217169406342241 -0.4748328744881758 -0.458603557113507
Ni 4.887426391251543 1.8743391230207613 4.073874156906396 -0.0978117062338509 -0.3484682963172966 -0.2696187330082453
Ni 8.981378843901041 7.312945959601738 4.718591737652168 -0.9047799442072547 0.43535204278473405 -0.9195409045665133
P 5.7054497692866075 2.053690760152439 11.213008429683878 -0.331095609366804 -0.9320562634247045 0.30539434794595793
P 7.390117108662447 3.841577960643807 8.026225369322304 -0.19732985363584724 -0.015186992153083523 1.0905246641086639
P 4.453869861796763 5.051582946351243 3.181439027274056 -0.07245111598187523 0.6761597650985581 -0.20726022537568176
P 2.523009080733325 0.4635484204848457 4.1603959841715294 0.04142818523779962 0.1501565383841543 0.08704906840070815
P 4.5429616078995085 2.1996076980188386 1.6370833697172262 -1.2340865799944358 0.8046005090721755 -0.5968782564584107
P 1.2293115699599304 5.629051251515659 8.633800540411098 0.08085399533358979 0.11765008111601674 -2.0538895078386625
P 1.0174818246836326 1.3031898380476084 7.139470919268022 -0.6593429506515355 1.644957092698038 -3.27414689525949
P 4.342610956071097 5.600519081743751 10.35002802837539 -0.12783422073787018 0.44800958364774457 -0.7097779673736357
Ni 8.639802229894068 4.813364163332969 9.579653925738906 -1.2619964190308264 1.2024527551392388 -1.2670008142239535
Ni 0.9983224082958546 2.492315382948392 4.709841688295618 0.3003950949591536 -0.24729024471437408 -0.7992695837775654
Ni 7.6486726509862315 1.2791738821241863 7.460193846844668 0.8781024349160684 0.10939966818176644 0.13843333640995512
Ni 0.6060078333295624 2.843972995688445 8.650857295931738 -0.004945774041049547 0.06818822694046321 -0.9119854608167585
Ni 4.347108773936495 8.64725260304534 5.293198547647004 -0.46016575939430426 1.4438052942129393 -2.845362478389945
Ni 8.508537692558502 6.4017193332434115 11.742624183836574 -1.0497955618204178 -1.9122844585689451 -0.4757106491074387
Ni 7.427378172410354 2.575925126090448 12.319775158292698 1.0389038546085785 -0.14225605259015497 0.7187989399253233
Ni 9.113857516120516 1.5505514246613938 2.7399731448899196 0.6916362634676023 -0.2540015952962787 -0.8199674784465493
Ni 0.7675926299933417 2.7430434344675674 0.3064789178703994 -0.4980921021264325 -2.0424061897894115 0.5283377883848513
Ni 5.361932379063686 3.463292162381614 9.154329598716705 2.451326777855494 0.29781345027490647 -2.2789091140802946
Ni 6.759677570191639 6.052039288685486 3.2826206134632607 -0.5822463654778488 -0.34405036975525904 0.34543259481476635
Ni 1.810284309902909 3.8765579224886078 6.457718545366345 -0.6186094774879153 0.3022977112985052 1.390135058382993
Ni 3.150909973537775 2.2778826060649218 5.430337842182219 0.5140424548081018 -0.6184161305301865 0.72979709080804
Ni 1.4127379173459458 5.342570606861923 10.67785916381784 1.09217659788979 0.5713847401729966 0.9302102113549011
Ni 2.662938126104073 6.380361596876431 0.8534678384528769 -0.8330173696519718 0.9139024753338131 1.49274135779201
Ni 3.1288899817795697 5.182277208211031 12.305600133523035 1.1940563035454275 0.2908133648079895 0.3592967543913683
Ni 7.8956203279805015 8.733787307498636 2.759399303032496 -0.06675123738362052 -0.7450018235729362 1.0862944280774
Ni 9.102957896139952 7.217434015400737 0.981012708007732 -0.006537544008201645 0.0904542374275152 0.3993838522202412
Ni 1.9878883286410782 8.562529902926364 6.166989348418073 -0.18871048739795243 1.1434626497582758 -0.172293993713142
Ni 0.08610055925238247 3.5033954055168572 11.267341885538052 0.7760093276980442 -1.1443162560078228 1.3100835043460406
Ni 6.09504909714888 3.668131434083879 5.504850771686487 -1.2681938060907902 1.3523614391786452 0.06566674607019013
Ni 2.730782511738375 7.6776095323861115 11.123794350293586 -0.2523260073660687 0.08433706878618379 0.6926644476218007
Ni 6.779407262055193 8.510211727019653 6.12502719119163 0.5328151074299147 1.576301439202853 -0.7760923743301538
Ni 0.9382595235084371 6.452179514858078 6.535516077651254 1.0609662337252566 -2.33817998392647 1.67308933215788
P 0.6764754861524358 6.230268770848701 2.8751872997948125 0.4603817320598522 1.0316983379990747 -0.8326957246464949
P 0.8903499449491383 0.4665552439208345 0.8394096281758342 0.6094157268037892 -0.2546286873573163 -0.13759335700716305
P 7.128075527543192 4.783203949057634 12.059806804467636 0.575166575812932 -0.5489037854616612 -0.14937723701596856
P 7.176447765077194 8.137380337743515 12.71608901998266 -0.8575521215685425 0.026619659470057382 1.5381938336978542
P 4.4323005716242525 7.502820099060645 0.2718779132772436 0.14423837312750643 0.8894991067887843 -0.029621936631490924
P 6.896230952665452 8.066675376738786 8.426227625621724 0.14801120990637734 0.7665101299583573 -0.10788168887534323
P 8.98259297878495 0.7470286802966756 10.342018417338194 1.133511709193151 0.10631100195411368 0.9478268959953999
P 3.783290288224532 0.2733247573472376 9.351052562679854 -0.809252148911574 -0.710050504308732 2.3180104509571304
