# total energy = -340868.5168988509 ev
CRYSTAL
PRIMVEC
9.22436020768353 0.00000000000000 0.00000000000000

0.00000000000000 9.22436020768353 0.00000000000000

0.00000000000000 0.00000000000000 13.50078357656392

PRIMCOORD
 96 1
Ni 7.435359880727118 0.11677762922726444 10.030028425053882 -0.3301031635465476 0.9787881202636045 0.7866614080952516
Ni 6.0074566388262145 2.526257001446516 6.106795615632479 0.2942213620482739 0.17510292391684681 -1.9791938187969849
Ni 0.2742568241474269 2.6578978418062627 11.19764421346399 1.0490607405369223 0.8680057128016987 0.1404969038072032
Ni 3.2151137512457733 6.180828483445474 12.610136317253406 -0.14832411316110583 0.32904206927188495 -0.19413088708257534
Ni 2.68665017166411 0.4938427119453234 1.3152747297638077 0.16944238319695978 2.452957628590698 -1.3185810002940905
Ni 1.3354474824638802 5.96991349396852 6.209644461386741 2.0294493725184273 1.433812958886918 -1.23587812467722
Ni 8.471984223715557 6.6245294197599724 13.186538895317979 0.10078518703987804 -1.033624094266878 0.555691754917772
Ni 5.742588368201187 7.272439235892568 9.950063371378974 1.349475890100734 -0.15405741610045726 0.9934961158977405
Ni 8.416139948784725 3.959076827182591 5.614057982005081 0.4783059206384408 -2.0612117525316886 1.2056206113442591
Ni 8.783084986239054 7.1376990106010805 2.3724112818972247 -0.7739244201445574 -1.3961601815311504 -1.9681460456232553
Ni 9.435136539973888 2.834811840633226 2.866729048378217 -1.3883509698993766 -1.027354459208082 0.13957927708894027
Ni 7.215220531334268 3.9393735944022374 2.323376429456306 0.1946188824625874 -1.0613179606377205 -2.402731899665927
Ni 2.916244489970753 0.9477753082785326 12.560129217277352 0.5863583307636935 1.1108502630398933 -0.3402885887199817
Ni 1.8249473657607995 4.374126901598316 12.691545905691143 -1.0159631866520051 -1.0472535121248545 0.10228953949954642
Ni 4.153720045767905 2.773718904910249 10.257138623235175 2.612500750396075 2.0800759364260433 -1.8233224894162405
Ni 4.809525913988508 3.552946708805536 7.871442418187078 -0.689216084061884 -1.1066974172137845 0.6950121219183708
Ni 1.908381701200076 4.3468689180468445 9.79989448169216 -1.5062409349403414 -0.6587855354861686 1.7994616236382428
Ni 7.310748002623283 0.1160738105656816 5.948688241802045 -0.5242098822594069 0.6336092933308571 -1.1268857192362012
Ni 4.696573626818365 4.484431797472597 1.5632688787946882 -0.391173548495307 -0.40447720758274863 -0.9995258670315883
Ni 1.8617248887454758 7.796595039393508 1.538400926897425 -1.2149850832782947 -3.286026677416212 -0.43922206726310165
Ni 5.6361208060519195 4.988275560438734 6.067589318681948 -0.215462558680816 -1.085266243923202 -1.6592123170654716
Ni 5.404146602886975 8.174812244665063 7.602196266345965 -2.495932075269695 -1.253988975345318 -0.14256587052108996
Ni 1.6708083115661831 0.9859364852505931 6.64994529863624 1.2373354259490368 0.823090340346247 0.44162861982206525
Ni 2.8710912481824438 7.400325761766546 7.698672924270325 0.3620717460333442 -0.6792610297317011 1.0397937134126995
P 3.174701830454234 5.082483948259776 5.463307957643563 1.563962458021526 0.4666637084138221 -0.5259682597114103
P 3.9416704600212955 8.221275345561429 9.373053830431935 -0.7409055420163756 0.16468944189300672 1.0241637201849265
P 9.0092570670169 2.1390829426966267 6.930424875982929 -1.519054798875558 0.04273533408499737 -0.3286234936772276
P 6.152804878020983 2.173886452659301 9.671893573755225 0.6573410897301583 0.9939627711215139 2.2007077258782033
P 2.5281848926689383 2.6751381704890718 11.33447467871242 -3.4035250634457124 1.3763313197306812 1.7483434648061889
P 8.888261138000097 5.053999124839491 10.968211321455874 0.25834136032221316 -0.983903587113299 0.1272896610883098
P 1.9628146490637766 8.304792700239949 12.83692274040165 0.19166134249616024 -1.5809106558400903 -0.36493184118995864
P 5.276167833413838 5.7206159428815235 7.992220652309865 -0.2538992653904595 0.6110653465920701 1.3762978953895846
Ni 0.21714973434410842 4.797967791013891 7.573817523064712 -0.7456955072058513 -4.17391036008876 1.1187679752250732
Ni 3.6988022877956785 4.080792256272834 3.549099228284616 -0.7847991580755322 -1.1067059018542167 1.591263459829324
Ni 2.307224575243573 6.271854467095533 3.419505273390206 0.3476290882454529 -0.610529014472626 0.6872764438370099
Ni 0.7728344000375796 1.54605806806361 8.915431490132368 0.2137566317333028 -0.5548988267028315 0.1151954489279371
Ni 4.6574162189753885 0.9018241593574984 8.548938446313917 -0.5734686192852189 1.3881902759517963 0.19591986066219808
Ni 8.25012914337835 7.183747015301232 10.85248342438704 -2.054793507710171 0.2585460201338515 0.24307774929492326
Ni 0.13174046344683882 5.00929787668706 1.5447998653710817 1.1400934761757269 -0.14447260062549958 -0.1832828886244779
Ni 0.4340098237868577 6.419785527066752 8.921547240756606 2.0312406600908957 0.5847408497649285 1.6594665991681228
Ni 9.108667993830508 0.1259761609353956 2.5796891062593414 0.46325622539416994 1.4373302280115567 0.01620052101926242
Ni 4.51804536500612 6.975387173520979 5.804566842476089 -1.9679868943375718 -0.1489792302466015 -0.49084287676318694
Ni 4.613591285014968 6.905346608679584 0.8113839225620991 0.9130190442875953 0.32505557382031114 1.2647899226155639
Ni 4.9590527882251765 0.13489703941005832 0.44617490964394096 0.1782774649900865 -0.4044841495612841 0.668315586463791
Ni 7.440368708161449 6.031006429691497 8.615092788322746 -1.075542845987851 -0.29634766436265736 0.86100639866573
Ni 7.721130550921566 1.8644368505607491 4.517672700865519 -1.2079505450290162 1.325210589795466 -1.5839399295847174
Ni 8.318260265717155 3.1374077433142675 9.269137726235405 -0.1519606814724286 0.36288267197041374 1.249220350312081
Ni 6.259069504252101 0.7986229430544491 2.4857777428275907 1.394298188621747 -0.15210646302167352 0.19489270494926433
Ni 8.014289933408646 1.2880896186556714 12.522367455089649 -1.7582761505388687 -0.10216766920970147 -0.456358212722756
Ni 6.981484475425387 3.21905255292986 11.669564311633195 -1.0051604396095464 -0.0023764706519765525 -1.933624357697302
Ni 0.3512811518811474 7.127164791577128 4.44646986667472 0.3252409503582399 0.05399856570364248 1.7070870292595632
Ni 7.41658830829827 5.167421854365345 4.180166285646778 -0.3187597135092704 1.3899545669410707 -1.2791171378715132
Ni 2.817267108073193 4.913419879721241 7.877706681005962 0.28560456691354036 0.19794691839455586 -1.7930068691518348
Ni 0.6805096265113629 0.22888957720906886 11.277015218360313 0.5083014385592666 -0.18760517014891562 0.4157658931226904
Ni -0.03043393067051459 8.877450188178667 0.15960725475275964 1.2553097510392701 -0.33657822974793 0.08278926468308967
Ni 6.540633866324901 4.9344329716096516 13.465275991076556 -0.15901501721604872 0.4430231861767467 -0.27933416052379634
P 7.861276251123769 8.292081532275844 3.951558051415144 -1.6786105190864251 1.5709630577090752 0.8168656995927738
P 2.416708503085339 2.7174503094232856 7.7182765339635875 1.1721620745754973 0.6834251884117197 0.7057449349548426
P 5.4314414838781095 5.783286244150119 11.814481773219892 -1.0888128236238799 0.8163409374375553 -0.6508583102192921
P 4.2539427162541115 8.52515343427078 2.562353766669399 -0.09955388573593822 -0.2622430093694645 -0.8574338508231234
P 4.0761155057954745 2.2149717517247005 0.8324486708660385 -0.8518347594687908 0.9023983313489555 -0.5621714491048447
P 4.887112005241106 0.6353739110068939 6.37020920469877 1.485153775252739 -0.15134747336846194 -0.5528972228917703
P 6.837704377416321 6.078096787062145 1.6829669403713252 -0.2821474616028754 0.7040546917366133 0.8455239867594149
P 6.809514733513344 8.658740614572782 12.362140323350543 -0.3318137184797511 -0.3966857365627878 -0.9095506261230206
Ni 1.2560257435880184 6.692651317738862 11.16873875923154 1.4034240621824152 -0.08740722307107526 0.8637718772260092
Ni 8.459808068626575 3.7635296213255183 13.200660467913222 1.4610388844824063 0.5598682548929648 0.6210201438119369
Ni 0.7248751079628548 1.9891501966236587 13.459565189852626 1.2735396437837356 -0.17850655028175708 1.1151393773335503
Ni 1.5107287695857297 3.594410206627487 5.316433086882714 0.5868905491180795 -0.4403525813231191 0.11395874830735858
Ni 7.168526821440003 4.003796524054852 7.646370803547198 -1.0450246227943358 -0.22524123533413465 -1.0598125797367877
Ni 0.5879560888592322 8.198869375325717 7.356320030351774 0.050842022352531796 0.8743103148634879 -0.07401820335867898
Ni 5.202206915608187 5.902501871703154 3.5952717618436316 0.2849741324183931 0.6073035655567927 -0.385227101103885
Ni 6.1315519527747595 2.464647501568249 0.4081235025548797 1.3805060199336612 -0.23241821269854812 0.7702102045177639
Ni 6.929053213663436 6.956597152372301 5.445095381425619 0.48882327522999686 0.03789471816324441 0.9782047369563089
Ni 2.2010890900512776 9.236443827385495 3.4297932020044044 0.5913329011601492 -1.6281096821233958 2.3216678452040593
Ni 3.6734076249472176 2.118641761123002 5.533363281460824 -1.1901741948822018 0.7713065229057361 -0.3202321842897388
Ni 2.9371099921005093 0.8965736536933705 10.10643010849328 -1.1365024163903588 -1.9033886987412125 0.20480713584949892
Ni 4.151515423748006 1.574616686363223 2.9416852746187936 -0.49177798698294667 1.1066333967450683 1.0124232918195468
Ni 5.946788023659369 4.551622035099981 9.967587810347194 0.3739836669795817 -0.3079492531573277 -0.3594394506168197
Ni 3.9032325522517586 5.765575473111599 9.958164204257114 -0.8802562480342775 0.692853166593839 0.04454230538674909
Ni 5.4703498340033585 1.2201891053147638 11.896066624496031 0.36645881935744634 0.1849160533525267 -1.2331242160811666
Ni 7.471371781838775 8.214818293620302 7.847154678528524 2.3664906579457052 0.006460410913363067 2.0964867736838992
Ni 6.8905691840943195 1.4087811437952507 7.935112640070556 2.10114355572962 -0.22237779774341057 -1.051635443242634
Ni 0.3204330474504091 0.6153044711378797 4.905441730829983 0.1404071723068743 -0.7599556166692912 -0.4070207999402087
Ni 5.611796168953703 8.30775371977295 4.2069519819705565 -0.2959440011663355 1.3691142331569517 -0.44332889034262357
Ni 2.0597718961397558 3.1453222441221063 1.572962758630303 1.9474944308111752 0.6822815617255799 -0.4434340484619202
Ni 4.631873966368273 3.8520373547185374 12.562411323920545 -1.300971257632127 -0.5543658370174969 -0.5057087381314258
Ni 4.243805144706542 8.259002977617442 11.876314502608125 0.3557172645702261 -0.6817164332507292 -0.7264988796727423
Ni 7.096373878177867 8.213886633268796 0.9824118573267292 -0.6687148787847387 -0.28343018497004085 0.026838974569715065
P 5.982947514529681 3.344863597822761 3.898337184444393 -1.338710938274746 -0.7025858205005706 1.4957243516797336
P 0.4187407408180756 4.840076994029954 3.739365488089838 -0.34510477916170246 0.8943209536574599 0.5742489490946692
P 8.019603164720202 1.375582672457942 1.2931971467411032 -0.16232325565367525 1.60558758976148 -0.9994214802432401
P 2.4702190149574497 5.55734477237017 1.3832628745239168 0.9135121818739299 -0.9161943566917834 -1.2369531029089533
P 2.1416380903933296 8.183621508384743 5.861635189967761 0.3444033822193036 0.0032146502825557534 -2.412162448951207
P 8.533639845393404 6.6027599303584585 6.784278729655436 -0.6077401388735791 -0.8723328794221429 -0.482991241929252
P 0.166562422129345 8.47211336475438 9.48335503656225 0.06969669316518964 1.0096022774309839 -0.3927167246127108
P 2.001990505626585 2.0692637624932124 3.7863488428854613 0.8617417341698578 0.4575545470237023 -0.13939647165417282
