# total energy = -340892.7076921663 ev
CRYSTAL
PRIMVEC
9.04662676261973 0.00000000000000 0.00000000000000

0.00000000000000 9.04662676261973 0.00000000000000

0.00000000000000 0.00000000000000 13.24065271414523

PRIMCOORD
 96 1
Ni 6.234609480609013 1.9754304647301144 11.34692158594028 -0.24137053679582945 -0.02884443503551807 0.17294602547484408
Ni 4.627467191052867 0.28017945856160437 6.027979097561149 0.3831100547608821 -1.2811696495251677 0.7239136354440694
Ni 2.939457104938625 1.3137239974020685 4.823728330514772 -0.2900821430689198 1.1002660597661438 0.32507999930034337
Ni 3.510742537855867 3.961219317094083 4.765218367317641 -0.5459408461785953 1.3981995805586822 -0.5440125188076308
Ni 5.332280834865903 4.58879286167756 2.5373463063177653 -1.0240287372689587 0.05721527286872726 1.119067508743363
Ni 7.219949973451024 6.413777923481045 2.5503083131315525 -0.23416450596569352 -1.8661704378197024 0.463230257252241
Ni 4.868225068869247 4.5547775450808 11.39257538785665 0.8666476561119073 -0.6966648270304454 -0.5587025167196378
Ni 5.545437454454433 8.035865240435555 12.370437034360751 -0.5800856103811042 -0.004121735477857417 0.09406406626596057
Ni 1.8457561168317191 6.392192672044909 0.4680371864312935 -0.11953032885786512 0.7554523294822989 -1.2272153067958995
Ni 2.7704480239118476 1.6450114691503053 0.3949531075327324 0.1480981131932288 -0.7737567842184415 -0.19402315786011745
Ni 0.7865788657451752 -0.011189772632588597 4.592957023972638 -0.7114327293682393 -0.06397367463848337 -0.21837896099666262
Ni 8.904612807666117 2.5208515917563625 1.2836919105652955 -0.47383554357191304 -0.3604920602510501 0.5070889063084041
Ni 7.040591551417148 0.6892525411326942 4.796214824566439 -0.6633844677107608 -0.5036464562857583 -0.8717384403712536
Ni 1.0924796934950534 7.425453146805284 2.5898845911942776 -1.2791623892871518 0.5033965450584815 -0.9009729117563386
Ni 7.4539138345748075 3.9291852117565487 3.7720235931274093 1.4306227340843942 0.5138478222987924 0.10163030864899272
Ni 7.564617406169104 3.8955227136032122 12.427266134306903 0.8939964804385054 0.37027330800753006 0.2359048856955679
Ni 7.92770377095926 8.744089462535023 6.892024228204744 0.1897409855449958 1.5101266431479927 1.1912566293131033
Ni 6.92290398396841 0.7908380176211738 0.6842877523698478 -0.9218757233472769 -0.31414124090065254 -0.8059179423320185
Ni 2.0227352760291732 6.4961836465874 9.245140503981359 -1.1472228881316564 -0.66981325405524 -0.07004559186417614
Ni 0.04477085114513518 4.9755452020573765 1.5351745643990848 0.38513556983134317 -0.34435633103145213 -0.38733283459297807
Ni 6.267222570058832 1.8661019804024943 6.984404761970564 1.2305086328351904 0.5200786336998527 0.14765356945664249
Ni 3.6877397903068303 4.168568002306251 0.4744494354748531 -2.0293285306698468 0.8206375079303802 -0.0036849050507549446
Ni 5.965101422966966 5.661207137031227 4.913473581907017 0.10695712017854482 0.16303596544998372 -0.8681700062937049
Ni 5.274156257968514 3.0055698532602007 9.035712903941015 0.15051649282673432 -0.6154475348201658 0.35111576124247273
P 0.03350327752245825 5.640246102841149 12.44890114219019 2.1048418305168135 -0.3679379750061341 0.2686957069733437
P 3.952679301437875 6.1667869198308445 12.541956554311891 -0.42007609046227007 0.7149499984928784 0.9718235160203132
P 2.520951104650662 8.702456886211008 1.3400596325469698 -1.1136203695858629 -0.8658282455344057 0.024366601769822555
P 6.353120291092408 7.756713478673258 5.952335727953751 -1.6877245655725515 -0.6098615560919561 -0.8234767771513882
P 4.846015600187053 1.1667796390294136 12.776342892905106 -0.9911386714091575 -0.9126081820024219 0.03252162677678916
P 3.9706639954257366 6.11031787562952 8.121696921093823 0.19919441764841178 -0.10837714045452301 2.216366001240751
P 4.9370879917241774 0.859461204867112 3.8551349531206114 -0.2235797884713117 -0.06705359911538775 0.025802819995716854
P -0.015973628860345774 5.738890520971755 3.6064359463391686 0.937525771179708 -0.6225905736228503 0.9267819023996425
Ni 1.7881924307931056 1.3156147423937499 2.712930475669682 -1.0303896464899802 -0.8129933611215612 -0.9071443306743733
Ni 1.8989593287746847 6.38992196872954 4.5992598088324685 0.2452235919933325 0.11763079784230711 1.7487121609995175
Ni 6.045335955652251 5.621193906896261 9.13618293135067 -0.6601227662403535 0.4404587678836801 0.8171752604133926
Ni 8.537672579878564 2.5364298830275387 10.425835664284477 0.1222829519023378 -0.06566134675355143 -1.1740556920537846
Ni 2.5459559809999828 4.785258454904116 7.048714517579976 -0.866426798350353 0.36076125475203674 -0.7663023848229255
Ni 0.6645896272746918 9.094392943721129 8.80580193160323 -0.9002632872838238 0.016834555058835524 1.1586915508928883
Ni 1.342248011558873 1.3343050732684594 11.319037168295015 -0.05973958195247776 -2.6783675282922133 0.1582442004882952
Ni 3.9351107522807185 6.793727200541509 1.6887926193285028 1.3352139808650811 0.9620821203628334 -0.8992767550008385
Ni 5.463728321608173 7.864721155494726 8.048065521276616 0.5962259675863926 0.03696397881885892 0.4021331328306042
Ni 5.418576607476674 2.7071578231376625 4.834017059122616 0.37991211664887475 0.5578710219572779 0.49426835750496817
Ni 0.6553620679851451 7.3222311355369225 6.920544623710847 1.0956445018337324 -0.41337888094775255 -0.389360149435652
Ni 5.191669115221369 4.629249376523495 6.947622082249614 -0.41429033701842843 -1.2529847024505196 0.44570381833270334
Ni 8.14343867917281 7.16707244007122 9.117116260802975 0.10768242838034357 0.48408781742754053 0.11431098944045476
Ni 4.4469327075409115 0.21795314109374322 10.565577098435234 0.003475874363742401 0.7548298654069515 -1.1998651969177208
Ni 8.08965648311756 7.357657725907378 4.787383507528738 0.6319139079063052 -0.5534813775300146 -0.4420672500213806
Ni 7.288016793151564 5.980281662660947 6.942007745685798 0.638019763693727 0.8538854713502327 0.2843853497944587
Ni 2.358148009577443 5.358398446306023 2.5190205545012603 -0.12953294859653175 -2.417203353809224 0.5303193375912545
Ni 2.301063794756816 5.291399128562509 11.553779943982358 -0.6630067726563679 -0.562585910934444 -1.0627379809136988
Ni 0.9628143922234127 3.314448830537646 3.786535287104235 0.1035547793652152 1.191102363123426 -0.1900448899386598
Ni 3.9758477125560407 2.5082405940606485 2.4807949378129757 -0.19017961574431116 0.6180428063511678 0.7019098774794685
Ni 0.8811875836806172 3.3601704821546745 8.259082613637718 0.35578282770083886 -0.34749796198422733 -0.06489387245990759
Ni 3.7614426584753957 2.5839156268616867 7.0845301129008735 0.09486110824595921 -0.24206833419380244 -0.9217679941248189
Ni 3.994655649578558 6.618123128610733 6.127972367740845 0.12780053928645732 1.5236665866159564 -1.8196483829987629
Ni 0.7475019614792957 7.614220060663795 11.569602494175903 -0.0012369577308946438 -1.0654630931543456 -0.04955749921315337
P 0.26659956714048805 5.569302455832692 8.076771372631185 0.218719632165533 -0.6733896585525886 0.10181157142186338
P 8.278730982285724 1.736020534300149 7.923471758963524 0.9337161676256307 -0.2903780770427838 0.5253478525185921
P 1.8232028763328565 3.235390359330441 10.4595723447772 -0.9665869502117225 1.0962880489550024 -1.3692736415529514
P 4.098402365198678 6.063004017703706 3.8010469810810603 -0.8135340641163795 -0.6221743120210381 0.13323970802415763
P 6.783513558935727 3.8396869332746997 10.3640815807332 -0.4942817272414068 1.6999702157091237 -0.2984629109334473
P 6.357299832652966 7.656105942536934 10.26869575755955 -0.7255681403283569 0.5729428286887359 -0.6834143897784425
P 2.434175860821904 8.284683662690156 5.9185845728582205 -0.3080230438180566 0.4544445406398109 -0.7853529736964733
P 7.129447519399431 4.057213073585633 1.4418007110156261 0.32323291878927557 0.30147084452183565 0.9832189023414487
Ni 5.61686961930763 3.0456916429162204 0.3842581853836126 -0.2832831178692154 -1.782558163014685 -0.59040241892608
Ni 1.2075256459314907 1.023870076189247 6.793766101036554 0.921918146549438 0.6254267575200648 -0.07046776700325928
Ni 6.967033429276653 0.7233547053462974 9.422776448281185 -0.7464025605752049 -0.594651424010421 -1.3941583206097734
Ni 2.677539167143568 1.7426607583379206 8.999526396923185 0.3139584354658851 -0.8134011380829411 0.9888832997160776
Ni 6.3311912678396025 2.2018946722744515 2.65562461849357 1.342280143683243 -1.0211257046895512 -0.6997555501406271
Ni 4.172593751211984 6.798160047651193 10.41554784033931 0.12597968402763465 0.42830207791648817 -0.3008239549664561
Ni 8.155986350481243 7.103682726402735 0.5075103329490183 0.9458263206256033 0.9524188862414564 -0.3876264545739969
Ni 7.5908707170105405 4.0313849542016555 8.307516443955732 0.2749468300893781 -1.299951043897729 -0.5110388920950877
Ni 2.9111411631971724 8.434314869208885 12.340738768051219 0.6397287759650337 -0.15365709533824506 0.5822988159823391
Ni -0.0017188590833469427 5.033733105342049 10.271038833888955 0.21121509625837173 -0.4635696428695307 0.11556723044505902
Ni 8.54817571354049 2.338969160857993 5.696194966004092 0.14581934446138112 0.37808020564645856 0.03982690218895076
Ni 3.4780842152722755 2.5230770619379594 11.584710360855846 1.2999978379752644 0.4389258761789215 -0.5829403062210798
Ni 1.0788916601098582 3.35208279783619 12.536263512095312 -0.396272303174453 0.9749880297912242 0.9848060443229104
Ni 2.980546883657371 8.324108862086083 8.07342140674401 0.8648589396426009 0.7443063401678085 -0.44978673015282533
Ni 5.570939895275249 7.713751048216339 3.618551188888738 -0.24421829065726972 1.2106682010704957 0.5724129243271948
Ni 3.035821773127107 8.383273801060236 3.5150224969734007 1.1369179066612225 -0.6757000518533202 0.5347550047651047
Ni 3.3487898256975672 4.312382227821863 9.235315867326015 -0.12777945624053477 -0.02086553059509955 0.9147653375547407
Ni 7.192864372948179 6.239503705683174 11.660844057633335 -0.5434178226464254 -0.4357202247574303 -1.01555309569778
Ni 0.45365938253043403 0.225896079384157 0.4493070503988645 0.45694005336815496 -0.3537082045599973 -0.2627811412611216
Ni 4.665001645457111 0.2696745155743282 1.7965180413952329 0.27603055007186006 -0.4142358296314092 -1.4443251712721512
Ni 5.7576079917267275 5.447679605745765 0.35207571536730514 0.6879557292922216 2.0850124544957125 -0.3443375619783747
Ni 7.8714427991732885 8.841331653518687 11.468616809041242 -0.2717949147239577 0.4641306575793233 0.4334607392992922
Ni 0.2816531540599055 4.766504797642125 5.9124147734116805 -0.344018230965743 -0.013883957070943831 -0.3831645621479014
Ni 8.003460223401088 8.70542417978647 2.4845293853372157 0.28088016485467754 0.6729266028732411 0.7475217617813127
P 8.522392827290284 1.677371253051 3.3701832886465084 0.057493980451410666 -0.747282649187313 0.7206635039378879
P 2.086206409338448 3.2253124171259753 1.6715135622274888 -1.3281092514994999 1.5775839054597025 0.22015970704616922
P 4.831115805922463 0.9508909381610375 8.333468502126244 -1.0845990426528482 0.22064127466827807 0.2629374643333278
P 8.140788017533755 1.7389878278756108 12.454581519129315 2.283116724403739 -0.277899742070115 0.15707383432927788
P 6.1774347995208405 7.717188766383032 1.1326584768996257 0.15314081782345884 -0.2238975768220467 1.7586196499212163
P 1.8899307952737359 2.971690236064757 5.841683722131955 -0.8544547135901414 0.23530247622487863 0.6485224629972638
P 7.041695239881193 3.957193568188349 5.953433988441743 -0.3462684604525004 0.20404506087249374 0.18652839214496908
P 2.196131971031862 8.496338542237448 10.190549186329195 0.7322182986550227 0.6830192112225527 0.566474961576205
