# total energy = -340855.7692228046 ev
CRYSTAL
PRIMVEC
9.47338475821362 0.00000000000000 0.00000000000000
0.00000000000000 9.47338475821362 0.00000000000000
0.00000000000000 0.00000000000000 13.86525617804505
PRIMCOORD
 96 1
Ni 0.625394029506777 6.788769712372308 6.776214635378654 -0.6218778638265419 -0.5906392175272345 -1.3466479337336357
Ni 0.7381661505662738 6.687480281137007 3.549449956744984 0.22764727367246604 0.0997228072136347 -0.2951305041261046
Ni 1.4319968598511028 5.7027692888293675 12.673953763935618 -1.786722064584387 -1.0459486772705018 -0.4060309252231137
Ni 4.707628099758721 6.5627252755311645 10.600099078978802 1.1473866674030304 0.6553366577056198 -0.29078533978353144
Ni 5.9013788030313945 2.312547985302016 8.481931688864275 -2.1377882035358473 -1.5607899738308153 1.303390408596581
Ni 3.1013304313312724 1.8582423395556578 11.11233731533807 0.1209143536895853 0.6940780401398756 1.6582838917139309
Ni 8.674968010735988 3.2201929915360337 2.6258157714949784 2.559510571352289 1.0213421915757313 0.6363950836061104
Ni 7.235032454347738 1.4897750342903189 12.032269301773377 0.3363799976941949 -1.8985902489113045 -0.9545248768408657
Ni 5.356062348654515 0.4608839642134169 0.16619064377270384 0.4359300267753912 0.635490312403654 0.8211946659854308
Ni 0.19147321336499426 1.351681502760486 4.18300909668776 0.4500363842697862 0.49845462767217386 -0.44145815568247193
Ni 7.435754533380055 0.5038523960553503 8.858415372422854 -0.3452749861909795 0.7401087571466931 0.5765721979112071
Ni 8.48038468511187 5.853102433636043 12.871976875613004 0.3473400962501244 -0.2183367949048175 1.3101094724879694
Ni 1.829916918736957 3.155745554134823 6.20703188245042 0.8808118634274313 -1.289589498157747 0.9033154438465861
Ni 6.987256072570775 2.212887976267657 1.7596120874587553 -1.7389571384952822 -1.4624113393499008 -1.4101472398388617
Ni 3.495726391038345 8.408993256586877 6.549337488005751 -0.46004594598698834 1.4177520487693132 0.18898893787031967
Ni 2.3880508628689205 4.531309460200976 8.243713005102025 0.6181934729964192 -0.206472953587696 0.552514642741371
Ni 0.7948747798514991 0.7493608494898384 0.2808744939028405 -1.1032097157754999 0.8736017188322374 0.30725094153872246
Ni 2.6922601984308323 9.33912807854785 9.531115696712328 -2.6115579268668316 0.20339688576553358 2.440582651965113
Ni 6.8042113297417 9.187392872777572 2.5573771970399486 -0.9208837917476527 -0.23223926391852262 -0.6989525946233575
Ni 5.581898371028096 3.066326274165687 11.076176457877514 0.07781366584536921 -0.05156475945116926 -4.192191932006767
Ni 4.908463859409709 7.843735327018237 13.117641639898165 -0.38237189104327696 0.348694810505806 -0.3509998044898987
Ni 0.011854993850341822 7.914444671831207 0.3274816528807147 0.7822686783441948 -0.5389029654952073 -0.6586793489256075
Ni 3.376759623599802 3.7719702944073457 2.820831083470044 -0.4647844891132383 -0.6969427632821804 -0.5076203533318419
Ni 5.518966675209156 5.016915169621243 12.87881287014905 -0.39185849037747356 -0.2440192872725862 -2.3358510786829774
P 7.2420806527053 2.8530045932307364 4.277015389620246 -0.6875854904369965 0.7665245281360604 -0.874784683396745
P 3.2776490708890167 9.657926426839126 12.331370588203034 0.4101269496693582 -0.6836707287636226 1.6310422823891588
P 0.929910302739099 7.52365807176692 10.004725258847403 4.015081233631273 0.3192014290323793 0.7353367896793465
P 6.944957409040508 3.069878793499136 13.306791979288327 -0.04912555388205733 1.1922925267767852 1.5042796974489125
P 1.5487942221500195 2.3968895309705416 2.7428253376154133 -0.7045411444547286 1.7017751301283466 -0.017481444614215056
P 3.668520931417308 6.241956463182936 12.974912781142049 -0.9277177839503506 2.2002809227534303 -0.460489204171994
P 4.323889698051995 4.298122091153378 9.66535924462319 0.3988752880149389 -0.17473602749573133 -1.7942440839930456
P 1.7536940639184735 3.297126350221207 12.475444667613418 0.6407317633082513 0.009655520811893048 0.2654504605631686
Ni 3.383589934104913 4.371209255573537 13.552415060679975 -1.4547085713890044 -3.0448721132859307 1.6511362249255563
Ni 8.90868588933738 3.1386460944098213 5.524611865264629 -0.30356063717132886 0.45503923680101627 1.350517958212003
Ni 9.23263775900838 0.3397800011438709 6.422816643456561 -0.4091674139695663 1.0948109501888434 -0.12428661259592788
Ni 7.561096888849027 8.47340280044853 7.114914670645156 0.514112645924405 -2.5356718170614783 0.05140226573137598
Ni 3.1448795816669133 5.036562969881438 11.229956020106881 -1.2811210556754193 -1.3165698834013326 -0.697667814373663
Ni 4.03446831630212 1.4191509499413508 6.6801005143083225 0.20434665127331259 -0.43040986828811034 -0.035154950634578165
Ni 4.4655073287606095 9.136966045012374 8.546849006155991 3.448731227668706 0.18495436278962984 -0.8714340217569573
Ni 8.695695776873551 7.3795110472928895 11.207203791618495 0.29999348864536074 1.3849234322750665 0.8076603789444219
Ni 8.190878042897992 2.6342641361391648 9.828511773861928 -2.470936838776938 1.9806655182465047 -0.9724421234409187
Ni 3.3206961318255304 0.9555424402338009 4.361385355443439 -1.174292747765255 -0.6939692824761532 0.43359315111209845
Ni 6.548003635413352 4.81872248435434 9.16188388928643 -0.36520386390442267 0.5979100401570349 -0.23728942474792036
Ni 2.602139887979896 6.579881575565501 5.508250382222496 -0.6507672931673825 -1.7610148896262703 -0.8014426801694842
Ni 3.980678436901257 5.996538954243383 2.3308193027378112 1.3792955445653279 -0.3726868025450291 1.0640682696893482
Ni 1.302296747333099 8.716073027770216 4.734264416051678 0.3295346926375873 -1.8873090195705302 -1.5568556717734157
Ni 6.71980347037895 5.568938780499674 0.6870278715958964 1.0631532140742463 -0.9549437095458393 2.81499235073852
Ni 7.120783432584015 7.681389930172058 0.07375030136240299 -0.5636423772234164 1.7522916508206594 -0.6554323027432195
Ni 0.10344178428212597 1.1791711639281983 8.90774802423335 1.9639168380332561 -2.9379931546434888 -1.7018288661844174
Ni 9.084417179031995 9.300078786034577 2.3779607606234356 0.2871788533791958 -0.06279996604535637 0.2810593707450192
Ni 9.53297248015061 4.923403387379973 8.110703839242225 -0.567706519990461 -1.5859037381793075 0.13468595355238094
Ni 7.560234810824111 4.201313570970668 11.486435600581547 0.7186274473444657 -0.5423521003860724 0.29146308257684644
Ni 4.804408199786764 2.6192772412444545 4.322285853990254 1.7794404433213096 0.8736670248525341 0.33853483925366856
Ni 4.715671003529649 8.230514685274395 2.027322365719567 -0.2663153796666252 -0.24556246338999 -0.14158190934126583
Ni 6.715114144858797 7.9366881795510436 9.297832646477348 -1.2933880459682308 -1.9310640531692933 -0.575110525764016
Ni 4.431403143159499 6.237683966597907 7.096709666903586 -3.0459092963011933 -0.07367007599064086 0.08360636126774634
P 4.9575075729810845 4.171226100562577 1.1610533153276081 0.08706398079904361 -0.43853172606429636 0.7717096718814258
P 3.7034303547340013 4.577463791381146 5.652046891455626 -2.423841685061348 -0.26275183068508295 -1.4480226747283966
P 9.361466320116577 5.407976497847318 1.0460142132641266 -2.0619008081789136 2.662547530540821 0.4133750242930106
P 6.223615990037449 6.544204808072784 3.502086821652952 0.01713100325333179 0.8641567713692536 -1.747562106555474
P 0.8235204010794548 3.0464037457437048 9.21268681043173 1.536789754261476 2.6227519958104377 -0.3764262149828033
P 7.38918337326476 3.2539371885113555 7.650765318840749 3.061650875406166 2.154689093056244 -1.6918974660033186
P 2.5356083059030614 7.62564853348402 2.495302842553482 -0.6937203996901408 0.009713370633021983 0.40139059823762485
P 8.614177299902007 8.215082541289892 4.916314453467387 0.47513549333025906 0.0492700498797216 -0.5835848817836143
Ni 2.9347220112849546 6.8812204755059865 8.800971608470226 -0.9254701255667546 0.7528493446418132 0.6851858798565684
Ni 0.9836120796604932 9.198846195108612 12.072339825177707 -0.4539532028256892 0.1889542279776423 0.06646404516050489
Ni 8.119003471743651 6.979791045278087 2.0562588198636207 -0.2619103086203941 -0.5569454248192149 1.6747960304363412
Ni 8.837777603441737 6.994920040946136 8.9075812926593 -1.8445813987950166 -0.7727494259998497 -2.3361184734117506
Ni 4.579784770679 7.557771730752919 4.657187061916188 0.7546018085565456 0.7716497651777678 -0.9892784782719671
Ni 3.3030566891618447 2.308777578116115 8.983493420453417 0.05405101620813271 0.2355007082786138 -1.5871998312829119
Ni 1.4815995031309412 4.360703271731417 4.32356097159634 0.09282068077716273 0.30291734716037505 -0.5797549665145628
Ni 6.325521191290546 4.352584580881374 2.9029549097360086 -0.5332951323901267 0.42048669563712743 0.3665385235554462
Ni 6.968271409252822 0.7818848744914314 4.6623311099110225 0.8028056219552818 -0.29292321206214067 0.043281436396454494
Ni 2.63019058063681 8.583417219166781 0.3873174465178643 0.20869438671904703 -0.21581351426233156 -0.5659352870226512
Ni 2.4876066646694976 7.631787286892219 11.71639159804344 1.5391335719033044 -0.8808149487512249 -1.1408948890310997
Ni 3.091392850582504 1.7588286385284184 0.4139622888572213 -0.7107691276423114 -0.2440550256065281 0.3334029173437419
Ni 4.818902478667235 2.6193814484782356 12.91916096373063 -0.44492348852325314 -1.1911710115778325 3.18453443700698
Ni 0.1723597120125493 5.380816303369988 10.671865653545408 0.7527686120025487 -1.496334731570223 -1.0087422434235338
Ni 6.739138648937802 8.310309006196105 11.583034758958208 -1.666867262507568 1.794895087313483 0.32674838814170176
Ni 1.9638611076853212 0.36376376966785245 2.414550762419472 0.945607776856894 -0.9385904649987965 -0.20270783011830895
Ni 5.6566717979585315 5.381119451686443 5.196060667229925 0.5253367967749984 -0.8312906167688523 0.08040919448668733
Ni 1.1702661821323528 3.9243402169651986 0.9132949329819354 2.1894288105302744 -2.9323570394036342 0.5808947365459608
Ni 2.1323357845548108 6.123160216672398 0.8476547964231744 -0.007241254943445594 1.5058154173671485 2.0006879841150194
Ni 7.888771798781482 5.211678489558255 6.321295114291477 0.09631455286303413 -0.08287282553583147 0.7370311466626338
Ni 1.0382545637013847 8.566526173909343 8.048087607140095 0.6509904649217821 0.6906846981876105 -0.1479998970524677
Ni 9.21422149878378 2.8982589528464335 13.172381699803415 -1.4201557731147996 0.3138157392404337 0.4845524157687849
Ni 0.46991873138224455 1.9826468299206002 11.174717660156459 1.3428866669189905 0.4834473556300642 0.10295905476274528
Ni 4.637657678967107 3.7942801158214055 7.313894594196351 0.05813701335204826 0.22953549183411434 0.5842777940855809
P 6.351885621437185 6.446932092030503 7.262662528715571 3.5098887730146324 0.5146690326485072 0.7763425426677469
P 6.7132668348054025 6.111384799255125 11.422516778057155 0.28215388936077856 1.6291031563849168 -1.0242354539631264
P 7.8720607478369375 0.2180934249036394 0.4495215863773133 0.35282297374156657 0.17577603872447145 0.5778405231006692
P 4.654131895289423 0.8350078275960957 2.6290329330033497 0.7716063135343421 0.4562774800834916 -0.5110566327069005
P 8.77622902181662 0.19718850646864716 10.786642342847458 -1.7888352542726482 -0.2923082041859611 0.20226919991899361
P 1.80119361575291 0.6031959940344093 6.116935255461707 2.2857988992215925 2.281601316200477 1.848473277650255
P 5.472632349716091 0.9355640188409721 10.084727994236676 0.049222227360921675 -0.5269671332895699 1.0242717065177005
P 5.910255364672572 9.249254076104032 6.201735312958869 -3.461732782134696 0.41504572712721427 -0.05690031273146975
