# total energy = -340893.32412062475 ev
CRYSTAL
PRIMVEC
9.02651692131934 0.00000000000000 0.00000000000000
0.00000000000000 9.02651692131934 0.00000000000000
0.00000000000000 0.00000000000000 13.21121992866713
PRIMCOORD
 96 1
Ni 6.479829625576431 1.9133869065423608 11.428260100023062 -0.2785808272975396 0.41290734062797274 -0.5382180236130407
Ni 4.664615117514803 0.3920378793982588 5.9584191918176455 -0.4414998075536848 -1.0041445967505223 -0.22915342590434729
Ni 2.763738963482031 1.6312450658553208 4.958672863243624 -0.4718131138252455 -0.22173116529834716 -0.38494376553551124
Ni 3.4111297865269545 4.255045936872587 5.067282623287731 -0.46095585939576744 0.624255362919783 -0.41708229794126883
Ni 5.220883251826461 4.329686205632901 2.80034239241539 1.0958643311540224 0.6937458536114375 0.6967170204246195
Ni 7.240295626606655 6.012084543112928 2.649034499185056 0.2265833511843259 -0.5948393716515111 -0.5886054749266573
Ni 5.34217256024735 4.557145406563019 11.669721234064923 -0.839235839757858 -1.3029929160478462 -0.986930546865081
Ni 5.487102316592205 7.75058268351294 12.428151755520176 0.6733480066813758 0.9547421350579945 -0.11661058410790885
Ni 2.071865464847456 6.517614625580141 0.5005113390362372 -1.5754529751596287 -0.6719670671734492 -0.9850983787523485
Ni 2.6216796395311515 1.7269261456544898 0.228493639773985 0.27696591740193593 -0.7340751493581035 1.0394522709128808
Ni 0.4968628208801218 9.07110795597894 4.361961419682892 0.65130208262493 0.30133971826061007 1.340950369128226
Ni 8.807280918208177 2.4995057324479677 1.2980988910734508 -0.014453713531484785 0.07758123811958897 -0.01757503276928586
Ni 6.873331606025957 0.5480251190217906 4.842083662204944 0.03351741503115518 0.1741636999320291 -1.3666835122282721
Ni 0.8550828544795517 7.404668500488058 2.327764512770333 -1.543838176467825 -0.06113054876273343 0.8057284520290318
Ni 7.3970140141041245 3.6409629614181283 3.785714895378827 0.9358627816549883 0.17938535334228461 -0.3040278066157345
Ni 7.6261250676383225 3.8645227070205825 12.558308714204717 0.16172495994804406 -0.23445889727766073 0.24606537116833752
Ni 7.960566547604268 8.700975627944514 7.00073096377855 -0.11556080268715581 0.20156266077027224 -0.276718063057188
Ni 6.6997516848431236 0.741512120713027 0.47547178098313403 0.6885491399018464 -0.8295461232739197 -0.5822864746871649
Ni 2.103900573546253 6.622710362570869 9.255965607454328 -1.0661598621110542 -0.18980860555813764 -0.4327007212048161
Ni 0.03837443156134025 5.005573742727444 1.2169604327520593 0.4638239249721819 -0.6813287108940073 0.38516616595896247
Ni 6.452226536706067 1.76483751689567 6.848907656429675 0.7107899535779177 1.3463717972541136 0.8377199173339637
Ni 3.8145158030500737 4.442553773728071 1.0153432472329822 -0.5157350120191763 0.6192198573784045 -0.9630393420697801
Ni 5.832113847920869 5.714841339548152 4.7608477175003605 0.5114847213832545 -0.5810137786223284 0.818463640207513
Ni 5.325654034206551 2.9274348485912696 9.303407175304184 0.290456495689203 -0.5834249591669823 0.15393811691377357
P 0.23083060501549493 5.661945950149742 12.302512568575208 0.3511509853557824 -0.5314583362917041 0.4124093179456317
P 3.921795957145651 5.966247889978949 12.73487641250203 0.19614997439513315 0.9699093297167362 -0.8311342936966459
P 2.158610292854061 8.75724693468678 1.3244779842437422 1.6040104750823472 -0.9557011565371542 -1.1576134873373611
P 6.409404740237458 7.631703455120954 5.685461832139629 -0.6254992626292131 0.4019292443499143 0.7880071234898687
P 4.757705586945824 0.9408699690364687 12.481048950221975 -0.2749422021036878 0.10966063515263694 -0.4687095351992573
P 4.126038956449028 6.279377763397172 8.333293999265322 -0.3415689980943021 -0.47596544543072217 -1.2320579796001814
P 4.504583998292212 0.8734382767221565 3.627140655993933 0.7451393775920652 0.3077487071107474 0.7294703035962404
P 0.21541602199917032 5.611875860560499 3.582724776629802 -0.323071710621063 -0.8857748638596616 -0.3963530358137174
Ni 1.6431329886945196 1.213795735905117 2.73486764897848 -0.0934104918423617 1.404911188250903 -0.9736420572862908
Ni 1.8795103883832776 6.21519020127907 4.920942022341687 -0.19162611838285062 0.25395840076316906 -0.9447168896115086
Ni 6.076958120520157 5.594084595628031 9.192684307639228 -0.2577955151210722 0.7197685029274442 0.009913402458970025
Ni 8.679239775099571 2.3464882169049948 10.100546109448377 -0.05125519863055044 1.1531112285916334 -0.0925658844538793
Ni 2.550956879132426 5.278734199037109 7.086802413619775 -1.3168323930340997 -0.6632224882115997 0.9091706170757826
Ni 0.33970574465829073 0.11438582824821018 9.303605758677353 0.970366986079445 -0.27852374880735903 0.18697884941882637
Ni 1.4418236074038533 1.0093361001946477 11.489256788395032 0.1630699040117127 0.600741596068559 -0.989925882047979
Ni 4.045080125815184 6.938855092654463 1.6937175897506085 1.1975314065782214 0.11823140754078347 -0.3078152986826247
Ni 5.732280570319094 7.868189173013258 7.94059086556695 -0.9182270708510959 -0.18307900014378792 -0.6893325550350903
Ni 5.045028648369158 2.733274468734654 5.0544541373810725 1.414004665911739 -0.6491387564250239 -0.708235048366548
Ni 0.86823358704176 7.446190478514112 6.643301653065007 -0.3603524493493923 -0.793366588029569 1.1728259334117412
Ni 5.118820424535027 4.351385952409995 7.262498150378543 0.1416814110336076 0.6878156041699316 -0.7567095989281678
Ni 8.10491860686354 7.2298338934474815 9.128886691053893 0.38722356270862346 -0.14957804017286497 0.09286284686900781
Ni 4.507246820796056 0.45706310229045244 10.288356334622094 0.23523845575616262 -0.6924037377612463 0.3280308543985512
Ni 8.255778784852552 7.240557395598559 4.5074968553159085 -0.8419750930658919 -0.4876855620811279 1.3184313620901038
Ni 7.330010178693819 6.140667277239264 7.048437008575397 -0.123800931208761 -0.6473875780618722 -1.0689991313320624
Ni 2.158474895099628 5.341594863161771 2.6787732619686726 0.9080868970933007 -0.39404829893994076 -1.190084720492189
Ni 2.3720874190097536 5.324318109696147 11.325093329707151 -0.9659883973957751 -0.7173660641335388 0.7106760537078729
Ni 1.2630534389677646 3.502360793463766 3.844610210602001 -0.8042917195825051 -0.772179926649625 0.05890371631474372
Ni 3.6423079124454936 2.7331390709802212 2.7892054757874454 -1.1248087821025146 -0.5512936258500764 -0.12261796664425335
Ni 1.1513863976285648 3.303678128609096 8.199742167551303 -0.6934342359082896 0.5623750804752186 -0.29293272514383745
Ni 3.540606145832547 2.604114037522738 7.192623882574264 -0.5691152274125295 0.30685499165188446 -0.5056933115124581
Ni 3.912931917488785 6.883486437608415 5.990641149417559 1.311394252737664 0.452305382809621 -0.34665566858859004
Ni 0.8696281839124178 7.536211932177991 11.51166240879857 0.29155692784223336 -0.06627635462973101 -0.4664708756767256
P 0.25852756966226564 5.717440976433261 7.963195069343655 0.9377080623938432 -0.298654201008647 -0.9633381042571216
P 8.490901498683566 1.607144265566285 7.956034333437553 -0.36782561779798584 0.39350348218006426 -0.5613211852894074
P 1.8722620952626425 3.102224323047034 10.246345119376688 0.21706538439156164 0.3795393066904883 1.3825212505914772
P 3.9583262712916167 6.010089682864285 3.70874578524227 -0.08073161082311257 0.2949047612685437 0.5104501094711531
P 7.056967067104663 4.052373551520629 10.278328776928802 -0.004858356533565827 -0.9277136701852926 0.769610623260552
P 6.314978346296033 7.666780500036007 10.151290479854698 -0.546739945041123 0.526309445100913 1.596405923262212
P 2.351687490675214 8.528794816890821 5.532700669678382 0.6641084903609789 -0.36045040837983733 0.6479023129147615
P 7.02746840967224 3.9408689874867493 1.5840517272219252 -0.7817002074352344 0.3875236104475455 -0.8023531077988956
Ni 5.208525950105229 2.729763153636364 0.40681157971026816 0.7237691394464051 0.560148505137545 0.02478414892321538
Ni 1.3771576398867547 0.8226523843378108 7.012687488146661 -0.7795811042097025 1.3907156134768115 -0.6643599442501525
Ni 6.816663132537355 0.6046096459026443 9.09301892325295 0.11912640855122711 0.5563317024946159 1.168447858948704
Ni 2.532073405647534 1.3851731869491755 9.019841852892208 0.6913531850095449 0.017111205758989886 1.1240027412614513
Ni 6.199005656365871 1.906111533870839 2.5213480981930645 0.48409270252354697 -0.09458677153865 0.7683029601927219
Ni 4.2229837486229025 6.569968423960819 10.58436741862153 0.6693440277283053 1.2158685143245125 -0.31931404335084357
Ni 8.297336868946454 7.213667401568207 0.46564370931470617 -0.9807763543382271 -0.5883740756421415 -0.411036348857505
Ni 7.608063007196989 3.8304656585222556 8.070839894724505 0.42388620823697964 -0.24873829001481032 -0.262537914902064
Ni 3.1394045464142772 8.228067377778642 12.475130263049872 -0.013868787562292244 1.234926302286912 -0.5454039998385187
Ni 0.12755461384434297 5.1680600745637495 10.017777462163615 -0.257553317203279 -1.316770686558229 0.9293969714249865
Ni 8.536774257885394 2.192685394386312 5.461584353140107 0.7046370466026445 0.27740814714567713 0.9522466223296503
Ni 3.6873953646716116 2.7890402905270375 11.573438085584376 -0.3379961931413792 0.015853679202804956 -1.0372799458519104
Ni 1.1374765349898364 3.4561630796512994 12.444242424656967 -0.5768987280126904 0.15878618903469427 -0.6824489405413795
Ni 3.160869603750355 8.328541538084732 7.833460551652945 0.35387944003053895 0.1237831905969481 0.0918698868281192
Ni 5.69257292220244 7.825547906883893 3.509217335748242 -1.8043233226059183 0.5756347736986022 0.4985312465463801
Ni 2.900445562874334 8.12052545469116 3.424784198735653 0.7599905836722847 0.6693548263615827 0.7129203696573593
Ni 3.4169428634506023 4.345464557282801 9.315112762500744 0.35510997000353034 0.10185116641054716 -0.1674163539058665
Ni 7.14603170997055 6.0678052323205005 11.612226834274281 1.2855878331975215 0.8978515925185376 -1.390663162972321
Ni 0.3084622614970772 0.22732831643416684 0.3662825185500542 0.19383880976345327 0.5501299445592783 0.28360347732311164
Ni 4.362524674341332 0.45347867240476847 1.4004821597170425 -0.02539838546844658 -0.8981619246701048 0.7112596941254847
Ni 5.89827821725369 5.698918563626856 0.4211845026691566 1.0513459370266731 -0.5538338757734268 1.7150877880768525
Ni 7.885177077936092 8.750531206066913 11.620298345741869 -0.9145989871802055 0.08598617435383256 -0.9405352474299932
Ni -0.11078334532860185 4.719920586942115 5.610699705400325 0.28372843293675004 0.4212258877959972 0.9918256701738531
Ni 7.752694888482091 8.689656375673934 2.5299088468800015 1.3016446295500679 1.2353104250992082 0.44628411631620557
P 8.502419334327316 1.6637856595040008 3.314021614396064 -0.5614571966466395 -0.14329349271573388 0.30463715806495917
P 1.981239234547111 3.494480644155778 1.2802624935561717 -1.3929110784662333 -0.2939238854125132 1.498937973521025
P 4.8065029376434 1.0697325251886325 8.11981416515454 -0.4548644017860489 -0.378610881338948 0.2490378235331001
P 8.537857439920856 1.7975857204344798 12.210813988059755 -0.7046599294207799 -0.7467923398144558 1.420800862897966
P 6.297557168559014 7.694031554744846 1.4443564480634425 -0.8800893834391101 -0.4453528627511878 -1.8375221779553903
P 1.544798112908468 3.191631973557484 6.078152328714253 1.0431644296571454 -0.05689388497356653 -0.8869303176203436
P 6.793040737647314 4.0068889325481765 5.833546356162768 -0.23695749532979835 -0.6135989116472013 1.19629290618543
P 2.4291079266598814 8.525924384496847 10.188004032294995 0.004813619338559452 -0.15399159585952835 0.16735644720220857
