# total energy = -340895.71999508137 ev
CRYSTAL
PRIMVEC
9.03877476002688 0.00000000000000 0.00000000000000
0.00000000000000 9.03877476002688 0.00000000000000
0.00000000000000 0.00000000000000 13.22916051465997
PRIMCOORD
 96 1
Ni 6.292930613422824 2.02498383993013 11.42129011272797 0.3597947770737094 0.17989006089284504 0.23255268139388335
Ni 4.78355464449819 0.5728025264532467 6.025314183972183 -0.7516962048739765 -0.9159449596851387 0.48864355511902297
Ni 2.682283545061602 1.590670709683056 4.731316853163395 0.7479598777599957 -0.6297665225459993 1.196796585294726
Ni 3.4391905487429755 4.345671198196015 5.003413803293816 0.3106067453848328 -0.5017011596339296 -0.5153902270852478
Ni 5.101403161150393 4.583698294385951 2.6858900162159953 0.6364125671076072 -0.25773766529994324 -0.5255936499808109
Ni 7.344664374282117 6.284407048764697 2.606197850233698 -0.010086694812040692 -1.3237363192427847 -0.4222417306550212
Ni 4.9583103169268465 4.656975641876337 11.414027457157657 -0.019417485294663334 -0.3393380518812543 -0.45342612667762555
Ni 5.6151671220919885 7.8721220790806195 12.45476554844472 0.14386530605880385 0.6311346065381195 -0.09732319663320659
Ni 2.020916391259762 6.475007693458142 0.18203459779365033 -0.2899618154409716 0.2314314233052466 1.3504287409323064
Ni 2.8787593933900233 1.5450429743763499 0.5647995952249271 -0.5947033602942791 -0.38816150114186054 -0.6791479011926046
Ni 0.6054758896835719 0.225612338970491 4.764984481624254 0.04702162016517708 -1.3113371742474835 -0.10831620530960055
Ni 8.669441444995805 2.3900057223837794 1.4363959971259261 0.15365169602160633 -0.15633412794977594 -0.2176125151442833
Ni 7.08558597152932 0.662247530469604 4.933021632726945 -1.0564295221971676 0.05164086410474332 -0.3506483346877509
Ni 0.7071187203236218 7.273212859305986 2.6143200932896815 0.34188267267997896 0.6466540423299573 -1.0279126457043974
Ni 7.674380802276972 3.8231667420005393 3.79239061760557 0.5753928328911252 1.0284862588196804 -0.0004424868540573025
Ni 7.7994593682782005 3.8327207269884926 12.670162264110212 -0.1776953672343714 -0.10086771945135532 -0.4711896213086337
Ni 7.8434872404412275 -0.4312200615026298 6.991571866839916 -0.016540677967500545 0.1070476230098221 0.004737000464353132
Ni 7.026879129053675 0.6889101084426076 0.41822772657199203 0.23860840066966002 0.16728291365179576 -0.49253723374647435
Ni 1.6288143394362848 6.449436999483762 9.133201095861377 2.421547489710533 1.086394443990374 0.9874265126648929
Ni 0.17710846551509352 4.834461024301551 1.3685834928935505 -0.3596135143008387 0.14973590590696792 0.02635894960950299
Ni 6.31911594408517 2.1627890008821984 7.114523609125283 0.5227412681336804 -0.5978133666781704 -0.7015095567172563
Ni 3.5450526794704205 4.26014631082041 0.5744846424478145 -0.10088983093854237 0.1580624234947923 -0.6177795253874522
Ni 5.978959731169705 5.656627982205274 4.762220424283369 -0.5458356880592986 0.7985141936687796 -0.20402886292257766
Ni 5.321153854648142 2.9750042677057538 9.226399903061743 0.18752803705407706 -0.30227791380416325 0.4196022361496451
P 0.32813193076837577 5.563158011760217 12.47687077615195 -0.6219043461891032 -0.7124722263763472 -0.5795150825896148
P 4.011191335869419 6.3993712257389435 12.493606067736806 -0.44019111604459027 -2.004867055193373 1.064761696211947
P 2.2246051818969694 8.420829943488087 1.4662275695518876 0.30229154065091807 0.2699781732301931 -1.910517853586826
P 6.149042357014849 7.815069332397591 5.698606764115919 1.0460296670200822 -1.1055620180577606 0.22918222225975368
P 4.615080920571547 0.9926834449403729 12.584318307983356 0.8589274046495142 0.603037076970955 1.0735060180634801
P 3.9338375009338415 6.208571727999391 8.360353308902091 -0.7562971939810974 -0.7202225597457274 -1.0828638051292965
P 4.896078352270216 0.9781852501242165 3.927909872404892 -0.3992596679375511 0.42389726398057315 -0.7116867543605743
P 0.2554728354758861 5.533086007923962 3.6211383742983245 -0.5662762153018377 -1.0157546701856248 0.42988304925036297
Ni 1.4780023815138619 1.167005256177523 2.586684943145719 -0.4419728905353614 -0.011627042715967071 0.013314457720719005
Ni 1.8268810121335612 6.377325653945548 4.935429562339802 1.3280848260194675 0.37093305307871605 -1.2853618332296444
Ni 5.8499312205708085 5.668785134342263 9.139206457853806 0.33335175239083237 -0.1827920650309884 0.5938939770191062
Ni 8.399561706329475 2.2975209783944335 9.962708442798892 0.9048298236085837 0.4626304188847129 0.18742545003794173
Ni 2.4433796877138305 5.123665663539541 7.0692140386923485 -0.6420489394577782 0.48400554212637925 0.6086279407951711
Ni 0.5996196674757241 0.05790781478128834 8.913279569519473 -0.3829676156457469 -0.5558537344169331 0.9741537068153867
Ni 1.3644030595378946 1.1458545230916093 11.288389390994881 -0.6500293865600935 0.5059113410605351 0.7914981673622628
Ni 4.0584641281939176 6.756438986348317 1.5550615523902076 0.28095935483204515 0.9989887635811957 0.25598957226058494
Ni 5.54405004178431 7.893986875377553 7.896234818676042 0.1643197172584138 0.3920736917120732 0.4895346994747246
Ni 5.4786906610389075 3.0542020127052303 4.74950648361728 -0.36681183182149085 -0.5800290461115559 0.6131597672272537
Ni 0.7786100059089747 7.260504341904792 6.83844417480783 -0.11717031326612079 0.3214750555579044 0.8126498617392133
Ni 5.0331332949119725 4.43066279785706 7.019180804536892 -0.05801102929714525 0.46988324379238433 0.19976186011610758
Ni 8.098217992504143 7.25877793591359 9.12308037969202 0.2479145085619343 -0.7675583687172136 -0.035895428345028506
Ni 4.546802015558302 0.4441427978671301 10.534248252409359 0.2404544527394633 -0.9119957452294035 -1.0420370009209214
Ni 8.307709676577742 7.222722263144483 4.783796883663447 -0.7838761320406307 -0.06013167518457386 0.25219899486990116
Ni 7.104422778260536 6.162148580508257 6.960509213283057 0.570184034996676 -0.3895756078805678 0.051801300942007564
Ni 2.268714403033405 5.190344705409108 2.523396345712275 -0.010173340988576026 0.09460348370919835 0.34098227235289663
Ni 2.393196409896312 5.143876364043858 11.334479911572528 -0.3528044617988053 0.14361668038310751 0.21146372193406807
Ni 1.107846474960726 3.3587816079172113 3.859594812292355 0.059092178176465976 0.425598562942396 -0.4093512478455983
Ni 3.7567407858260182 2.5469730859606927 2.8532122002301827 0.16854429686272263 0.6376001596578051 -0.6635258783846315
Ni 1.2328527307633697 3.2158153065411863 8.212861292972171 -1.4046216820349422 0.2617295600681557 -0.27636427926219503
Ni 3.5427839469898372 2.434051672096453 7.138561326889676 0.43160028905178566 0.6793890706691332 -0.31118627203738664
Ni 4.03712358083672 6.855377415561314 6.087596765767824 0.5337661584892742 -0.009390440075964474 -0.26872244644622106
Ni 0.7003667555308108 7.343950311071097 11.278983641914026 -0.2820189064448111 -0.059581459108058676 0.25407332907447855
P 0.1495411061823037 5.488723701092481 8.176997242229312 -1.3808495193160089 -0.1616650532443861 -2.5806823203338976
P 8.417693488624492 1.5129010911056193 7.755158525115516 -0.06845356478670792 0.8132396728044122 0.42179204471211224
P 1.559758099788259 3.180699666353676 10.451843550102668 1.5871988028416473 -0.2784468728228366 -0.4603439368433813
P 3.821259560512878 6.039338746987612 3.732713914591413 1.0132930960190096 1.3134002274240992 0.4377200287962784
P 6.921776255411365 3.9730838612154815 10.457201735817765 -0.7308018779234705 0.2454809594197772 -0.26154186953738184
P 6.247501731162225 7.643269339336069 10.15782576327141 -0.058227516183325535 0.18413160977801835 0.6573035516240034
P 2.492180032983424 8.39693142285597 5.778285371935982 -0.5441130489412371 0.7096103314475198 0.35940988293046483
P 7.082702602360771 4.024677187905394 1.5796678090909693 -0.9787480110542887 0.5336301471320423 0.06908425639217135
Ni 5.4518816549137705 2.753102345800121 0.5861527968668768 -0.09443173401802446 0.8847631347656957 -0.7090277194711725
Ni 1.445815304369016 0.9216929074802163 6.93204068810041 0.5270496657010472 0.5252815180570308 -0.34881308125122507
Ni 7.011693987350967 0.568477472700422 9.250715111213205 -1.9203564369438024 -0.06038184352216698 -1.4502747039873667
Ni 2.687544112008611 1.54441929891356 9.202111811234753 0.32667074082623093 -0.12922364488622906 0.5474115171868509
Ni 6.450051636171729 2.0792797602921316 2.7327208124516478 0.6327181489751555 -0.31826271926819377 -0.1569987581169683
Ni 4.016108429373152 7.050307633394995 10.462215544212107 -0.005704763694261143 -0.12075520240390172 -1.2511926435471035
Ni 7.943962261374141 7.096143260522632 0.07736920085277586 0.37474805594943206 0.5970158104775395 0.8251726767965725
Ni 7.49176139575227 3.934976386561545 8.19217063352475 1.077626467989757 0.1808853349265788 0.03920289545170668
Ni 2.9521542449531086 8.454689193975195 12.309654345803189 0.39737247821716726 0.16231837055766885 0.8686677718657297
Ni 0.019764185028059357 4.758553393337661 10.164493667458366 -0.14218174770879385 -0.041499919015999504 1.2537107819832667
Ni 8.832437671379685 2.388595673511385 5.721042810981669 -0.6239064642207964 0.6644589317218621 1.045814722795799
Ni 3.681502024199033 2.606412069197004 11.396273495650242 -0.7935583923254012 0.5355201650659035 0.22598659814059147
Ni 1.2936475302231372 3.342520852010562 12.674978123335928 -0.42148736898749994 0.026927163408147173 0.35998992380365097
Ni 3.1681628856741195 8.338974798690638 8.175025885440407 -0.5309356310190146 -0.16887802605305754 -0.11610896188114196
Ni 5.567532778774568 7.804249918934412 3.4693872876717875 -0.8992824114277931 0.4997005842641329 0.7180551197807633
Ni 2.788715118602899 8.315754186170247 3.4684743714146604 1.5927703833921538 -0.44610593886712846 1.3415736045345217
Ni 3.334322683246065 4.216823463093579 9.269103594713195 -0.1545361555090887 0.24088614096024322 -0.09335161357996825
Ni 7.170902967083995 5.966196981119572 11.385478486879085 0.17914675496891727 0.11699984912652754 -0.4274068197957284
Ni 0.4986827651493537 9.077189616037964 0.2422924940289291 0.07138873615563189 -0.04367687206266026 0.06532247535689395
Ni 4.949985605314827 0.682643525857794 1.6099097418938968 -1.0069874655159559 -1.936055078625982 0.49187851711655284
Ni 5.8109921786331515 5.457133183085958 0.31448880405047913 0.7216502933311895 0.3090712825769129 0.6995254364076919
Ni 7.8440024506061405 8.836993213890498 11.232019975688475 0.3937945310579218 -0.3923917371731242 1.177893577742636
Ni 0.14681953108308632 4.943803083335867 5.821743801285158 -0.7879911826502687 -0.738908823301321 0.6829194524198948
Ni 8.08307804467555 8.84556197242274 2.696962515374219 -0.6183649655772769 0.4679405182437167 -0.4687365317824508
P 8.506427141062277 1.7133991942302937 3.6518964211436473 0.26194064763769725 0.34072901869150996 -0.9173801494697685
P 1.94104977692338 3.175014276989984 1.7210080348763288 -0.532539999391657 0.09553576571548061 -0.84564251461515
P 4.786745332010724 0.983951988461316 8.38110995140572 0.15843343368096585 0.42145317331545484 -0.7913698693145146
P 8.409856870852916 1.675373068549764 12.191094544204338 0.4517790779925058 -0.047272559833718586 1.219252600305397
P 6.416879332571172 7.925893750502884 1.4850923964850542 -0.05830053551310604 -0.4276965831220053 -0.7861340748368718
P 1.8156277374788765 3.2719641757419113 6.029309322443967 0.26906568871825276 -0.6143638148376839 -0.23544980043602035
P 7.000079161703361 4.149014574371133 5.9438486103696055 -0.2007108542929382 -0.5113739068370032 0.6034227424451478
P 2.238063917608476 8.529566404609259 10.248802839620271 0.5577650925070329 -0.3012160481985522 -0.9029349205787159
