# total energy = -381169.03786188294 ev
CRYSTAL
PRIMVEC
9.26002916300467 0.00000000000000 0.00000000000000
0.00000000000000 9.26002916300467 0.00000000000000
0.00000000000000 0.00000000000000 13.55298869814525
PRIMCOORD
 96 1
Ni 4.120379590955209 9.43383985193732 4.081252263972302 0.5963542656341407 -0.8945304985651046 0.6108457743820964
Ni 8.852800805646684 6.738652820570604 10.808793049616158 -1.6088464630184098 0.6061131447931174 0.2922215580094258
Ni 0.34492867616123724 3.9767935796433913 9.382286491897574 0.4676037037295882 0.5496478627165372 0.44095344813191156
Ni 5.4201635763662255 3.9566715363968687 10.149928088707298 1.2520953578670306 -0.7234762907963347 0.19913091140032801
Ni 6.520069833532332 7.164206718148695 10.016471623234123 0.9109158819016635 0.9883433680522076 -1.2073957009668108
Ni 7.627013712818714 1.578955342887392 5.456040633133059 -1.1110567226237444 -0.3628644171379686 0.33237704718238886
Ni 1.6803804416812997 6.913639590579596 7.250320358816452 0.4335586983297372 -1.4259487256474925 0.1292958928850612
Ni 6.589020010252815 2.0396603109504343 1.4463609861239513 -0.21099886648250757 -0.33907682780006765 -0.6528825397381723
Ni 0.5697519968137899 0.38763778240219965 0.21394371245635407 0.7833176884339994 -0.5713970814681708 0.957010362266881
Ni 2.221212441595313 1.3809666605800293 2.1401658888541535 0.016943826943190174 1.7333205090347954 -1.33600768041097
Ni 3.645645678797145 6.911824624874893 8.89683224404393 -1.117215543136289 1.2311799478706023 0.21201239534868646
Ni 3.851005344272585 3.4263496695177396 5.9491381090104865 -1.711379743097646 -0.6727237428338156 -1.0802803606728362
Ni 2.608189057919371 1.7215505310849073 5.0473223944719035 -0.04508326549188365 -1.1212094947870304 -0.9307226322149454
Ni 7.058938707275954 7.962532347402816 12.325183005851395 0.39066781250348204 -0.45012123067410864 -0.7956445854304685
Ni 8.307311011092542 7.748996076227109 3.32610707644062 1.3624890145309503 1.7246633475804298 0.5788998176031191
Ni 4.85222747126005 6.033344183682485 10.876815371420255 -1.2706368683146438 -0.3449222308372511 1.3084914772685723
Ni 5.296245866874755 4.851218128087536 13.21954439695995 1.054624864888261 -0.21546410134271282 -1.0630251731368145
Ni 4.332665758201656 2.0419290180813126 2.9505943761493256 0.3880416877345446 2.654599479338338 -0.13935533400359226
Ni 4.638672680026131 8.481427338365604 10.833621965657068 -0.07726370687917015 0.9219734252674057 -1.3877747856809326
Ni 3.270957121096251 5.7692296335318565 0.008300690090282021 -0.5975410868533902 -0.34830734525940016 -0.3454210248505406
Ni 8.372751636781993 3.889332604740766 11.549856510886915 -0.5273247737393048 2.41193979141744 1.6094792115064025
Ni 7.9010550141705735 1.0162604142549987 12.794088655690377 -0.9497976465685256 -0.5676414710804805 -1.3401134750492276
Ni 8.459916290753238 6.401819261853505 -0.06509615260672083 -1.0029284649552341 -0.4319425028825529 0.1170273599303533
Ni 1.732588485778812 9.23730499419954 6.507656764516243 0.7153320644226455 -2.1323924864415726 0.6304720332534561
P 0.7624504244931091 3.0404935167154625 1.9497870984657935 -0.6519142622876322 -1.4569796268113682 1.3633354216916456
Ni 6.339619646351023 5.370261279516014 7.71007802590199 0.359384171898852 -0.6244602798417374 2.228147053036079
P 0.9862023597781409 6.268882284013156 9.335216837950773 2.347460895007764 -1.746393797278986 0.11943956891627171
Ni 1.0489390569687485 8.321775176555528 8.958498481869928 -0.35574194716057445 1.409165849762199 0.007504793017477398
P -0.04771507797546318 0.4250825620966144 4.596144144352729 0.4643949669843034 -0.616009577971223 0.08988422385665809
P 2.471983289804737 2.897935368634369 10.05952983257237 -0.35093244158707304 -0.81325509942338 -0.06694149901755568
P 4.163873947664328 7.487502114313373 12.560109944261095 0.1326475829661135 -0.6521279209603349 2.418597920163906
Ni 5.395022597344454 0.2735523718150817 12.839220185545374 -0.9683874937555709 0.45717710907962555 2.6129514647802483
Ni 9.18676375534104 2.769267264211713 4.2323000067374315 -0.13645872918208757 0.8234783198132851 -0.6473163585043046
Ni 8.670887533866686 1.1653931830010853 2.4238978106650486 0.7127766449906434 -0.2350307106207307 0.5312210234699174
Ni 2.757284786549035 -0.0893565028605471 12.86063400285213 0.4325248577485841 0.3654103234882739 -0.10599398493432714
Ni 5.9168622775628315 6.906472328051842 0.7279447780368196 -0.4224623313062595 -0.17873460713216316 -0.9594647373446444
Ni 3.4248680648608394 6.109757943862101 2.948358079120317 -0.6972862626645282 0.8764409880532454 0.5909292379638275
Ni 2.2587062994439875 0.6149826089802138 10.33983276560545 0.2716912992665579 -0.22446964727543278 -0.46649504404644176
Ni 1.1485862301743763 5.2566407223899985 11.441947539713249 1.3991629729132162 -1.473307160326798 0.2881558725804844
Ni 4.5204591484637255 9.597834967397935 1.420854235952508 -0.18773603929982507 -1.1897445635439512 0.546256063426169
Ni 4.3710578388735755 2.7631463849728957 0.6455342230084016 0.1694652660150952 0.19565606547785014 -0.5745456543994815
Ni 8.79023078897998 2.8026218890501737 0.3460982178372776 -0.2304556896555386 0.36074222858864324 -1.0748576469953681
Ni 3.5883816588079616 4.124259543150465 11.657305258614032 -0.8272619552254333 -0.7810201506490744 0.9531943309549002
Ni 1.767258034750271 4.006842374091144 7.243272550664162 0.3317080461398223 0.2719728350627187 0.1369310408328158
Ni 1.8206328425150922 7.424654296773497 5.012125949844335 0.8156187145595502 -1.0930278901464916 -0.4003714129444911
Ni 2.7201242897481626 7.648709961013193 1.2247555255856033 -0.46284433466773184 0.6868558113598235 -0.036583969771620865
Ni 7.904518265056077 9.317070884915392 9.698437775607262 0.3398481587484534 -1.2694482473231814 0.8433264648874637
Ni 6.428469625619493 0.041532156541637534 3.254167762324842 -0.11718214034066271 0.8482562980889133 0.49315815515992495
Ni 2.8719146868475636 1.7921952931317184 7.452111209074586 -0.06512912839916525 -0.3870024478367528 0.9118764460427199
Ni 6.01762991429024 3.3881520494570374 6.17330489359945 2.557715684235395 2.0709912005159556 -0.09718564261407778
Ni 6.325979623478438 8.688713089895014 5.696375428540443 -0.3238985773977325 0.3013060368091972 0.6466710116108217
Ni 4.960884652785449 4.850755126632255 2.1807025922669365 1.2313596679815761 -1.6236465041457202 -1.749592763832258
Ni 6.3580100641547945 2.847005208553433 12.536704294693719 -0.4265501282223879 -0.38671911226837913 -0.22628330344540382
Ni 8.533218681153363 3.802214250915048 6.907090897996098 -0.7902956624137292 -1.494589209634026 1.1588725565554427
Ni 6.866589382693917 6.2981254559287185 5.748879793569335 0.08885655392309214 0.6093987575229246 -0.9503018398984536
Ni 2.4607879146160365 4.107758171284242 1.7776644554591723 3.2611612816331 0.3098783518592405 -0.18033434751911526
P 6.739486223190111 3.31948893363883 8.439676645137073 0.2564809100747067 0.2415417722663711 0.41703987473910753
Ni 0.5928687334730715 1.720717128465401 8.964027645248896 0.6409022274478446 -0.6010958940841841 -0.748222387392763
P 2.9856834044392695 5.242250637159857 5.294745742159644 -1.9222824503219216 1.3092790061668742 -0.6586999177508979
Ni 4.32946178813111 3.4674919788340306 8.118172138601425 0.9166880084987504 0.05634958243432231 1.3232519234071987
P 6.982663847532923 5.800009970278953 11.564887390131165 0.11741816761086875 -1.6932753201874515 1.610816185150271
P 3.852746229744442 7.924232867021952 6.886328060735466 -1.6690352166931641 0.8243093003550126 -1.293728717137101
P 5.31329358045821 1.7810925182340747 4.950919935464888 0.31537228509427623 -0.7419974895289737 -0.141476237001337
Ni 6.006721600003814 1.557360955013075 7.471532268117811 -0.18199296616846075 -1.8960492276570056 0.5830981719551829
Ni 1.0401049892019825 5.001601000762882 0.36938626503501326 -1.262045269990891 0.10533938206946374 -0.6549545917758526
Ni 5.006369915752278 5.001934361810684 4.565134158883812 0.688710090959743 0.42334910478658705 -0.20700465772144994
Ni 2.1472155490122655 8.765200930307476 3.1932062127137835 -1.3971911938988262 -0.8048275374813171 0.7309695138495863
Ni 0.5367279550144003 8.843346315929843 11.240306701926627 -1.4662505105903327 1.2328015426344252 0.7194080342642319
Ni 2.2176565904187533 2.663471431679951 13.256543769254383 -0.9072764853768633 0.03516729192975234 0.5172835874532188
Ni 8.78307278648133 4.715438321311761 2.486661361940062 0.8449292905982094 -0.003616256596348611 1.4617600789191472
Ni 8.620735216230623 5.8327071330509135 8.067823508348322 0.19433503267358143 1.3229966128632829 -0.8415439190657442
Ni 6.886489185241904 6.122907185192088 3.0697246505931877 -1.4261006778443246 -1.1900201858028407 0.294915302791505
Ni 1.14953075314315 6.483742739350967 2.9682263975693455 -0.3486091927705351 -0.6974634116723407 -0.5178386886257405
Ni 2.6191714524386422 7.1735593475453765 11.04568589220498 -0.1451904526281306 -0.03517037725354588 -1.1730483338351927
Ni 4.2509552613736235 0.9533755565987012 9.292362349252855 0.3632058596377874 2.4666767779490035 -0.15264176669985324
Ni 0.7323182897834061 1.881980535339856 6.40240449569298 -1.4800619625521283 1.6580563490841573 -0.01215591863624358
Ni 8.952272038299306 7.6972510335848785 5.826525137619998 -0.8591120098564947 0.5759571900350274 0.16690239038392546
Ni 2.0341228135452707 3.6672030265550393 3.958787453047504 0.8047100380668464 1.0023152568512674 0.596844832117314
Ni 7.828224885254834 2.2717351603956013 10.191183370378678 -1.6092154163220542 0.17757092584136516 -0.9137854901399746
Ni 7.4117087760838345 8.77426649880188 1.153717212301803 0.35258848913325724 -0.18797875143825046 -0.5835180331014208
Ni 4.197765654190914 7.312783885148444 4.846264012516026 1.1432770161100312 -0.6425793580399515 0.4637457634360787
Ni 0.6414311041116993 2.111971878236258 11.490846975411323 0.6883691626805564 -0.045180196081064126 0.06497486220948809
Ni 4.310978770036282 5.78574952545629 6.976034592696205 -1.5194273517236283 -0.7638415819872586 -0.8021332784786056
Ni 5.092627086871173 8.403448633267137 8.436911600446134 3.5576382724847693 1.2187828597578299 -0.8305215998133116
Ni 1.1701991381069046 7.331692864582131 12.704124694920504 -0.21347586726809042 -0.5396753248848577 2.6165355825870806
Ni 0.5700103516258367 5.253427492290347 5.512068439236641 0.6202467559810221 0.7231057948307934 -0.5964026023735729
Ni 6.3543708727162835 3.2992279899557233 3.5348096124231905 1.2396375917196523 0.07764500147798886 0.4116207606060653
Ni 8.567156687825477 0.27171240403179403 7.520133530878683 -0.5650379720193623 -0.3977961960181472 -1.2720111229543514
P 6.365260666944498 0.5960940016105605 11.09920608242676 0.9608369351018227 1.2652756040027306 -1.2119185285378289
Ni 3.7325232718661163 1.6688887455612194 11.705445371925444 1.160852563099949 1.488834823648752 -0.04535528820634769
P 7.295856551943363 7.773831474288396 8.1754880147536 0.6386298864739002 -0.011345249809490138 -2.4156558068164466
Ni 3.0598840176626405 4.978506488173453 9.498883222378138 -1.5207890079578454 -1.9273403244608032 0.20380440561659738
P 5.2293791967030385 7.593177566466762 2.5748372110896423 -0.99061185237141 0.5142951942488563 1.2281571018838784
P 0.22365377897651217 7.6557105430170465 1.4513086196750864 0.051548818611569285 0.6956731525411374 -1.0963312434881118
P 7.8378367954664725 4.537210541115801 5.063356134868293 -0.8629290696097396 -0.6329618895548454 -2.208251342553416
Ni 7.215812860354342 4.508143309753245 0.9784785695011392 -1.2528530619686618 -0.16363426115561497 -0.5777070828465986
