# total energy = -340860.5343027928 ev
CRYSTAL
PRIMVEC
9.38486245155786 0.00000000000000 0.00000000000000
0.00000000000000 9.38486245155786 0.00000000000000
0.00000000000000 0.00000000000000 13.73569483428999
PRIMCOORD
 96 1
Ni 6.664341046213749 7.287815004080019 9.508796217473954 -0.29685905678143715 -0.40821404891736146 -0.2290960903038506
Ni 3.190046164827578 4.796997407527486 3.3223070325791713 1.5441788476366956 0.02012890953939114 -0.7546339473460617
Ni 0.7645556579175667 8.514360228654398 6.521954850269635 -0.4513921269667323 -0.18274835627724656 0.024190481203274466
Ni 5.203174258183056 5.641907196983825 4.854428073830323 -0.6941436032704884 -0.779066112246497 -0.676325344142145
Ni 0.5231694855436806 2.729033562360998 11.24686900561331 0.06703045918693616 -0.38937866137841326 0.7894011756239179
Ni 5.4951091771604785 4.324178647987784 8.307266343995288 0.3325837638765562 1.5770126063372647 -0.7625377755741707
Ni 3.6797389072110582 2.456778700126291 8.210511226684664 -0.09483976808972054 -0.0242609294298937 -1.427732814131109
Ni 3.0121185559648476 3.1622857414394265 12.405557920091107 -0.7944335958415027 0.6378282165082112 -1.9480798710009999
Ni 1.4535087401994786 1.165233917611975 8.418909607236593 -0.1809663246761593 -0.21779634902031522 0.6289851642952845
Ni 6.466648916845459 9.624364230228757 10.340258437399232 -0.5943896857086021 0.8380042813436019 0.4384908455240319
Ni 8.129233624672128 4.485419971257501 3.3312630068994253 1.09986651033488 1.0215237114589182 0.35881415832799496
Ni 7.71955622028979 4.021451137091371 10.843918670698391 -0.22543766761565692 0.440306558576532 -0.7640364716068841
Ni 1.22100815567681 8.397396686840157 4.175404176113881 0.8167821387400321 -0.2399767417720964 -0.7837246940644309
Ni 1.3962141544034468 3.19057171712972 6.718869913019758 0.842731254505626 -0.4405616120101316 1.2609960027907703
Ni 1.33099874462513 6.078425308225566 3.2293302609264494 -1.1292261944439197 1.4162430683239544 -1.3501808865875586
Ni 4.721139563630791 7.857889094103632 11.288433623308979 0.8773514156826567 0.3321986126229956 0.44396215305124825
Ni 4.973376514071404 8.792142774924136 8.455597850357384 -0.2566053514677129 0.017800518516530636 0.20355089484489458
Ni 3.17703874534956 1.7154120990544928 0.3792629418683698 -0.8645362661958594 -1.4781652597500476 1.4120501132885295
Ni 0.552695201575277 1.284665678273777 4.724872861948508 -1.0072489467074588 0.21194863199028657 -1.5017188787002715
Ni 1.300460401925656 4.506291905542574 13.293927130989587 -1.4704336954337451 1.0436064022905704 -1.6127668811187383
Ni 2.660336368580989 1.5569111556459452 5.589617558379444 0.120515832699586 -0.3163649880248487 -0.8598293476384933
Ni 7.25365410444078 1.1869786441131063 6.3318804138236455 1.5788915685275324 -1.44288741038436 -1.5695821182011485
Ni 5.146574152214855 6.640860120143041 6.9012525161293965 0.43001083307747884 1.699428484273041 0.897048637001268
Ni 5.274837068525152 3.552742947343424 13.554906080884585 0.3713454580257863 0.314913857400619 -1.3339525976541542
P 9.523195412066395 1.289301800367674 6.773400656798274 -1.6710684450731093 -0.19802507993065896 -0.2887585391614898
P 6.773308685145399 4.061374342329097 6.306249415745424 -0.06192656230146755 0.3373917267881609 0.17321213465203716
P 8.268495599877259 8.724421606848106 11.056822723754935 -1.816379482439504 1.998332853619281 -2.591287092432937
P 1.3500687853028592 8.040940837912247 8.69393957332386 0.01569067126237943 0.23025128695421637 -0.3121671478934172
P 8.335090584448698 8.623806495575499 1.6100022615110938 1.5333421620325076 -0.12303859912143973 1.4760530985030516
P 5.441399608854059 6.867485780716764 2.0166605556148767 -1.1223217540146027 -0.25091395750989043 -0.5315807208021813
P 6.526993582966424 2.5152276240145284 9.875017015872915 0.3136411613357824 -0.628594356614769 0.1064318438026941
P 8.306494908294642 5.828891198195969 9.669379661879738 0.16924672224638596 0.005261762619571583 -0.34795613256756847
Ni 2.504191025669543 8.7543030091699 12.347949879886299 1.7316297515959338 -1.0032837914121238 2.5925124801996065
Ni 2.8601588617454627 4.7886261101433645 9.590852763077164 0.9456432580805197 0.7766359055384495 0.6258641021677995
Ni 8.63368875582828 3.2073800059357302 7.716191747069826 -1.1444211570168032 -1.0817708291754335 2.226930664130474
Ni 0.741240843913786 4.0506474444478755 1.6912348161834465 -0.43294908977019625 0.3825703802073282 0.8518342452481588
Ni 8.06660843695437 8.866874435316241 4.684119096376146 1.3763616587479843 -0.006871273198536553 0.3639612497465732
Ni 4.565416539533566 1.4367661454312362 3.579618378194218 -0.7952913158561078 -0.04606825511297227 -0.022285293760761618
Ni 2.565126938130417 2.397100359245543 10.267487274791366 -0.8274897549655232 -0.663169266376161 0.24442552157206934
Ni 5.92405370433385 4.829553495672684 2.6807681528130187 -1.1059073172123213 -0.416146930611193 0.011479204284193134
Ni 0.1726617624925166 7.200028999897205 11.154125917037792 2.1422920049434717 -2.4268506470910007 -2.5059997439183426
Ni 8.275102543104188 1.3601293579438658 12.082974855522517 -0.686952484838688 0.28736860079249865 -0.4453317797052653
Ni 8.46569033153102 5.517426380276443 7.185512494523036 -0.4326428713836871 0.5759307076724661 0.36957808171271833
Ni 6.589290300495344 2.8505393776437535 4.340067220265046 0.7286516643496871 -0.11918888635804635 -0.6085171262489197
Ni 7.476741671837581 0.6906470499700664 0.4021094512314918 -0.6501147471850481 -0.11584773779995532 -0.2563945210084875
Ni 7.1375915094302105 6.756322083951162 5.584109582555743 0.7191673790083356 0.5233804443795761 -0.5531607609658022
Ni 8.702986580810736 5.7488383207446745 12.754499309584638 0.9541651795086017 -1.8434352010057153 1.1863350236417698
Ni 4.962968701516482 8.54195172451686 0.5261895343084902 -1.0873740342948242 1.025564457187195 0.34874751812061233
Ni 7.07937720710543 7.489580163789911 0.3528098298317973 0.36719826862663213 -0.19845059750385177 1.1735358149945725
Ni 1.1246725417216477 0.08958977476266651 10.882790771331834 -1.295414589479956 1.3479951917901494 -2.772295326090626
Ni 4.778678155852817 3.212260134455622 5.736067399802621 -1.2603503987869715 -0.016722969181635714 0.6682631359593006
Ni 5.616840229144152 5.3658890048712795 10.706273707308604 0.015017556454754784 1.0815085766529826 0.6226283688393213
Ni 6.8290359988975435 5.054564959889827 0.5389876713519053 1.4385466169171612 1.2278012612063565 -0.6741967278349162
Ni 8.79511777634876 3.4355447839657263 5.522957818256489 -1.5338615248710874 -0.4405592980172864 -2.0642968192149156
Ni 9.220683753008363 8.581358762314983 12.816337107335439 1.1409463110943254 0.6598391735616637 4.6082496453382635
Ni 1.4168139276749112 5.332356891022103 7.810431721220197 -3.1083963590918207 1.030005266567368 0.6477994687883102
P 9.080070357597725 2.5487221984135515 3.050573968701592 -0.19558458880996638 0.2468544427285361 -0.16692655875364154
P 1.3195492123284618 6.810407046759112 13.769759369890323 -0.8528002087058539 -1.53056331373579 -0.6001543561065213
P 4.19369151925592 2.977141173284781 1.924865338155721 0.784092876037127 1.3033078761851038 0.9189392664267723
P 8.207860003017608 3.4949603486954035 12.805500406562517 0.5295901727347138 0.4243184106783919 2.4738136461041007
P 9.361625618607839 6.6660209366080965 5.215306069986256 -1.0500089633828045 2.145183467558654 -0.410238535546558
P 5.914809614733671 9.438543951971356 12.515374889082471 0.25299063753326106 -0.0755976320306569 0.6371332473237156
P 1.0812393978946147 3.4574959774426994 8.97597440080968 0.0626708966666598 -0.016808072696274278 0.5666456828261145
P 1.5158617669036287 1.3447757228312847 12.739184152408464 -0.2939285133982034 -0.14167318350349148 -0.5222501874298747
Ni 0.3638877215719506 1.4777029158230939 0.874275962824785 0.07257658581614598 0.14525575864842727 0.2591898243654375
Ni 5.711345794904356 8.721211983860023 4.78643662171319 -0.1184394097865315 0.5456639383681248 1.4145294280669574
Ni 7.2479668777425985 7.282568865921136 3.1070830415031714 -0.2075132219267523 -0.2863383597557714 -0.04366118833337642
Ni 8.465868643919247 8.405880602574737 8.307032660918084 2.325127521617886 0.5066636458455275 1.4411385460140538
Ni 1.5935965833079746 8.610723997197175 1.1092579050025677 -1.4138393439784682 1.056934229747728 0.2773047887985934
Ni 4.6187788679260695 3.3786255926712245 10.2677894673651 0.5192011161909058 -0.7859414992100916 1.4633569910926219
Ni 2.9493432104464765 9.111406413612949 7.132122011542917 0.4496928848874384 -0.805759048156651 0.5244086285337742
Ni 3.0474431785588303 6.788521547319907 1.4952817018434947 0.8364706183078948 -0.6385033881983648 -0.15231523659836993
Ni 4.489380383248644 1.5698434962236574 11.94042630145649 0.6771429549474338 -1.6733158463463893 -0.5782485571723655
Ni 6.090193925848535 2.157598667269338 7.845677510968858 -0.7551815923194155 -0.36485856474986195 0.1872102487033421
Ni 3.408140985354029 5.248230983229207 7.193095463453943 1.6272229086430685 -1.1749720332204667 -1.3086179755441076
Ni 1.1432545695473877 4.97103968329938 5.134457356191717 -0.09136209395376524 0.14708304166515312 1.2803181001581498
Ni 6.618167522525547 0.47019005954273724 2.8007770825209235 1.0883119727280612 -0.3452050521849926 0.06327716279209102
Ni 7.160284107047706 7.000619440684415 11.940027444798613 -1.9034933426398766 0.8848415534121148 -1.9060505618440917
Ni 2.6413320219410275 7.417363646558058 10.36367836186344 -0.3723052508358943 -0.9167885386323565 -0.9677596303635849
Ni 3.318571857288947 4.418599749985143 0.49539404637546836 -0.0010153286383918 1.289122328713341 3.6422512206401594
Ni 7.585671771319078 3.1755840916561304 1.365306048119966 0.8559922332805903 -2.231836071851892 -0.20545916761120098
Ni 5.500533627707589 1.648047555754916 0.9356933187338712 0.0031398311805623342 -1.2027600019670126 0.38110819383950495
Ni 8.890852759101476 6.216767566901947 1.568685404186437 0.6398799568309173 0.45934712014775086 -0.6725417087299965
Ni 5.103159778112899 6.289678563961631 13.521143099416966 -1.7761802845127992 -0.5264817090127191 -1.1371390215330932
Ni 2.2169203833736324 2.6570798212802154 2.897764944422494 -0.2059744166847227 -2.0419981557177156 0.16579424492141123
Ni 8.52009437966527 1.4529174938595688 9.561897646687894 -0.15564687207476421 0.05039670728499708 -0.06502319894892027
Ni 3.964165936157878 8.149458003442062 3.447645625722549 -0.7495930424880446 -0.6153040672637662 -0.8351092191839941
Ni 0.7010088766985512 4.906453059311125 10.669104959225855 0.17057778235298365 0.9898554338213598 -0.3361655676905436
P 3.492285662872001 7.606290314315619 5.567956357154903 0.4903235139246071 -0.32998206458765106 -0.002982736777407766
P 4.515066752015841 6.358310063703871 8.990836269125257 -0.7554276468919506 -0.11238086229727744 0.8637600501514673
P 3.4274174930076 5.302559952463151 12.259671170420226 0.5851144310542633 0.7890476489392411 -1.194879313667355
P 6.745904886533702 8.090868306615752 7.351426540850548 -1.137394846297641 0.24230384724337625 -1.9017380505116668
P 3.4979353501200294 0.6317861306164003 9.621785270003246 0.300335959586444 -0.9749222095502952 -0.04223499740981113
P 2.6564604203526905 0.3500741424018967 2.5209805447504774 0.49896550587032135 0.5679618305343767 1.2635308533974818
P 2.6040084236263974 3.534958632833436 4.945784079722688 1.970326341104026 -0.04764254157862763 -0.4251753593620484
P 4.50003220222956 1.062666754931413 6.364475918391504 2.7164892748645992 -0.5169318605407549 0.44405496987537074
