# total energy = -340865.97630731604 ev
CRYSTAL
PRIMVEC
9.27002911863212 0.00000000000000 0.00000000000000
0.00000000000000 9.27002911863212 0.00000000000000
0.00000000000000 0.00000000000000 13.56762464402455
PRIMCOORD
 96 1
Ni 8.056035243798298 7.833888269625178 10.893717183092273 -0.4660363592424683 2.081709358264408 0.7159601849249476
Ni 1.4443539433708756 8.364374947309662 8.896468121014184 0.48391786750857946 -0.813870878630508 -0.16623673177546855
Ni 0.5889406993437828 0.5350197218495086 1.9244051744528017 1.048720069368052 1.3137838360157632 1.6017461045282029
Ni 4.5330997851986625 5.5969004994026665 8.235262910855573 -0.38395954724537096 0.04724222081641541 -1.174830622546596
Ni 5.616349020176126 0.2776707396758458 4.801148234806418 -0.8924453339013018 -0.8517581405945847 0.08827574171895766
Ni 6.991706137943157 0.6728242644662643 2.0309650844351683 -1.4904371351388654 -0.5912958772746268 -0.3631508380301358
Ni 1.9867896883942489 5.191142061473621 3.5866965718427326 -0.639075458651751 0.45698967565916776 -0.29377527564979083
Ni 8.259206468675293 1.2093865191359368 11.361826762858485 1.2117768607536419 -1.7455697587157937 1.5962251747099736
Ni 1.8197252263450099 3.333780517521247 8.649767621115295 1.003732191803452 0.48574155098087957 -0.4300339730059304
Ni 5.7123679802197405 6.779644955286494 9.90162477796506 0.4913375570114183 0.7174876773130676 0.8979863183241891
Ni 3.4020635508946073 3.6983707568063755 1.8677467574044746 0.4121257252669419 1.0060341004637512 -0.8179123956897334
Ni 8.726230528049427 1.722464082419773 5.965833747258989 -0.2231146759094351 0.8234361537214399 -0.3428841173612998
Ni 3.5328729296526147 6.090668592347551 5.569631782192364 -0.10636396667923616 0.10477399648429697 0.7276605040810114
Ni 8.261709376496473 2.4780641435469226 1.9379727888493872 2.4690241951352574 0.021378979896408343 0.1432963209292113
Ni 8.301496340824256 6.893499451063253 8.993259274470779 -0.6173277825620143 1.1690016745696448 -1.4846986899931915
Ni 9.191966053397104 8.694971990371588 6.903533330417492 -0.12311367533374926 2.324803305509248 -0.23678908807273413
Ni 3.5198670790114495 3.76108250277037 6.709230742253544 1.5038076429085003 0.4987459336603474 0.634060779045979
Ni 7.486160213031626 4.81464910499444 -0.015201920503526105 -1.0815509998551438 -0.6895724389600382 -0.32879935713345954
Ni 4.576678191374086 1.19454520275924 7.011951881207808 0.1310272737538711 0.3941418870950115 0.056282476641812754
Ni 5.675705015653947 3.045603127013828 5.833291800086987 1.503991219674216 0.6058069264066083 -0.12711945405903272
Ni 3.0276934310489447 1.3149628790448695 8.736830806173572 -0.7597710114623109 -1.5006163896647122 -0.15184446760953849
Ni 7.05727305282909 2.163031479121146 0.04531004758652046 -1.2130390152955173 0.17142753194778862 -1.3063062966917955
Ni 5.171294929454565 8.592093208892148 2.413503953806843 -0.1275223459244062 -0.42840286516041054 0.9847805904016137
Ni 8.909406300443889 2.647965234460165 9.570547547402626 0.797329172221743 0.2694744941208972 -1.1316893112724316
P 0.8473520268371018 0.31766257164380846 4.934626454904121 1.1133555459602502 0.44345641705942335 0.23959159051853576
P 5.116694458836986 7.463958493654868 4.7572565016519 -1.0353351634207135 -0.28257812138239075 -0.37465215380151606
P 7.8440111412575035 6.4008808417103165 1.180290679216175 -0.45281497545618793 0.7464958916199596 -0.5091429606239554
P 9.25706946683467 3.7308065881630665 7.57023288674504 -0.845232166550609 -1.4605573168602977 -0.32722327089559133
P 7.979140353514288 0.24717976039650072 3.857668788586785 -0.13513024017865113 -0.6205336910938216 1.2469534086547749
P 0.34039175566880736 3.972346462935843 4.2364634932585545 -1.2527041950956233 0.557177081214047 1.2790592880503842
P 8.550517128973668 6.8339673250350526 6.801436939382895 -0.3987418477608681 -2.976917856733144 -0.8950717157805553
P 4.6887991917339535 3.383467872786141 13.340990925424206 -0.06984324604538293 0.6777199104968264 1.4605156649890845
Ni 4.813360570967981 3.050377191932004 8.949286892064244 -0.6252953741485232 -0.025144360476111533 0.7217855333574731
Ni 3.415607063215878 0.41567180690670896 11.965979579737656 0.200374553999442 0.9889270084698194 -0.017016846272970693
Ni 3.2177382949081976 0.11553886004012337 3.997049236127987 -0.9448495585346308 1.5058226164560002 1.313945044183976
Ni 0.20307574357863 5.119864808743813 9.164889225786428 0.7818092222092728 -1.2757680188936222 0.1961612872490428
Ni 6.528964831951928 7.277009819470704 7.302624763513233 -0.5326549277029665 0.2604321814129708 0.18472502038764313
Ni 6.2016864592603085 3.761175203060043 1.92977715623937 -1.9828316726598882 -0.7688292650098373 -0.09215322239649291
Ni 4.644154732227288 1.2779847334941863 0.24656052246148297 2.172430476200065 -0.04542265110917339 0.9284289510847623
Ni 8.750314063306554 6.004253382314093 4.23961159509586 2.254307256371214 -0.6365051268214135 0.18798517919615368
Ni 1.1889646453209068 7.817916009714468 0.8685803931722897 1.0957920831551904 -0.664952326418513 0.6846518617299693
Ni 3.5474268751313245 8.252151976631154 10.138841111227473 -0.1147889575181378 -0.7148276139824011 0.7384159428253024
Ni 1.554203786633748 4.927437547439957 6.528537483616535 -0.9131776813526467 0.6480987451962837 -0.029699841057277885
Ni 4.853073375064026 5.45500416599973 0.23022209640656208 1.5796991520304924 -0.15223167574562815 -0.3165665625126935
Ni 5.937499903720342 0.2689745255015926 11.038469612420043 0.5609000385915889 -1.1970706648917189 0.5258232494931138
Ni 6.935826403328086 2.8389185611582164 7.850797729464487 1.068774674026082 0.33635737198637555 0.33767660501843133
Ni 6.811867575976936 1.9895150769106444 3.992925000240421 1.1591785178316358 2.3583240629745124 -0.20561934733814913
Ni 5.83615994704948 4.428024006853966 11.549887840518727 -1.0751265843860387 2.418128950947287 0.9140156038729097
Ni 3.2306143651438206 7.239623792645458 3.417901395385292 -0.6970486927324253 -0.2580240861921105 -0.815392457481357
Ni 4.440696136452307 8.410762172262187 8.06943970568506 -0.023575216216778754 -1.067749318085361 -0.48938428993978944
Ni 2.6347276330948164 4.446471364498954 13.132361507491249 0.023573930665198112 -0.006563255039814503 0.09206940443343499
Ni 8.796043116202398 7.169681424086945 12.888862875597674 0.0570311818823792 -1.9841876724671506 0.8416213092708988
Ni 2.409410309014869 7.6883766249249845 12.362602404119396 0.1571244850615552 -1.3830994916924502 0.34284580792419667
Ni 6.8655873938426195 0.5604335062634466 6.707100489596852 -0.05241348060470973 -0.4156846462627938 1.2684542588410284
Ni 3.1976408721070237 4.853342205904079 10.502019525100875 0.5456906778410021 0.0064380423158598805 0.23209168259706484
Ni 6.860340557447111 2.726584350132099 10.59087367975564 0.1112907145568922 0.20476162732354414 -1.7655474873893016
P 2.82032288304975 2.574249964111949 10.474477342036039 3.5948336505881446 0.14634744905070923 0.05316655672065037
P 1.0969039876463424 7.321988000020194 3.082469105214007 1.0581207938566615 -0.8955957066048252 1.041723583445561
P 8.301292400186975 3.356288147853927 12.252066578712943 0.34047885035391684 -1.3681480125889405 -1.187993385180799
P 3.4522792978106396 0.6068207312159709 1.9486907963414153 -1.0120972759386957 -1.0654885470756423 -0.8206081973543415
P 6.353650044121765 4.781110140190636 9.364360782102558 -0.04156805324977357 -1.06617940249508 -0.22489542195894172
P 4.200630196285337 6.675329319317118 11.637792744207237 0.5429845917637488 -0.5729618548521294 -0.650018845037132
P 6.588914109283658 4.33798421549428 4.085265612789798 -0.5801434602022331 -0.24492328714409428 -0.12157229898855836
P 0.8557284250119821 5.396695683795218 12.245215100303188 0.18382102051613503 0.39461085631163006 0.9377024059668884
Ni 1.7054813893516225 2.507060794156734 6.190839598365634 -0.04298113154721629 -1.1086193168268457 0.5735220982309736
Ni 5.809666204260847 5.56965588426768 5.7067466346539515 -0.3028975496660332 -0.23345488149317858 -0.3177040185512464
Ni 1.3466107579393376 7.167317566700277 5.611990252555688 -1.0162478077719594 -0.34693334773000895 -1.1799892839294002
Ni 4.887530072735596 2.2824016421334674 11.60955808997854 -1.9836076315939646 -0.3409876716695353 -1.2922662736589616
Ni 8.318423413718603 0.029119941995076868 0.3245140500535628 -0.6251063980661686 -1.2540751073012208 -1.6729558919038092
Ni 0.4193807454965381 1.8035582958259846 13.275377660393438 -0.8218423268717587 0.7299562420937235 -0.38787096648463526
Ni 8.015061715762696 4.77265587377243 6.189726267886657 0.10309995121598373 -0.4409033116202664 -0.332045374874583
Ni 2.4939251631100263 1.8472108622331462 0.43886263837428086 -0.16370342383065356 0.26958556577746473 0.06099402318486915
Ni 1.408265720601056 6.554856022857685 10.60012702267083 -0.313170392346951 0.49886806106050857 -1.201213483415499
Ni 8.431387986714498 7.774893805277085 2.5673743836268796 -0.9673407976586115 1.4841037367216698 -0.1705153045461644
Ni 1.4311534221213962 1.019202604842174 10.795460438055944 -1.2131531722758786 -0.39918279195302864 -1.2066171709295737
Ni 8.201407838063984 4.665642659373561 2.407113195836765 -0.7948588563043794 0.49517261448679234 2.009749322986339
Ni 2.4266711029520396 8.948711223265372 6.509977031618145 0.7968524896956405 1.1124443469998906 0.5878716820844263
Ni 1.506287006901614 2.3503602244929707 3.8106706687253133 0.9420272585944874 -1.5646515136687504 -0.05408469765954556
Ni 6.182794140224887 7.020563738118459 12.495320481841778 0.5609177792034017 0.162644643548836 -0.3432610410847443
Ni 1.1811222008145446 3.4377346223608973 11.319455314454608 -1.7001442793931427 0.8362795853430115 0.7903779377148904
Ni 8.138492151462708 5.43472134261921 11.23754811950796 -0.06730093923950345 -0.5912187441797883 -0.9166823520717955
Ni 3.943683533368856 4.000592241199301 4.137487393974361 0.7691624799795399 0.4036493123648145 0.9925532923684971
Ni 8.081500013371556 0.4097973895501113 9.167236397120956 -2.135224042353097 -0.9345288933349131 -0.29665593963169556
Ni 7.271095540989546 7.488737281084544 4.7705395261591885 -0.7985383620384957 1.8860337524025323 0.8034823363073323
Ni 4.047331727252583 8.132540792865681 0.39357205784859184 0.49344843270683403 -0.30594867778753115 0.046544937639074684
Ni 0.6771413169563503 4.976726291459254 1.1749641205715466 1.5753866406980674 1.61158597343676 -1.8498179646036077
Ni 4.581535686552967 1.9665254050716634 3.1189930193452913 0.6598713123511797 0.06349493522985195 -0.3872503021815008
Ni 5.055215626725646 6.026844442907478 2.966099650578411 1.1761994778696645 -1.4772010960645656 -0.23961164512319377
P 5.64829353999755 0.7332639263303657 8.987303280859267 0.3950070633087842 0.7286280102006032 -1.1975738297803826
P 1.3088353898974638 3.0830169639259766 1.795321875088511 -0.6762109300514677 -1.2053064225379497 -0.7907818580215283
P 0.718755403993596 8.858495301355306 12.149401007899751 -2.0069241948327177 0.6638066428498438 0.7820902437848014
P 2.5815176668223367 6.650420751481899 7.68114785633626 0.09071520439838571 0.5940371874651897 -0.17553461213762675
P 0.5794778537739314 0.9459879160581938 8.274704103102877 1.8821171909569459 1.8486889932054873 0.06598016354555089
P 3.176514476090477 6.201834779723785 1.101819884007718 -1.9567450028751654 0.5301753558142224 1.630414676107489
P 3.8860888433948286 2.0803242806746187 5.231866225730003 -1.5424816624399307 -0.35938314345758754 -0.7495182233860511
P 6.088480865511262 9.017031336754602 13.327029334796508 0.9344419900480617 0.22919224956208273 0.4013147506943669
