# total energy = -340873.17058577394 ev
CRYSTAL
PRIMVEC
9.23807753771233 0.00000000000000 0.00000000000000
0.00000000000000 9.23807753771233 0.00000000000000
0.00000000000000 0.00000000000000 13.52086027562839
PRIMCOORD
 96 1
Ni 3.5789789349138235 7.466888411060981 12.392557294804995 -2.2610242633800737 -1.0244290580311712 -1.2706291550051603
Ni 9.074507851746544 8.691580311760811 10.196905599277185 -1.7749975770586075 -0.9567177707271265 0.7016666511204109
Ni 4.744186856217062 7.413658609960939 7.312973729848265 0.6900372944115987 0.5899370492538872 0.43859703208459305
Ni 3.3565075586397546 7.1906144728975265 1.2181790562403498 -0.689568068084664 -0.7878148049734045 0.6618199514371181
Ni 5.468784683201236 5.286240276790822 8.004781925450194 -0.9614072057829959 -1.51374829906098 -1.9790567789984885
Ni 7.6774149534540435 5.601868424028585 5.610886635037587 1.595194419452614 -0.12580896277772527 0.7093740470669977
Ni 4.518214248666195 7.819755247683379 4.930340579408072 1.2340076471273844 -0.7756529727998899 -0.779930002908689
Ni 1.2418100578394307 0.11210776262919758 8.62863390101186 1.5379796608045189 0.4840669914919341 -0.5222812977781263
Ni 3.580965121522034 1.2676766741324046 11.810241562163498 -0.5556115364991399 0.2725762729746725 0.4623514541917134
Ni 1.500365363842198 7.003802074798771 10.67312293853898 1.1206055426544441 0.8039345933534024 -1.5399097879476962
Ni 7.01533119520364 2.9807857189070637 9.041561173051095 -0.1805811734225987 -0.4036395421728016 -1.10360155189728
Ni 0.7722256580413364 6.143081179572823 1.744501878877082 0.33066109293254664 0.38975532799154167 0.6648271136945583
Ni 7.748603576723206 1.5150261924339656 10.840011575438071 1.7561483055625884 0.6862811698032762 0.19556299154341159
Ni 7.026490792518608 9.194732189045387 1.0188684634334646 -1.3001096809627803 1.6630926259564842 1.096957049997569
Ni 3.440925108527324 0.26239649852227387 3.4174650113573213 0.2041507332124226 -0.0518151848990785 -0.8056757444142253
Ni 2.0778006202738464 9.178935076952179 0.4720324902686794 0.9806709391086142 -0.7579820378826881 0.30147290140436467
Ni 6.284285190300717 0.49733743146500564 4.811222039955753 -1.3348028614695915 0.8766716160068128 0.12972552422331207
Ni 7.035904393233801 2.9234080211228997 5.074013928184219 0.21766599409003803 -0.20774770653506155 -1.274428474146592
Ni 4.666938054273546 3.407280031191963 12.307362822620913 -0.2509918619356774 0.6935561061981345 -0.7339275680366456
Ni 7.679003902740613 1.7516872553601803 2.6448421159943427 -0.7418843609898771 0.731242822115631 -0.8474302026431922
Ni 5.7180095311840375 7.110104629685646 11.310902239358962 -1.2795917635150864 -0.2908097652635637 0.8019795265095608
Ni 7.68832512268333 5.810039256723539 2.3341738924307567 -0.8092858303629868 -0.8686176353540846 -0.3337708422061219
Ni 3.7845446298249845 4.170345211834688 4.580353251463715 -1.6494115289249658 0.02237399681982598 -1.7766166007192694
Ni 6.36268875190017 5.1023101587932835 10.048270479211412 -2.032020218569397 0.386798816466379 0.5301540156579837
P 4.691160292816466 6.618953014745559 9.419645189135968 -0.7596907930436787 1.5551021794174185 0.8931058503034361
P 2.426898321379269 3.283646843388796 11.208008534976411 -0.6518764670711612 -0.7788131156954264 0.03913527543856486
P 8.460582190187308 1.5365693885751137 0.3357375937901019 -0.13019937853593708 2.1066344036408626 1.5253365181192118
P 6.724812141924554 3.902052972413065 6.8771147786575835 1.6665474172743038 0.61192872303363 1.2410982354255786
P 4.688702964268634 1.7567681978463001 0.26683816606286737 -1.337347482268316 0.23079918903788638 0.9112997476036433
P 1.8586364756543792 8.985110978222577 11.881130871729843 0.44329520889121077 -1.8315078534405103 -0.3693230282791187
P 2.1796319457729356 4.061557614168238 2.6568894925327955 -0.9266913995683654 0.8687618742414329 -1.404819142757729
P 7.194439036877987 8.595762974549839 11.378695869239671 0.9343717989317585 -0.01336099468793828 0.3982101436271142
Ni 8.488019279612356 3.476103706685768 12.542476507608173 -0.3955768197693252 -0.45837010094646224 0.6956901218220019
Ni 7.164692428141067 7.272611646546253 13.457622611129986 0.6946449683869391 -0.4733994844757589 -1.191220376758529
Ni 6.503781905701094 5.122735547587485 12.735041456408942 -0.7135081238400292 -0.050691098596964315 -0.7024485235917579
Ni 1.2742079947463802 0.6144734795400124 6.149692871458853 0.2552084711201863 3.3770200751766484 -0.21546744377682248
Ni 5.648151191038513 7.230255062366508 1.86443152151173 0.24448825648920472 -0.05470227663888643 -0.15060879543022448
Ni 8.213592956898399 6.016593425900182 10.765281997159946 1.2162840045953764 1.2428990360797434 0.9423666442117771
Ni 0.036272386504547144 6.671859483141938 4.096887716793542 1.412956941373515 -0.8364965864498239 -0.5362246473320958
Ni 8.937220785771586 4.087932324709824 3.7258218679935857 0.023304221943579218 -0.37695611934434436 1.6270951248159526
Ni 2.6359744856444767 6.0973342210432495 8.363557436280088 0.5710898346403971 0.7095861630778038 1.3214464947673437
Ni 6.513731314896641 0.28420852271132396 8.206620979999718 -0.5062103603581927 0.06362529016012912 -0.06507539234309437
Ni 0.8315082473539331 1.3306434086513004 1.890094900105259 -0.6256023638659806 -0.6321465927424016 0.9723624192429189
Ni 6.993187524041405 7.500487298010104 9.31615655257868 -0.3921037736190602 -0.1938354673293436 -0.6761818765857451
Ni 0.8897607910534346 5.005920060792966 11.537620359743702 1.8741429145022173 -0.9413505442424368 1.845755107388144
Ni 5.437781695958657 5.158597763462243 5.4859536497656975 1.1773955550602948 1.4891878361127966 0.5278976155236392
Ni 5.642312726218099 0.7217820610391386 10.511616405444276 -0.6627200946538845 -0.5961125819369798 0.1179321311328098
Ni 8.878494328709289 0.35525487959087526 4.008394327224379 0.717186601132881 -1.426673519628659 -0.7661689445688546
Ni 1.1685521052668302 1.332213881783374 10.77335330525108 0.38299049846388233 1.7390131885441986 -0.6039873566993663
Ni 4.144118310529062 4.69136353051591 1.9253566409589304 0.16909297027734102 0.7893322700591955 -0.8265806128876926
Ni 9.008705027512669 8.178127978345284 5.84640587161601 -0.8439221894899337 -2.353185970416999 -0.2540291061001045
Ni 6.210177334621347 3.2872866458243077 0.6336674326371237 0.6234395518867069 -0.5596900774438878 1.69921868225508
Ni 4.788058485065394 2.545709232859246 2.8519006841886987 1.6372067593286577 -1.04736072712668 0.7683826643907219
Ni 1.7440658416310002 2.8073408185854274 8.68981583900654 1.1664974200905522 -0.4060964883537264 -0.294619368817641
Ni 3.1767068611718448 5.860044968864206 6.138862149693894 -0.2783116327965529 0.5823453529495584 -0.05086644783256401
Ni 2.963408895604534 2.324411092395608 1.4293310164630684 -0.3184275269808322 0.05189103244233644 -0.4771862052117008
P 6.738114973160941 3.7129495311569323 2.771060117811358 0.44866264385071114 0.7215304799238735 0.5638434374906289
P 4.300066292543951 0.9858044611569708 8.948010859996655 -0.16048131734893006 0.01504172482447087 -1.9738994031672648
P 1.4917277616157945 4.947914173755972 5.127907947038355 -0.9248530608080459 0.13986029866446878 -1.0194951110646637
P 4.23027261893916 5.53164979887041 12.894343784272392 0.3160700824922492 -0.019674338500475792 1.3622668712178154
P 8.490568988932663 5.430899328409277 0.15593874393764154 0.7924520466350997 0.19055242570269762 0.115091319249905
P 1.91937683355663 8.151716315494706 7.03482261438812 1.2094929498154718 -2.9170528049463957 0.3325644806028466
P 1.5933928017244285 8.186774818648933 2.473343678548753 0.024722699557660648 0.0661835378056086 0.5755656110235636
P 4.8786378324770405 6.068899419275473 3.4975757696321104 -0.3140013728886786 -0.15168017411753232 0.6840191132419768
Ni 7.95419698586611 5.35173824447553 8.323454942948732 -0.3518935199487617 -0.8563087360797446 -0.910571354078051
Ni 9.356694159348393 3.511485542543657 10.141848506497594 -1.9005458299757783 -0.47268574623818593 -0.3930021170636135
Ni 7.196194271555011 7.7910248274436835 3.946658104594849 -0.8545547295031153 -0.8955396565559093 0.10176632000622474
Ni 3.7433982337646614 0.2278636419634292 6.635429125516459 0.010223477500221102 1.2343303205741256 0.12024483842638647
Ni 0.26098953935748104 3.7163121912750188 1.5548312196779532 0.01656870299195856 -0.3527666665823344 -1.7672053347076984
Ni 2.580185737146881 6.24970706716336 3.5855564459140368 0.3986060935139522 -0.5798665523917627 -0.6009387996810296
Ni 2.174467860591588 2.967760029988102 6.245704208292023 0.5741964985901788 0.45173974011413814 0.06311029819692357
Ni 3.4869214951425795 5.217084030516107 10.79395976035933 0.12863306249008172 0.8123873521064461 0.10682367992447409
Ni 2.4657536742822144 2.3639777772466104 3.905676146309531 -1.7667412505870863 -1.2569436870982675 -0.191868830521276
Ni 1.3630875359444874 2.0484327727040736 13.071318553910295 -0.23350733199766882 0.9400536798078842 -0.18064493678099858
Ni 2.171696437417341 8.133822159866318 4.885911894501715 -0.5871756844586662 -0.4254196141623705 -0.5198125245226596
Ni 5.372911917526778 2.260363502838756 7.188946076146629 -0.8770367126557153 -0.4862130913006594 -0.2394347532256973
Ni 8.921322054828655 2.770573271140415 7.208795008920588 -0.5200135847898723 0.5251221096610312 -0.009715170405234883
Ni 0.08037866251496632 7.236610859512782 7.851603518994104 0.3247776375685762 -0.08790344598120345 1.7360019125217006
Ni 7.960451164162662 0.7661266794425431 6.414620603146939 -0.7977194656816262 0.6535266010800744 0.5937404821603776
Ni 3.5045846988397815 8.61774036032162 10.242754176656483 -0.16390448409786612 -0.6945035577130685 -0.817835519705211
Ni 8.611892657423956 8.057044499862425 2.0024262242038455 1.4548846919555525 -0.09137854901399747 0.24178217041195132
Ni 4.704694075984039 8.874041575475998 0.010367894094858715 1.439883847671346 0.9125413333202285 1.3790615741776509
Ni 9.038636397794539 9.134989543485865 12.713272851182953 -0.8242046564563483 -0.3774127472657887 -0.5455868052732863
Ni 6.410634372814647 1.2631407782038866 12.703401965644009 0.5126800272429364 0.3651370152222292 -0.25547046653232136
Ni 0.6997095230717093 6.932872117692538 12.815855232362264 -0.03338551743898121 0.09859203604330116 1.489774818964518
Ni 4.23457756293649 3.0957905425610748 9.728232073895697 0.19484462532014832 -0.5084672747131694 0.002824356822672555
Ni 0.8240124714753192 4.899192554352707 7.1433949648547035 -0.01261228944737183 0.15656655567555616 -0.13567891359326956
Ni 2.0975331532744863 4.999259407097526 0.28996661625968484 1.3981998376689984 -0.9040312389666881 -0.865101137560394
P 6.668256633015417 7.43059200555559 6.130546956363428 -0.138898963192464 1.2649778702566536 0.1328329595040422
P 3.461867829647385 3.9960965987925197 7.859202761337889 -0.24440649540867584 0.30725017020777406 -0.4748020212502404
P 5.530495039214473 -0.07918417912686579 2.839380318095175 0.6863359343006116 0.28549015282286316 -0.150995746455998
P 0.0443871135587429 2.0130694130006797 5.108262251963842 -0.2953757873676913 2.8075425793286937 -0.3981031857356047
P 0.6749228380089671 5.458188608598364 9.260355794580663 0.06547237067119692 0.541401563547345 0.8502558450174453
P 8.941544205923412 1.5874157657453019 9.069887889315075 -0.23440104745653179 -0.22171779556190846 -1.0929677263325177
P 4.250032866171542 2.2020989496388323 5.198094238926164 0.4555776258029896 -1.4850241916534102 0.3281113299274994
P 6.675259095569015 3.4660711547949936 11.197908545121729 0.2696395589438517 -1.928118854498041 1.094692422333108
