# total energy = -381163.9592561394 ev
CRYSTAL
PRIMVEC
9.30748217228811 0.00000000000000 0.00000000000000

0.00000000000000 9.30748217228811 0.00000000000000

0.00000000000000 0.00000000000000 13.62244097385858

PRIMCOORD
 96 1
Ni 7.789375852147009 5.457944682603071 8.995156423993985 -3.059971945041846 0.5291402296814887 2.0354899222855525
Ni 3.7700048970216034 5.709004702433316 7.296069997953235 -0.5940829531014608 1.157295184765994 -0.0013104912813074205
Ni 5.574995576403959 8.042111218739672 0.8456033558840904 -2.431103508830084 0.7623858233773386 -0.535435061551265
Ni 6.979299155108178 8.020825007374958 5.726192829467515 -0.6632196599981224 0.35936206041166496 -0.37088677322181285
Ni 7.107602794663302 5.571803110073352 12.170124688415031 -1.6272787015816685 0.24868712506190074 -0.6275368618845321
Ni 7.388912131037194 0.4813010638928519 11.383442347416956 1.0226177158540453 0.14601911917701305 -0.5936720908162872
Ni 7.9536063722739705 2.22678714926695 0.964334250188403 -1.0707307693111883 0.7714931849952456 1.076930470363997
Ni 4.093123442599819 3.5816121535877783 7.975108517221395 -1.335227607711836 -0.8517486275128878 2.001246941942282
Ni 6.902019131950674 3.909291365352575 2.577964960871052 0.1494829093558974 -0.778280383120408 -0.3930959623290004
Ni 4.954865972295196 8.894220504551148 6.895366143807474 0.03438644789966981 0.25977834987905585 0.32768092725830017
Ni 7.864691996599679 3.335271027138342 12.417807953770804 -0.22244336087402336 -0.8956013630317801 -1.4444442133485187
Ni 0.4670140790022377 8.018153760037103 11.036166232272885 -0.5069881190644817 0.22003192321905332 0.7014792176999531
Ni 2.5425993214646243 1.1936008008842032 11.807931471848036 -0.04700336533273195 0.4372124930322406 0.12047469504900543
Ni 2.7322485749702623 7.64654323316892 10.802091436368945 -0.0780635770726462 -0.08118001121444084 0.13127461387798683
Ni 2.8920301186948056 4.326759856100924 3.2071311992666534 0.6868761230747976 0.897708382072454 0.036930040257129954
Ni 5.142448964793853 6.11649557246327 9.95098828936312 0.24280495524951085 -0.723652925583515 0.9413420596020046
Ni 8.322908643602824 4.488868270328825 0.6376146398191911 -0.07370170055952467 2.1934225050706995 0.22947969889551448
Ni 5.1100589273871195 2.486689277009954 3.6274245108060796 -0.45206447044340853 0.2716133948407709 -1.168496452798452
Ni 0.6414325689410998 0.3769139301194354 7.085671574795059 -0.5885512246499541 0.08633404461155453 -2.2755319700779455
Ni 1.5377449483307564 7.120568117108009 7.977151509523343 1.0092713764541263 0.012902052773648748 1.1891015306433135
Ni 8.931413202676811 8.768271657945421 8.989571004037726 -0.12778485555717348 2.1126320159851937 2.4107041192381256
Ni 2.032316620078356 2.266772091996643 2.98078068268566 -0.01154193920132851 0.08045804544675177 -2.414660532782712
Ni 6.726368331393233 6.964174496836354 3.5480326199797276 0.20836477129377018 -0.9386105196034545 0.44330497908322364
Ni 3.1693744677309756 6.867655908357092 0.7347810290465888 -1.6016255197899385 -0.014467854598871857 0.7415966545461292
P 9.078955407553694 1.890870815920269 8.835991966326933 0.23766686269199713 -0.9380351067159586 -0.6094548075718407
Ni 8.038164846365977 3.038539193068198 6.723819012069756 0.13788594854691738 -0.7457155618105092 0.09635980427867276
P 3.0560372592534457 5.8430603658727405 9.469653718535021 -0.8891841466515266 -0.01678030478213239 -0.2810665698338708
Ni 1.401734713668512 6.267788692591565 3.198589723022929 1.0392733221328552 -1.2509036515517746 1.168554559729897
P 0.46697777982238536 5.095492718036102 5.803786514768873 0.9156721656397263 0.6811466767901883 -1.8828188450096608
P 6.137111645123016 4.100857960152979 10.149658354436173 1.1780732978536097 0.18059222916619222 0.047375146849853896
P 8.019633649677239 0.8808936046862094 5.501654479634538 0.1821847704642927 -0.34440878153594234 0.1230087743247688
Ni 7.275500462703556 6.821286032966187 1.3267834225107675 2.0473244530266355 -2.443338874554011 0.33783061409779236
Ni 7.257043725870925 0.37548243938577003 7.396222227410541 0.9380695594983199 -0.11416469367057759 1.1652388650931027
Ni 2.1103133193508947 3.753176969541323 5.8953833067594354 0.028751875321711775 0.9906167374674165 -1.5688095017011818
Ni 5.936498177805559 9.241007976889515 9.536212453161255 -0.21372372161283837 -0.9324000199173684 -0.3488976705452314
Ni 6.805761152967786 2.1637103436619394 9.268940661160018 1.0045852838323668 0.22851990608540645 -0.735733768007449
Ni 2.9271658632955013 0.8510007647036781 0.9714609891660858 -0.6617975828396151 0.13084626809131658 -0.7726005591268114
Ni 9.123454479059902 7.094227943010004 4.783587826787666 -1.6531758810634045 1.4339916505566273 -0.47126135508683353
Ni 5.669289676682013 1.2743152849046635 5.302153256417685 1.2163004596556084 -1.9200687305000546 -1.2702046658732318
Ni 7.648283732305432 1.3959268448921323 3.4584788202911136 -1.178669793787028 0.955733038216354 0.2310591275674924
Ni 8.661626529035548 3.521197287838608 10.087008762255579 0.2797635347517311 1.1913885269052773 0.4326454424868484
Ni 1.8205248668627694 2.9533291952352516 10.185239927425313 0.6405134766498581 0.16951308853389516 1.0623605429696221
Ni 5.17571390550985 4.764667577350766 3.8814284871971725 0.35218611148851603 1.7695103286917913 1.7170893918879138
Ni 2.4259579568723266 4.3518342126451035 0.7188987417388729 -0.10797887657483983 1.1466683011797671 0.9219515708905348
Ni 6.035753165996769 7.143380755522925 8.204442081787692 0.8755642418752468 0.46684985628269926 -1.8892617724215268
Ni 2.9010676837298455 5.643405569202666 12.095065430465933 -0.5436047418462508 0.1816381539322033 -0.3242531325236738
Ni 7.6869283976251905 5.706808136678147 5.948892951602842 -0.8410690363118547 -0.6657794503054986 0.55460803493529
Ni 1.075358549385596 8.850363649303869 13.547885189913352 -0.49686414325660233 0.18587738882453148 -0.21811747980515986
Ni 4.1919409791364 2.718910953245018 1.5636793162129763 -0.8228319444785378 1.1727362019114125 0.11303520805182468
Ni 4.81700354871228 5.909143488168089 13.311032110628407 1.855236821626334 -0.5435340365093155 -2.412242410259523
Ni 8.727141894928078 7.546794948430997 7.327456688798922 -1.2711552027119593 -2.018240391176485 -1.9410867275126185
Ni 1.0894593846359415 4.152198030939056 12.128481152390545 -0.3000629084307155 -0.6502445878946931 -0.1070504512232995
Ni 3.795898311982964 0.4222376445320314 3.088098742545106 0.1010286705092518 0.708904820740063 0.8784608466967516
Ni 1.6415512952265348 3.2925310697326737 8.064703269830867 -1.6623896863521885 0.6720717110721136 0.7614447996203081
Ni 1.6520408274556697 8.988253995332826 4.737830383713244 -0.7344767556718964 2.5165973169285305 -0.1045629089147554
Ni 6.156778354617392 4.446500612203694 7.563260814860955 0.19851513219320005 0.259442820916508 -0.017218677871131634
P 2.856373155101357 1.8369804950625128 4.785972403679506 1.0511207083897447 0.28580819828391424 0.06053482416026348
Ni 3.990945905056391 1.354629547198546 9.059031811555748 -0.27717983318495487 0.9813579378733099 -0.7956592407184877
P 4.095320008354989 0.12024149863509209 10.798250238542003 0.08457181050480919 -1.1739320219917266 0.34917329280412124
Ni 0.284595808272833 1.8168856413955183 11.520784482755323 -0.43594648183562346 -0.9268801185404038 -0.020892012957660792
P 7.116947506604785 3.8388988788850082 4.884667081453509 -0.6889715721512457 -0.3451307473036314 -1.2378069662688167
P 3.3750232828176987 6.923928944610286 2.8145053087603475 1.5794906355641118 -0.33019083816434747 1.0588602431258474
P 9.211037884806274 7.777881111860423 2.717391041432225 -2.747105199978243 1.4905494923470135 0.46829995846566447
Ni 5.443034096417557 0.5304985523194371 12.632633946122768 -0.1516413504597969 0.3217046550702073 1.9905496101294362
Ni 5.4083730333995454 7.733568189994486 11.737735373250953 0.5594977589274235 -0.5798961200781174 -0.5176808228916374
Ni 5.88735467277465 9.100753530429147 3.6739721591034415 0.9899549355137015 -0.24116099188818466 -1.6952185599567515
Ni 5.746150863148912 2.9849094817068176 13.579925265996382 0.6327220056298974 0.0728493798615584 -0.45601754155388563
Ni 2.7336540047542903 1.8214370001000855 6.894575938584534 1.580352212233459 -2.7394286572695914 -0.12085881786130154
Ni 3.511359279350413 3.3672701503005125 12.56277850136738 -0.05667791230801851 -0.9824802244032111 0.7240918128931466
Ni 3.5254321921547183 8.281201816700646 8.70371775494488 0.5269918158799182 -0.25879978801587045 -0.5576442506584525
Ni 9.244712354730861 6.078586198222572 12.550940314994497 0.8430935229410512 0.7490065738569552 -0.41085868562906014
Ni 1.8736985116054916 8.578436254799515 2.609528493874994 0.5966003202066757 -0.58532783261665 -2.584574456299452
Ni 8.623316933068272 5.122475108393034 3.564298375546397 0.3931283582288326 -0.909347251862963 -0.09826190639739206
Ni 0.6194203739793391 6.751610222613654 1.1199078812946746 -0.08177085072090433 -0.9687446199846733 -2.41169270840364
Ni 0.9047645038060519 5.635326674815008 9.97316615750472 0.43167870769820493 0.15408826933839267 0.9648375716207835
Ni 3.398180298067111 8.622311725010821 12.945432355644495 0.5129908736151358 -0.5894202575184687 -0.3764830363626678
Ni 7.687607843812171 8.0164877207567 13.021977087722938 0.39421233532163075 0.026032676618335814 -1.2652151830784404
Ni 0.07131020419409091 5.012013911857653 7.8190899884748815 2.0872480286944506 -0.3686529987952877 -1.1487305830254344
Ni 1.6516871431391595 0.7757209194308595 9.0167209290709 0.880097096748594 -0.10415950282874964 1.996289340826691
Ni 7.576039056917192 9.243046315450457 1.4616609366119775 -0.5181832164493527 -0.3885170847090664 0.6383349809413007
Ni 4.0086487358459335 3.8824858171538983 10.45025093204549 -0.5239232042569234 1.3398897890741956 -1.0868703551855283
Ni 5.297185853267117 2.0234838196476113 11.00427600665027 0.17262438046936723 1.098740881370869 0.5657267705562707
Ni 5.120678764364442 5.277919365499318 1.7138397157802374 -0.6035818937308314 0.30541697365377724 0.46769960587750425
Ni 5.620239246471239 1.9599788698699825 7.176574028627418 -0.8838195399055037 1.7375479168525818 4.0008326941320576
Ni 0.4777586362385406 1.844249638515001 4.670071914655478 -0.3380242181658372 0.42197767836035716 1.0374002734798586
Ni 1.812064365712562 7.02929894848432 5.65844832163277 1.9413816330452178 -2.6232014246430304 1.0408272968835366
Ni 1.060038433991491 2.5017673978717094 0.2677818420155727 0.03801684556340549 -1.1881584500037536 -0.446480805708044
Ni 0.2353378212131604 0.9719710391804217 2.2858049619659053 0.8724328953351169 -0.5319805273437612 -0.6545612129921758
P 8.609141637961818 0.8239690446920751 13.223235563543929 0.4473557521138296 -1.007377501865523 -0.9353693869583375
Ni 7.54550120843113 7.378850742980677 10.134755214236272 -0.4493573559248907 0.3516034995121687 1.4523197594418538
P 0.33751722025299136 3.5969601914279234 1.9777328918105992 0.7839859181456176 -0.14266125844837366 1.5488839664218486
Ni 4.410303814653468 7.66909526208746 4.785018386773129 -0.61976673102081 -0.9681208703577455 -0.1439306120791005
P 2.905823807038708 8.787817370173624 6.387099443025314 -0.015705840771031016 -0.5916496610696198 1.8010953025869236
P 5.4779557689319445 6.022369006861458 6.044399816787245 0.24945588490712525 0.6318622287327634 -0.4791343300770071
P 5.299056657151817 0.8994033941663166 1.225511502967246 0.12835924000340476 -0.09617622751295694 0.31738751575209206
Ni 4.556254440106055 3.5336320838085498 5.738207857998653 -0.09974080493576372 -0.049006511805689795 -0.25754997476916935
