# total energy = -381169.005972318 ev
CRYSTAL
PRIMVEC
9.23488722477304 0.00000000000000 0.00000000000000
0.00000000000000 9.23488722477304 0.00000000000000
0.00000000000000 0.00000000000000 13.51619093015803
PRIMCOORD
 96 1
Ni 5.589821914089568 5.070793539386406 4.473697120835216 -1.0270436128358829 0.1549403329260428 0.42937577059664117
Ni 8.94605702997965 4.312830923829642 5.792890622874868 0.24847680882330755 -0.23838805712873784 0.7999653242930095
Ni 5.683851537263199 3.6323305435096125 11.63311558443946 -0.25761888033389185 0.8222243928015258 1.3200987224901974
Ni 4.830437125878244 0.7849451094664779 9.0892060955711 -0.7402833350513444 -0.5907952834891245 -2.1039923380323247
Ni 0.37276992253514996 2.1861471817937748 4.212645324736983 -0.5494563155310215 1.1913234779952966 0.16815246074094267
Ni 6.490204962624502 6.509127246840057 11.86274198231558 -0.30992257483361463 -1.1159076229581428 0.15043421752557315
Ni 1.9066256109609845 0.25931656076192144 7.558767315471159 -1.8442168163667467 -0.6051808627868351 0.11370626597692031
Ni 7.67352649031812 6.646985645458792 6.732738962573868 -0.628666347503285 -0.16250888930192012 0.9020088092200207
Ni 9.049580117366844 5.980466884612823 11.898343396605176 -2.3103758172300086 -1.0915839586111136 -1.3854618212770398
Ni 8.074994748835826 9.093990690716087 5.396947597469006 0.2912046867091372 0.37111868672696086 -0.6301740423970631
Ni 7.949391045753469 4.105415353560564 8.009816760775045 -1.545509650632977 0.43751485476400775 -0.5667945496991529
Ni 2.4046723215656898 6.383135678488274 8.351925010273357 1.4408768077122345 1.976670281044183 1.9411512622019669
Ni 6.9995551753667575 5.5534826322993265 2.132179423508135 -0.31884893078896703 0.8039500199723703 -0.9914937407557312
Ni 2.1780204809105697 7.0421372410172784 6.073351381752912 1.7870560508850384 1.6994441680023247 -0.9458106368963196
Ni 3.1788975737762306 6.6804805819399125 1.389599359839048 1.4131420608011276 -0.15795186605885697 -1.4401270740304037
Ni 7.477322073312918 2.216640779880529 13.087984357724224 -0.410312583317603 0.39509833747100986 -1.0922820131194029
Ni 2.51115980779778 1.9698753545394758 13.155241118931379 -0.014628034325819968 -0.9145449940138185 1.1815576568577846
Ni 4.130885172919518 1.7335915263602841 2.0167377904847315 1.3991758284290226 1.637796827504173 -0.18089947599396586
Ni 7.177936259753111 2.42761178178601 5.317323475099593 2.4455610790163105 0.2918106957242523 0.2931962632178693
Ni 5.46401504348513 2.8998562170865383 9.556055509671666 -0.06911151008568096 1.7177277968028613 -1.4496064742757486
Ni 0.005585259879730132 3.8468385072767615 1.263258712744782 -0.8350835081523812 -1.1075291690864604 0.2067246645871859
Ni 0.07981436104917926 0.1665447292477135 2.7854027170114337 -0.7045647986038124 -0.7840504528349659 0.23932265312786527
Ni 0.15858240935964582 7.073304985881844 5.1875954713190096 -0.2549323346406642 -0.2621519923175549 -1.2159780433191831
Ni 1.691896009897021 8.744505613188794 0.6631868134838557 -0.6127203656969898 -0.10467423768163908 1.845582072145389
P 8.67389566437858 3.778888206028325 11.847779617803116 1.0715684347211352 -0.45611935723907254 -0.5480954306277528
Ni 2.3495954533072396 3.5912999389367934 1.4867134353933502 0.15093841085550136 -2.1408935819340487 2.989468439704645
P 9.077441772553923 0.9999074296920967 8.678246219817305 0.1720206854470973 0.3416713280001212 -0.7739748137665188
Ni 5.352503778525241 1.4412519318617112 5.913861182965062 -0.2518305557868889 -0.586615698190138 2.203743941601366
P 0.8032939071765238 1.6417690412674324 1.001772876940287 -0.6139735213778007 0.32410657964348055 0.5695152910644256
P 3.4006179845772238 1.5686194984312183 7.236014466405927 2.1047140466896974 1.1197164551812715 0.3117012640005922
P 6.005493429378148 1.1526062923100493 1.0009361961448116 0.4787476361615497 -0.3125312161010553 0.5206105949439228
Ni 7.724512303472866 4.264883388618731 3.8554666625440097 1.6168891308172282 -0.34767819631583347 -0.4874137964769799
Ni 7.333654930540164 4.68127522512196 10.254937009807525 -0.5356860012198065 1.7679373277777166 0.3109142493229226
Ni 4.512258316526025 3.2850248994009967 0.09849007377202687 -1.2466736726308272 -0.09611914902277639 -1.0746938677239943
Ni 4.089595991500415 7.076130861416232 12.264835442708051 -0.11211655289229723 -0.3190019114270635 1.4866270173641558
Ni 1.9726735254117613 7.921677148764265 3.4079587965454734 0.21665837876113012 -0.08080745836637052 -0.2735347802331999
Ni 5.296789703038449 8.417747593472374 10.643932629446985 -0.007722051234606056 -0.15245047662465358 0.1158953032084391
Ni 7.134347591379556 8.325768115294277 2.6583371312588366 0.9236986354886284 0.586321563988487 -0.1403593497880744
Ni 6.398899631224218 3.413426773355639 1.3564849007174602 -0.1168296420972504 -0.9806107752946402 1.1033017612686742
Ni 1.4427572185025774 0.4765072593092646 9.984383438097101 -0.3952608311908032 -1.864254965964544 0.8570350727228078
Ni 0.4156096415432189 7.693677014553523 7.737275841303182 -1.2560985654891528 -0.025355190935336978 -0.9878700279602148
Ni 8.258593544584693 0.28427199689451854 0.47053228718263523 0.38320184314374006 -1.0959190956513578 2.5657017877646653
Ni 3.408181357331025 1.6004059807493916 4.955792410490421 -0.9879361053114599 0.3572444998480299 -1.9665205942046904
Ni 2.0850528697841755 1.1861843427774745 2.7725902342780713 0.20411242377531946 0.07866058722669679 0.19596896873257863
Ni 7.066517343666895 8.673655557307033 12.224407876280315 0.5397473157733736 0.878589658965132 -0.3769949430020798
Ni 0.7453089728861179 7.229596219685669 9.979017045047975 -0.7179959844080538 0.4914792247956052 0.5758895700218856
Ni 8.06696963171366 2.604644572616742 10.103082215894943 0.3580556828954156 -2.1992131436105478 -0.34295893646329323
Ni 7.781860954023667 2.0963563719217246 2.744179103292639 -0.4523346933856597 -0.8888828133610239 -0.34222257251790095
Ni 0.1367576000445562 0.8629485091029337 11.983509374883695 -0.3213246460229692 0.7341836499115098 -0.18760542725923174
Ni 5.730930993061586 3.06053402238982 3.7925216702486386 -2.1040363038963825 -2.2443190348102506 -1.4452520539617948
Ni 2.057274328583401 4.35810957659141 13.07425208020908 -0.416308910110354 1.0421205617736633 -2.493464587565809
Ni 7.444482813834876 6.882983192129598 9.56325964530688 1.187437255567013 0.2817342853248567 0.2675212270492683
Ni 3.552670405079467 4.177918454281068 8.457675552493539 0.556603468098764 0.5256039343934561 0.20628963393229635
Ni 4.324633109885025 4.610656041424379 1.9777028450719814 0.9555602600839157 0.8535026340895171 1.0585907915145445
Ni 1.3175044411401768 0.341152438655798 5.084953392186653 -0.06807689817357952 -1.2461843916992346 0.5286990283790121
Ni 3.8663333545090866 4.053579930768029 6.036479246961577 -1.3781773718004846 -0.34382616955959494 -1.8189451862841512
P 0.1500244392363887 8.10182209663777 12.446817209678906 -0.3029939660345814 -0.6170938121743372 0.27816328014414676
Ni 5.250070407847386 6.934800145147399 3.0493745844952005 -0.7221380316008854 0.6587353989745236 -0.3082174192170498
P 8.85036512707991 6.473332823404484 2.9280669510161017 0.299955950539206 0.4705573870412734 0.8341280862176472
Ni 6.191798047125627 7.410673891183268 0.6951515291282173 -0.6609869140128617 0.18880716087681676 -0.3172250220322988
P 3.9002530958091013 7.920134922573929 4.57998882745512 0.009053111341203764 0.94155289006123 0.4496028962767934
P 5.24934085174537 5.55424912795081 13.529571737431597 -0.0187274012061742 -0.5411758206897841 0.22780899606131086
P 5.8256439979003956 5.413694142220829 8.55785745763125 0.48964499980034387 -1.5338044463809068 -1.0403508714677503
Ni 7.198585467906347 6.557287184460415 4.4065890413146755 1.0157215029548443 0.8792290923213438 0.10677277208188062
Ni 1.3107722082494309 4.592675715720287 3.979937244946402 -0.004248233753392683 -0.5416820709022413 0.41227922012567064
Ni 9.024802914560436 1.7477763133564244 6.6621308607411285 -1.7073361691558917 -0.7500764098823662 0.6090277473367511
Ni 3.9747324624262035 8.667117257050998 1.9246244064398106 0.20002668374172003 0.8390458352342388 0.2183707334665465
Ni 6.7972372629244155 9.297315205881462 7.473358459654882 1.447638037695468 -4.171467297864906 -0.555815682090146
Ni 5.67842142349124 7.514972709109314 8.309714187095 -0.7487445784448201 0.5114178727010611 0.6105902067278646
Ni 2.2118940477737477 5.594217720476393 10.706567329526816 0.5011635419629046 -1.7970992940536534 -0.17810417263701586
Ni 1.3462064710776789 5.671661485938392 1.8770204090389624 -0.7307933932830382 0.26917907436766547 0.2416672421006419
Ni 7.501489773553087 4.641823786288945 13.327018335361391 -0.8272190178026398 1.5513949057691605 -0.12081665176945644
Ni 2.523857777927788 9.006610186446895 12.156678288839956 0.07111671344116784 -0.48208672783711165 -2.1405716798182555
Ni 1.3319755096447026 2.7233498148357413 11.324959398346948 -0.6604099584634692 1.028503485210861 -1.0647922923395663
Ni 1.727514970472615 6.649986983853158 12.641058289629827 1.8683417344394082 1.5730258537753747 2.4446470518424737
Ni 6.729702531607507 1.9888715178539682 7.833186611033527 1.3789070508776573 2.4681844728427813 1.5821165032227333
Ni 5.117004915772268 6.302829097942419 6.349298127685828 -0.8398865859679793 -1.6635754791301736 0.8000653402059834
Ni 0.7799970568150899 3.299773014526541 8.635927348456752 0.2942347317847126 0.016867208068983855 -0.14829197437158978
Ni 3.317540937821185 5.95668704964208 3.943659836901521 -0.602957115662639 -1.1162048424835873 0.35894965546459473
Ni 4.797154591806572 0.10257097049962732 12.93061541256464 0.3037313584212382 0.2860488535398106 1.1964361166315136
Ni 8.765607330823025 6.769144735553154 0.6985139516186435 -0.5061813068924702 0.6980542511788043 0.24031741294096678
Ni 5.460330323425587 0.4781344464633791 3.789642232367521 -0.16760198755411135 -0.20160636952401406 -0.844852671724003
Ni 7.667071304048393 9.332315429003447 9.970313163704315 -0.26815140443409946 -0.32856050164977607 -0.19510250696722528
Ni 4.53361861100654 6.038249574869885 10.189085798457672 0.8133319754079025 -1.1807385033905988 -0.6432141634104729
Ni 4.003646894773153 8.452295307113362 7.023918655219111 -0.4416826129884523 0.7300973956572782 -0.6372489469659736
Ni 1.8796320351864289 4.993063492416021 6.8214862301734165 -1.5470358574695164 -2.200936811169874 -1.3714547083646702
Ni 5.765885041746736 3.7138561291879486 6.9969943410998106 0.6338494343661212 2.0867332938415615 0.2560289101389526
Ni 5.918934830084644 8.232754329731048 5.602001807038272 0.09970558082245409 0.46497397941622504 -0.6596260291095931
P 0.294097917053303 5.454826330554688 8.36636006271715 0.42610866980959516 1.5030561094544566 0.0757315865053599
Ni 2.595169578177914 2.1937567289844124 9.38011520601648 2.3913853643048557 0.7346600753272959 -1.4626252551329197
P 3.45272121910341 3.6336141928536643 3.8527359063495052 -0.3547405024792536 -0.2439701792022056 -0.3873048095685201
Ni 3.938965743652733 1.6018373882913195 11.249782797733618 0.7335087353316723 0.21377900033080602 0.2924971802683156
P 3.1340899002701943 7.711638870482879 10.221146556930654 -0.8120919323532143 0.5803026114879166 0.2044685215631575
P 6.223501415457495 1.4843880907542695 10.982310907937652 -0.0007145095685213501 -1.1772554299380047 0.6540793882597509
P 3.3234327959615086 3.7358628657841737 11.19590738832165 0.5996550478725995 0.09214113821163486 -0.135065962599619
Ni 1.695239039123976 2.593073258745542 6.2842715917778715 1.8177925607369467 1.3945445003045982 -0.07929205016310861
