# total energy = -381162.8865530467 ev
CRYSTAL
PRIMVEC
9.29823016158227 0.00000000000000 0.00000000000000
0.00000000000000 9.29823016158227 0.00000000000000
0.00000000000000 0.00000000000000 13.60889972098854
PRIMCOORD
 96 1
Ni 2.998223522751664 2.5610858414446627 10.613444039414164 1.1122967656784326 2.10599034229896 0.24102883718569462
Ni 3.2359978572204846 3.7380929724630083 5.906861390086984 2.3628944559540144 0.5603577929348736 -2.917593250830898
Ni 1.2354929969580015 5.274393004240374 0.633316384411585 -1.407478434757447 0.6706056680495482 -0.011764853845411996
Ni 1.3560817402602905 0.5847852033805134 8.455848374812938 0.6815860783204519 -0.8341080316129893 0.19268618421624878
Ni 9.158886606150105 8.12259888612234 12.390345067543604 -1.2215758491219348 0.40441524399656154 -1.5695602638242774
Ni 6.358771169202941 0.18307284808996566 7.734849682641265 1.1314429995895803 -0.3209855175159956 0.600309650737463
Ni 2.9842389850134694 6.284357435480356 13.301473964283494 1.2321950193986777 0.8242298532673289 -1.9610587997591709
Ni 7.545197407088835 0.1815302717530199 0.11504699829433415 -0.25921887783116004 0.38254569761697993 1.4288885250021068
Ni 1.1981606039933406 7.657120200143785 9.982031932481823 -0.7503283779921723 -0.9705963284814317 0.04371286750691827
Ni 1.1317991373460714 4.366513838843237 4.819441774130958 -0.801266045382304 0.4881280489351852 1.3666120355603883
Ni 2.9601379731667943 0.38690027509311187 1.5601239563736444 -1.377566477689363 -0.6097450851187498 0.9315109324441958
Ni 6.916172155766463 4.408783591873711 9.2947281657461 -0.7661260071460613 -1.0735708098631447 0.2496330339149378
Ni 1.0674646848124498 2.752024992012362 9.106585922726039 0.6624023063031496 -0.7677530012265229 -1.1842195199606638
Ni 5.685951255149921 7.242865462569293 4.9804759577614375 0.7873265524830764 1.8600671531354416 1.296730222967586
Ni 4.869501584154157 7.304707989495312 12.440439281017355 -0.050565371652377435 0.600121960206689 0.38365281463822953
Ni 6.798763407082832 6.137956806033634 6.941409411304367 -0.9051735801012475 -1.18211250091999 0.34009678442414976
Ni 7.584147692052462 3.5633978294941286 7.027567739187267 1.6723611957426037 1.5907988614880797 -0.3428923448914159
Ni 4.190656417139468 6.355944507319689 3.5896597499647114 -0.25934511899637913 -1.3361010114557248 0.4301861823130784
Ni 3.3332108506066693 4.891203652692019 1.42923370418828 0.5218773774714883 -0.49869425448680565 -0.0996911826447509
Ni 2.2660809020698673 0.46682785913401514 10.741953014927487 -2.3331681325341753 0.623983597315635 0.03574141926566747
Ni 3.0868914428789385 3.459796952180989 8.051855163733043 0.314498110019439 0.18110439291592037 2.0705204315271244
Ni 8.344603422716176 7.1521984230180085 0.473317093766652 -0.9756835131963518 -1.935141822783093 1.1063289781307721
Ni 7.784431563648677 4.908210115140927 4.671037376145287 0.16446318481481353 -0.2869091446575769 -0.2618748273967683
Ni 0.6640572622149388 2.4858910564122305 3.6360393206017547 0.40297465489529316 -1.882771793821809 -0.6202081894336028
P 7.088477653656409 3.8498112044606176 2.438306435182853 0.7393862771583718 2.215495168600023 0.0798576928585915
Ni 2.548700599245677 4.14432333765182 12.691537049079965 1.2535526591388475 -0.9679951434131586 -0.3294835276846777
P 9.023411396811348 2.4595956623140833 5.8436473742537975 0.9545068791187368 -0.43370345143771755 -0.8234772913720205
Ni 0.9733573002058907 2.8052108669209206 11.758660522475806 -1.3055102831530612 -0.536722670014437 0.4137210947785197
P 5.739769409690259 1.941637766897783 13.274719237629318 -0.45724575753403185 -3.938370571042095 0.39321037641967765
P 8.157225494192177 7.330724436697086 10.590241236573812 0.4168298156108305 -1.9272701333445004 -0.4038449733153884
P 5.5179322412342495 4.294443259050189 7.540704502411245 -1.0757079108108054 1.7804079494409013 -0.48806634245931424
Ni 5.305309618588444 5.035837618461709 5.215923875114501 0.2099593694743997 -0.962649305720213 0.5614078314659429
Ni 6.9673775077107685 8.586599153550114 11.722638250101111 -1.8999922714651536 0.2820011658329982 0.2354850245493299
Ni 6.071362883639386 0.6454654515716413 2.1594060299586917 -2.0389110321519595 0.38778766274220955 0.44829651876054405
Ni 1.011247586963299 6.001347212649624 11.951457459373351 -1.201287531186544 0.9527407883572494 1.2489668395403781
Ni 6.004806154164656 5.527314155182279 0.39469312155480113 -0.48312596773490346 -0.2573406869718407 0.0058166066817770794
Ni 4.74055373219054 9.279475349452394 0.15294193416668192 1.1681074448901496 0.06528133770631336 -0.228183091571278
Ni 1.8503105530250803 8.557393413499803 12.653745323559274 3.0720291333166965 0.5442053515447273 -0.14431859154613857
Ni 2.9353116993895476 6.3383150634688805 10.760583878136277 2.30662869148275 0.6210024032001241 0.58947065114043
Ni 1.5756501406257966 8.648432382246254 3.50200533689426 -1.3203985131188034 0.6169382604330794 -1.6305797409304434
Ni 4.481849082263825 0.3753983647326422 11.418737694200962 -0.015041981934786999 -0.9421033632480613 0.5427848170481169
Ni 5.885779513482059 2.3011259304842655 8.060523903449344 0.6880359477108537 1.1523339841059768 1.9848240204995686
Ni 0.4294954661693541 0.3657486617640929 1.734209135462454 0.24066399764710808 0.9903202892729204 -1.0067738068432532
Ni 2.048372147680185 6.237698917946939 3.0658263030877957 -0.6012139077192872 -0.5344346453112087 -0.33241072863380167
Ni 3.9725757335546206 1.3601636631772236 8.95262769203357 -0.6097304298307306 -2.0188296880210523 0.7601818737474844
Ni 9.031008050622589 6.654743124485165 2.7020739712787494 0.9405887263757478 -0.42517047426604193 0.004857328092301313
Ni 2.8084094579993373 1.4577950769079686 4.167725122611586 -1.3281272492216287 -0.405553728476379 0.9422506874592032
Ni 0.6861535756996762 6.720193364604281 4.992411165634273 1.4861397933150922 2.1730575682611026 -1.5332483167671207
Ni 7.660170019544136 2.536268865897295 4.109275519768458 -0.8705151094871137 -0.4250372911222873 0.26129272964105327
Ni 7.903783642377042 1.738945653762877 12.045182686731879 0.6467489160366088 0.05733945715141738 -0.634052808626179
Ni 4.229513719804304 8.72769049373586 3.6617331192267226 0.06047620300818617 0.7994752720304682 -0.02966641671618116
Ni 1.7949860852443247 7.612163258678246 1.0014174983350947 -1.9453619578492045 0.2715270057745517 2.322707599322484
Ni 8.971053064362032 5.774024088564933 6.538218637463038 0.22574748554659185 -1.2106358051706634 0.40387274122953026
Ni 4.348400887038714 1.4677441828786255 6.770196455425216 -2.5441099205265023 1.3838412549544812 -1.4853666625944935
Ni 7.542528815113528 8.310627690737876 6.178481281315796 0.9699206425706457 -0.43447761059958073 0.2753533214991774
Ni 0.316799990211449 4.429193206458375 2.43836129473914 -1.4111522840646085 -0.6077581365957081 0.7460485196698958
P 7.864619498126195 7.141198617071011 4.4774370721861825 -0.11720322338658525 0.13244240893384288 -0.9359494278315236
Ni 4.286009764549829 2.2167351961013853 1.2454941730159816 -0.10952410957477267 1.5156709700049897 0.26986967267678685
P 1.8313886552210739 5.000495046691179 6.891750354988957 -1.3835813164248751 0.21279632470256254 1.224153122930808
Ni 7.803632408349056 2.059213883719237 1.7868352569322892 1.8822256915103521 -0.42221062030676965 -1.1783252659634158
P 4.499850455309797 4.898233114480633 12.007771258813246 0.6105038176616454 0.6367689220057614 0.2789454097258099
P 4.664364036561042 1.8400081143190168 3.4962078905646297 1.7969000335586538 0.3638383510154637 -0.44500756359662713
P 6.122512446204418 7.502416251415011 1.1835633129061123 0.9809861563561879 1.6947123097442942 -0.7343754542073416
Ni 1.0862657056280276 9.131373143937793 6.282112842787536 -0.7624274752485514 -0.14595175627418736 -1.4752172328653175
Ni 7.81888150535081 8.527918024782998 2.364138174729076 -0.4338098951085948 0.02268561452297383 1.1474386036868884
Ni 4.486767845869878 4.546220727716962 9.786390667064254 0.7161584169786828 -1.2284183259650652 1.077122788880461
Ni 3.3227224473030232 6.185768304072062 5.956941656215917 0.7222485890368207 0.972944516998634 -0.30588311465691836
Ni 8.386408264252692 4.818947108301389 11.175424404193153 -0.0791552674749282 0.4254190999417383 0.10619350253964292
Ni 5.007905735904837 4.183069061558107 2.8146746052918874 1.4016875391072827 -0.6632533414495351 0.35694805165353366
Ni 4.055013839662886 7.302429923174928 1.57135156895268 0.14323024357796624 0.5662245361282958 -0.6284226069235951
Ni 2.8472946553538114 1.3936558872018086 12.8173374502295 -0.04457495839689742 1.296016484730013 1.1868646708929946
Ni 6.111847376533069 6.097091085714908 10.994330219421462 1.065821504935029 -0.4133030334044947 -0.7272460422514121
Ni 1.6194633998162031 7.141775107323516 7.608926544857325 -1.1171450949096697 0.17671063472359888 -0.32861783725027277
Ni 3.3560008120403886 5.924655412606653 8.503534346747998 -0.18307411504778148 0.4798593811684897 -1.1149735411796475
Ni 5.455503925825847 2.1897796276818204 10.614819247613287 1.4120408573171488 1.2652439794338468 0.23079841770693799
Ni 8.338671152053298 4.559991406167937 13.610804686433045 0.8014010282982714 0.4457745236696387 1.1513453949404624
Ni 6.5462699747153685 3.592770937682264 12.721748857603197 -0.4588439552590872 2.777952781486719 -2.4639398386338147
Ni 8.847981693682017 5.234215352932704 8.598511115848254 1.3483484613645103 0.2151961923933068 2.001056423198031
Ni 6.545535414554918 6.175335690147691 2.9025875091529776 -0.08914297481525937 -0.3446237257602259 -0.34128926207035415
Ni 8.982750237549963 0.04081922916933055 10.266716766513786 -1.318066522551517 1.421632871880958 -0.8651523025133036
Ni 8.712060169309062 0.46048460671048047 4.542188085418388 0.12669882158184634 -0.26976142923369667 -0.378782888140438
Ni 2.872660226464047 3.7984012914589713 3.402401768606154 -0.7491690675767485 -0.7771632387968294 0.21635293170556932
Ni 1.8889818910923344 2.13123797236289 6.496099515756608 -1.9781944309981931 -1.5895266796438756 0.4501335719692829
Ni 5.847163964794079 0.5450566565760034 5.585201215117721 0.5957096900716062 -1.3274536201933718 -2.9786350965345667
Ni 1.4677069899591089 4.584668908267117 10.246099801402815 0.4600719141289173 0.99705786510707 -0.5633374443884879
Ni 5.77204356560068 8.735203463478188 9.763949389251 -0.7671084256639885 -0.6625889683926589 -0.05088933065069945
Ni 8.277795641034709 1.767007711538057 8.386634211238755 -0.20583043490769068 -0.02291598536622505 0.23274242880718626
Ni 1.496485011434981 2.8346862556377266 1.0781530000584967 0.34614453328012645 -0.5857142694217914 -0.06853943963229486
P 8.682203553167213 2.871972157452992 10.275059138361328 -1.9619782262496472 0.2008422376644799 0.2735507210727998
Ni 5.919894718908545 2.8452769394700423 5.642290486929531 -1.1746812414529253 0.02234880000884538 -1.05472256680839
P 2.6404834263824557 7.988555604184967 5.031332626085276 1.3106828284929364 -0.19374033651237602 1.5380192557932026
Ni 3.3985495119672353 8.772275506006235 7.0055207063208895 -0.7527267030210197 -0.5174411960770056 0.1733859412257401
P 0.6165990969119176 1.3217433773167055 13.260675191219898 -0.36457240096801086 -1.0307745406332247 0.8504697608004643
P 3.1746667329378178 8.438134317070228 9.54917422638818 2.0144495566754856 -1.7192316350418972 -1.9565215740104496
P 8.71482174358316 9.026396128602544 7.842033167926829 0.32895825130882705 -0.15918291025248069 0.6034816207075414
Ni 5.137374288741683 7.532170587028189 7.750186183003883 -0.22417114219840747 -0.6284457468520467 0.3272456394930945
