# total energy = -340870.8069449703 ev
CRYSTAL
PRIMVEC
9.26495041851789 0.00000000000000 0.00000000000000

0.00000000000000 9.26495041851789 0.00000000000000

0.00000000000000 0.00000000000000 13.56019145304122

PRIMCOORD
 96 1
Ni 4.673556017142755 3.2834984407779655 11.14958312967931 0.8078442128204539 0.17184636465276212 1.1296488838036352
Ni 6.745708510856626 3.0055036024158244 6.529950977166962 0.44732798419968767 -1.22195405839696 0.4530718286620003
Ni 8.039012209633817 7.436475421830336 1.5448850898909874 -0.13631140497094588 1.725335691057106 1.3354430661567518
Ni 8.671030069780855 7.071955211181441 5.522021649788253 -0.5191664062982285 -1.3528718031561604 2.111498416601383
Ni 5.081519580468873 7.1686164392645 10.413766323619711 1.442766825646096 0.7582949411374166 -0.03507678909847507
Ni 1.1894991938943584 2.136358600357752 5.767312139544011 0.7307149746366189 0.6639732503346951 -1.4359356616568755
Ni 8.798747411784591 4.335413120435437 8.362773123751914 -0.38491265518725964 0.3881620153624928 -0.07758638032591153
Ni 4.002579040338068 5.239894643523778 9.948488850292195 0.14194263511479427 -0.5333786932428686 -0.45684209433770995
Ni -0.0028258098883670413 6.374248852317939 0.02535075743131114 1.4406148123000995 -1.1749380946587378 -0.16257856619759095
Ni 2.498303154780528 7.900491935401111 8.684421629166579 0.5846079237314901 2.1637635445536865 0.1692904310001278
Ni 5.963626248211619 0.6808135747013403 11.569053761468878 1.0988648085432429 0.7582615167963199 -0.0912430518773977
Ni 7.028057875931989 0.28323509433873273 2.3052456761973827 -1.424134041036257 1.4272918699389483 -2.4121488221044523
Ni 7.103872965494308 6.782749782770368 3.929363695873046 -0.5803288367401618 -0.8850454418928048 -1.4391335997688828
Ni 6.443458032206797 2.550316586627389 9.81100161803507 0.07605477417273354 0.7904419581836064 -0.08943788034785888
Ni 6.307476354398393 8.452219734916708 8.35390471317767 1.0977818598917093 -1.7826931459306523 0.9731057251668466
Ni 1.1897122877547928 6.159274206941608 4.394058403817029 -0.9823997488742627 0.04606594112012711 0.3265203312912957
Ni 5.183563744765511 8.668222789793395 3.8755028329057244 -0.09849690522633359 -1.150479190285425 0.13855392114821946
Ni 4.170320968301627 3.4534732218008566 13.494994219083411 0.7530614606526193 -1.8432935332215288 0.9914286918457507
Ni 6.329304577667221 2.867743054120318 1.7267959065833316 0.45462760318489437 1.0010821557751146 1.1917214847646636
Ni 5.171936231946164 6.5026425357047914 2.6672217314517015 -0.6485198918941024 -1.3582184121800545 -1.2136694497906646
Ni 1.8225639934426587 3.5047454576114245 7.693184963020233 -0.48340621797948363 -0.658916147526762 0.011709318017128222
Ni 6.034039871659453 4.716035814972797 8.062618376894704 0.25750163802973713 0.8371858992073647 1.0720890831112955
Ni 3.9731628226476894 8.469193124147818 1.4790641023830333 -0.08220331027263261 -0.5666192004635531 0.22908580589120545
Ni 8.985213804615 1.6909739021492913 11.63787196044859 -0.4121910312872385 -0.1370182012299834 0.5251804737027923
P 5.968851680267485 7.395283452113353 0.8290453699995763 0.3731886818821121 0.0008600340074501317 0.7013874293170952
P 5.292843835366459 1.433788142506076 3.6521526723192843 0.7434925860172614 1.9175493065123106 -1.363998509196941
P 8.665535954161832 2.5932781618810217 9.678830614348257 0.40112088951600594 0.6822944172413862 0.21904179139164212
P 9.2280666859064 3.276596052689987 2.1950150016798884 -0.32571763288434225 0.2793971525512478 -0.10386819684057597
P 6.722861143037894 4.674917964859443 3.0248988496955214 -0.08314510536061165 0.837070713785739 0.4494758837806259
P 0.5303313229379097 7.863821261505516 3.1632264129587924 -0.6057603894393889 -0.10203114363183717 0.39375930694461214
P 5.868929189624735 1.5593004263018408 7.966192478553167 -0.7598604858523237 -0.6140007750713102 -0.03317571542102028
P 2.9352845429275165 2.349007743170212 10.692536638334825 -0.7657141164196232 -1.1475409335927076 -2.4793870264268203
Ni 4.017143542451225 2.2876459763156056 6.614756774649515 1.076486440848043 0.5885414544579413 0.3006313793396758
Ni 0.09939809444707204 7.105827870040031 8.314499025908153 0.3768509612250478 -0.8076752913427575 0.051268311256673
Ni 9.032576231334124 1.910089980378408 7.571875260750249 0.17366979101474606 0.37898960483460536 1.2816920976875412
Ni 6.258372116993982 0.8852743543028535 5.586636340747139 -0.5542961601218259 -0.11791927561700336 0.5616526004868972
Ni 3.155558739963341 7.424875703862351 3.6999255363435037 -0.7262885634341492 0.2982191703537574 0.3186244734829868
Ni 4.150818247596667 5.527228551943211 12.7303078274102 0.26293772144364397 1.5959027583735483 -1.4741355697653644
Ni 1.172961257334571 8.72952896694528 1.2989673629895162 -0.4342354126817876 0.2841300392505429 -0.6243553788327569
Ni 4.976631076382961 1.3266204606085625 0.8144086012728804 -0.8089451591941165 -1.2234740945859124 -0.18186209701755132
Ni 9.18758811737435 7.050599500385749 11.40330750383304 -1.191280283462187 0.7460814297903602 -0.9596017771431409
Ni 2.1645889043900612 6.5841185099942985 1.4921499184037863 -0.08492045209347955 -0.7200621229084632 0.35343412496300425
Ni -0.009296451285204883 1.3225531473594048 3.2996963536561035 0.9430274177242275 0.3235890165771137 -0.41039048774339
Ni 7.07729182264275 6.063743302813895 12.305561732832318 -0.6708612357037801 1.2673152601405788 -1.0438362589131895
Ni 8.641104279815524 4.644278773709181 11.097376060367969 0.3181516476116263 -1.7779170646982478 -0.1341046271276142
Ni 4.524733118005575 6.148499069563999 4.987763840848081 1.1372423798801767 -0.6912233442999 -0.10973622558557874
Ni 2.1194130059780028 2.8089847383431907 12.531257778873627 -1.1790289768986597 -0.49864154687199924 0.6789450411531791
Ni 8.278789127374601 3.5201530702158648 4.202574113820916 0.6091989828072928 0.019434968796160076 0.21108474132809452
Ni 1.6274256069876207 4.308591088872085 9.821687811888323 -0.05831519080112537 -1.4358032498440694 0.601187682467042
Ni 3.3720991619663394 1.7305445055368835 4.614804186830945 -0.25134101774498 -1.5218231056493146 -0.39964250519826655
Ni 1.3564165412675409 9.168215105975742 10.845197079949912 1.0344805287299021 0.3531605595866434 1.1358678681301533
Ni 2.6917367903520923 4.667431884892884 5.9867571235142325 0.300949681911043 0.739618704884152 -0.4219663655064475
Ni 1.7773973599810546 6.948981523809979 6.542209433112203 0.1370138303546092 -0.611094914278425 0.31569727253386276
Ni 4.76949457909043 7.958388610786048 12.755231470625597 0.20341874014240452 -0.025573991814362408 -0.34396938000567856
Ni 7.834080770549259 8.930726630997013 4.19970012619019 1.0708215292527814 -0.6197101667512617 1.7279358476841145
Ni 7.2678533235736795 8.547509750332628 12.941534800328023 1.2051130755802213 0.1825634939599501 1.0801086109816624
P 3.270888843210531 8.380925941175777 5.712813847985478 0.0030796673665882445 0.10552912948276665 0.047583663316234176
P 7.186581178194152 8.125639496375562 10.828626716063537 -0.6766847843640927 -0.23922623675931703 -0.8389337351364067
P 3.7956649018564246 5.085623953519845 1.2276179795458617 -0.5653686158859038 0.2675150564016812 0.9042405267640168
P 2.2305090268678693 3.50546812374681 4.253750920641811 -0.8205434055546772 -1.9662105191634394 -0.08041433669300989
P 6.332287891713301 4.719815914757891 10.800828158722366 -1.1227871236867955 0.27565105524525435 -1.5721059130642667
P 1.3645419028154029 4.77824995726914 11.949498568957527 -0.23717861020166894 1.2175479589094644 1.2610749356578217
P 8.402476215930996 1.5338125476038156 5.332532103624812 -0.6889317200522457 -0.07830526076980708 0.5317349869918584
P 7.429971426611864 6.619899748646343 7.448721833339986 -1.0161765882143918 -0.04054809662569146 -0.6197849858532551
Ni 4.470625807356186 9.071804031554931 7.437141571767953 -1.6000712879289412 1.2358817242216458 -2.0060199378508936
Ni 2.4502180619260203 0.19649570169649969 3.2868273374759664 -0.9179180242511096 0.6687074225855709 -1.4919006070582694
Ni 7.595739920128793 6.142180373354601 9.651900182864598 -1.5912819717720852 1.0140885953371117 -0.45194542836704105
Ni 3.7404272672516896 0.7952162564081187 12.229842072259672 -1.04159811361129 1.3505722084887064 -0.4124455705002058
Ni 7.050154782763973 5.382713854766985 0.8526691406663247 -0.5358022150826965 -0.9611076722647062 1.9354133312769246
Ni 3.237979739199122 2.682536694551606 2.2357909751215024 -0.2598400563549267 -0.2672605171887139 -0.2760837719072987
Ni 9.124558659438085 5.55750641002578 2.4576355812592223 -0.1338950822199694 -0.9551612248732841 -0.039701689464996144
Ni 2.2750363787481707 7.377661516350486 12.789931489559699 -0.5356795734619033 0.06542506237302925 0.139840758280443
Ni 8.366759831932127 9.09115851305263 6.9217184806050325 -0.16440456366273623 -0.8766402485482451 -0.002603241950801968
Ni 0.9772391790009523 8.759945799284653 5.217487360851595 0.5921816223136898 1.3684084653391786 -0.5453212103167253
Ni 2.8678542335257613 5.197266606486477 3.326951984900688 0.9545876117580012 -0.36195373239824113 -2.36225785081128
Ni 8.844738625836571 3.755955324212027 13.458733982492912 -0.5631893488463978 0.1395435387549984 -0.030608726024792445
Ni 4.1631128368486765 6.718080428603804 7.2044755035003565 0.19849533469885816 -0.660419728655482 1.1761305723049422
Ni 1.8895032604703699 6.557731931102269 10.445809154763703 0.7795492225305025 -0.5373137666312165 0.8862242926922544
Ni 0.5767135178990346 1.7703930574380857 0.7836044940045435 0.4855739150547637 -0.663860893126547 -0.3414147319046249
Ni 2.3789613279869024 0.9708556281383789 7.601517543231696 -1.3278269443723907 -0.48623674544974327 0.7356412082936428
Ni 4.436373285528997 0.5677042800778933 9.744489465223273 -0.8637950171544607 0.38434932648462194 -0.09974826113493143
Ni 4.059762314538072 3.0434343095731182 8.744262091156694 -0.1828149478491239 -0.24579232001260895 1.351073316494841
Ni 4.4846992670953 3.737962790431015 4.102120741517171 2.4504770282606896 -0.23739663974974595 0.31365375974127274
Ni 7.739105763448765 0.5437784720263554 9.45313456830695 1.261261597747331 0.6698808740683818 0.7476539164838026
Ni 6.058860673924815 7.744034717090114 6.010677372595498 1.2321029739055038 -0.35026061233102906 0.03536346710095845
Ni 6.611014661161282 3.574742158288844 12.591681932742322 -0.072372697335456 -0.4199231098241735 0.8638078726702672
Ni 6.948861079454082 5.033610521672984 5.54805708705809 -0.1484092166757444 1.6156259478340886 0.042033165811650196
Ni 1.5684912571518739 4.093996306464355 1.0027724559562006 1.3309243523507917 1.2926308560872317 0.41078489496833126
P 4.829624107534698 4.340935030905819 6.311713216240852 0.7451085243541297 0.27740891847662547 -0.033120179592736505
P 2.7356804503538132 0.8609538593619898 0.5832267780679593 0.06094568644543697 0.9807082201044529 1.0543654405792875
P 0.3558037452620891 8.685233238826319 12.755855001791128 -0.6813852751635555 0.5858531089925008 1.19485308841511
P 3.315999886969413 8.212516936779554 11.078907308133637 0.7278361104269271 -0.3392105251644545 -0.9659395464357106
P 2.5511782270195797 5.77101719323043 8.41275660495438 -0.47704505164814615 -0.9544749974395369 -0.5986813711054206
P 0.6016844123617456 -0.1808258909942204 8.944247899689087 -0.6600258356511729 1.0664136299930733 -2.6329384494251364
P 7.023082597538371 1.642898074245237 0.06556620137047829 0.608225820260746 -0.8221115213727455 -0.8323337133213858
P 0.077870055572942 4.749945533633201 6.274951745830811 0.005580579411571034 0.23516749330891112 -0.9396299620069044
