# total energy = -340860.24611600605 ev
CRYSTAL
PRIMVEC
9.40275852137220 0.00000000000000 0.00000000000000

0.00000000000000 9.40275852137220 0.00000000000000

0.00000000000000 0.00000000000000 13.76188754142818

PRIMCOORD
 96 1
Ni 0.14600697042972377 3.5458647620624997 5.59530781614551 0.26633337738875423 3.3869504469164826 0.5039426473699385
Ni 1.057462401416659 8.772434950830869 0.3849169535032251 1.1390452374168705 0.19920958715706338 0.7779183717952989
Ni 2.5752650413878366 3.9096574788743443 4.347380322726893 0.9293388644935414 -0.015007014931793511 0.400595098919523
Ni 1.5039523770643837 7.141319671151767 2.8459027516347213 0.9879854704921566 1.7240084876052502 -2.701801076724805
Ni 1.3703109740132915 6.3929071279974945 8.827149601105567 1.6829981066311597 -0.8787151287994027 0.9446065892858891
Ni 8.098351211667229 3.605149152848198 1.9001310141273282 0.21230267289559568 0.42692525217361965 0.43118274189839295
Ni 9.044964496038274 4.092559932413347 7.817054534664648 0.054887653176815154 0.22895339407839926 0.12729300352241948
Ni 0.6506464239419999 5.006489229096669 1.0843157387116436 1.1675448875184604 0.21632310690889842 0.0519473396015686
Ni 8.220051111736904 5.679378817962166 5.893294389047318 -1.45440003900965 -0.13795588255290434 -0.6627303790665297
Ni 5.258201067531745 5.161474893382263 5.083503460844384 1.254695514494039 0.15190180321003516 -1.4886085665705586
Ni 3.5707538631584144 7.638772596531211 9.446462273444988 0.6309569433096747 0.3497584758836299 0.32067878490885415
Ni 4.5157122620769155 3.175602947572532 13.551633185227372 0.4358798902637461 0.1801469140986575 -2.112216268604014
Ni 1.922967493096595 9.185808411911228 8.272490294514357 0.6115872805338112 0.22719681639860873 -0.8420028609800337
Ni 0.11391535651194586 4.706635268405799 12.459186881454286 -0.9892368264007544 -0.6253259702761425 0.31840155883890325
Ni 3.316559696544524 8.13111982417923 13.493351128471453 2.1870333137149043 1.9298522922493795 -0.828460860629541
Ni 4.120721193381336 2.665296451661122 8.377851961843472 0.13768823071381447 0.6340278689255145 -1.200157788457475
Ni 8.791842243865235 5.516786322249827 10.149433166513754 0.18211509356862185 0.6126180357911707 0.6131625954407312
Ni 0.8946715075051791 1.146769799304457 12.472962862570881 -1.2481420296462375 -1.5162363555901563 0.09469681475395304
Ni 5.99634579867365 2.8727589097571817 6.185252853633072 0.2635002788153333 -2.8729128772043877 0.9630534831371672
Ni 3.946713749149751 0.8268635163630592 10.057270150944493 -1.7367585881820669 1.0229013085327352 0.4782182460206409
Ni 7.674362036519136 1.103780388571354 0.051655933014971143 1.5068412875285018 -3.5886460337201935 0.8979040430230278
Ni 3.446063885964259 0.9953007666055165 12.477393442259734 0.003488472769232702 0.46051594364487136 0.1725729584061415
Ni 5.428334575363058 7.485197345983579 4.6705503030579365 -3.168812912506665 1.5581867318800133 0.14104403455992484
Ni 1.3146372423967774 4.024192477155169 9.528552114097717 0.6922047343765627 -1.0836510769172822 0.4982738791199354
P 0.9364018889081941 9.383416779358056 2.7064673689480787 0.18673330906692356 -0.6515365672332393 -0.850424766495142
P 3.1163279595450866 7.622571644061146 4.287805386711175 0.5179286772363855 0.4956043027075722 -1.271452936458036
P 2.7283137374732953 8.575061652340368 11.353281469517734 -1.0386300321219017 1.0933353940845816 -0.9044816962405455
P 7.48720953624974 3.5460716227440674 5.05995707362701 2.908657381793849 0.8529477900273117 -0.2691795885882977
P 1.0678524492863175 3.902605410184531 2.8863769245351243 -0.8262018893920352 -0.3600462309628832 0.10596878812334652
P 5.742838033412235 0.6025889265104841 6.319858039405105 0.14561545598069114 0.7497971880790506 -1.9236009120230293
P 2.463268787835345 6.776436234382565 0.8621436056044581 -2.3101125362662924 -2.9713586174778115 1.1676374472322664
P 6.748039904458249 1.881087607837356 2.4021649633276745 0.12493093104814615 -0.020301173451197294 -0.15747904018749653
Ni 2.3920052830352168 1.5388930267328462 3.32518860779338 1.1577425567160577 -0.19913785337886347 -0.9369555004985347
Ni 0.35686852563427357 1.8924649453235884 1.9184898996164759 -0.38228755885958676 -0.29746789401002965 0.1763473378469092
Ni 4.1043603940209685 9.234505296903954 3.056776530425 -1.778851403587059 -0.3880229186814672 -0.29492970096920823
Ni 6.392126699062489 6.490272689708186 2.6310939185155267 3.1875665389650845 0.3130174117088545 0.8496989440727108
Ni 0.43196553497418483 1.9121167100725354 4.370321172312769 -0.6499843922547709 -2.610651870112794 -0.7328171085812863
Ni 6.592800365699821 2.109160912024177 8.667745580716849 0.22579736494792077 0.7517702526450214 0.2763537377392337
Ni 6.1492440506270585 3.750826086463239 3.4731974254551856 1.1505740639920765 -2.2425431738567507 -0.4500816356854248
Ni 8.82886090310763 2.7872126151706174 10.84135299780767 0.6720112901478233 0.8107765559759004 1.0206796182910682
Ni 7.547518827685024 9.273423313313472 8.724719713799765 0.6401609784064459 0.9162429505415317 -0.04881110796543207
Ni 3.66054080171712 5.303202668531008 9.511074267056884 0.35039713790889326 -0.8635646463112094 0.3319960096938863
Ni 5.740280483167394 8.988933459608141 10.439602286203945 1.0641448885635543 -1.4643684630762717 0.06935319378284184
Ni 1.2455551775113645 6.057661185242015 4.694234910821632 -1.7291524937000349 -2.970116003319962 -0.10476371207165183
Ni 3.4911125007547876 6.613665086263416 11.781923129449455 0.6625645429126267 -0.7291170340218798 -0.8926037138560369
Ni 1.19518460154959 6.819538478214704 12.284424395734979 -0.14246071240179337 0.8146162414369649 0.4731703991840883
Ni 8.465406685592894 8.216788354623084 1.1831951445010818 -1.3815123497109885 -0.5031965132325333 0.6670776002916318
Ni 2.080285041428954 2.7870903793133275 0.40770547840540106 0.06668336026016258 -1.2984688029252478 0.9454812785813588
Ni 8.782881415250046 6.010647393976591 2.8740461473620287 -0.5144674581606624 -0.0075700990377740585 0.7577382973029982
Ni 5.336422613439156 1.1606952842772753 0.8038004309198932 1.7156529165517034 0.33582695340420227 -1.1110446384388866
Ni 7.445893816485686 8.576829370891948 6.242034230171799 0.16812263594427174 -0.12942727625660289 0.5434954699618961
Ni 4.020920317283095 2.948103211639149 2.0310343339751222 0.14516037072114354 -0.1329311756448033 0.9953128573915051
Ni 7.347841853422519 6.141402150243986 8.191859761942505 4.080682159460534 -0.8010387598628462 -0.6851123463061556
Ni 7.091992801356085 3.0899344171286782 13.617979047461137 -1.4474421196345781 2.5726229403645307 0.14829865923980912
Ni 4.791513967156394 1.5068954403975992 4.338297258254413 -0.25357916304687944 0.9443440796531221 0.8282340893307156
Ni 8.728100945667574 8.643607760005356 12.371248525168138 0.972370646773035 -2.060276899422245 0.14787931231420337
P 5.755606979119923 6.49363887716279 9.211643430487403 -4.380822972317036 1.0287580244238281 1.7312057766846378
P 2.2321866010075366 1.8719763350901168 9.042550807994706 -1.0359090336463126 0.5202102741817106 -0.02897941795148557
P 4.447542264742052 4.855170640529778 3.019179601550041 -1.761343476610283 1.0769063019942806 -0.23665436226708272
P 9.249606126658408 2.6449958965927123 13.743872577711688 0.5227273841766095 1.014233091334776 -1.2933757046730563
P 4.501514097114758 4.058804030284773 6.564861009826606 -5.067681354780021 1.6776080459638398 3.1398453216297213
P 0.10902968332364306 0.27091979299447744 5.899459777633866 0.7150906378358007 1.0061703689312995 2.168923748598387
P 5.612835497805086 1.3319195120659468 12.02337561835459 -0.12577810953978982 0.6962393094572524 -0.1436231081410107
P 3.845728125511622 4.536313705409424 11.687213846945259 0.46431783388946485 -0.8589551725636562 -0.7190964165610841
Ni 7.825285709239398 5.6541324120526335 0.3698631375400366 0.4872932117387157 0.5266418887396672 0.6742666618409033
Ni 6.396151079594809 8.605141075991986 12.581708582595281 -0.516410440819646 -0.4326909510128032 1.0455159606084576
Ni 9.312200288349192 7.814999091710523 7.9530908202428 -0.48824631968060433 1.3411740551032578 -2.229832925378934
Ni 8.15568923149454 1.7946292457002426 6.680336283932738 0.12249815323693741 0.06399630034630269 0.07003864988564067
Ni 3.4450859991059386 0.6767851516097497 6.535451062562608 0.8538047387109683 -0.6832943192608103 -0.1901575042571241
Ni 9.347639284205068 8.409930411899696 4.3350354414164185 -1.335807391474706 -1.315119266997735 -1.2867615417906484
Ni 6.996159889240647 4.207057319661159 11.718783607779992 0.2029402578440892 0.20293254453460535 -1.2940022825134618
Ni 5.162932320911492 3.2904952506669733 10.586180004059631 -0.020014752559030045 -1.2120578823291706 -0.09736433428378716
Ni 2.7634988588563383 4.836289901957584 13.449864311826762 -0.6594254830630127 1.7679692094569164 0.16427163762929772
Ni 1.7608263297804032 7.784374308080227 5.9721769488599215 -1.3697498098584218 4.625047433621893 1.7063097847739064
Ni 2.120237361246311 4.150621964626144 7.200810922619034 1.054864748813209 1.120643337870915 -0.47586260130427077
Ni 0.6839632172601547 8.995346140736746 10.173130938139002 -0.19656495044536468 -0.2279177537250333 1.5839723254845492
Ni 5.363455543416774 0.19447254756942328 8.3078315016844 -1.9053987871927058 -0.8483907667842486 -1.1866222158648854
Ni 5.648114646770659 5.939148820220135 13.123404306382962 -0.29883803488467886 0.3757541286164432 -0.5294364207656689
Ni 1.4099436000500434 1.976177702050801 6.934476854824586 -0.37178280267352104 -1.2629875792995022 -0.21408444738636678
Ni 9.306398786507039 1.6901646015084721 8.918969415998589 0.4873891138866316 -0.24032101248539253 -0.4407891546399054
Ni 6.29525948353921 9.177082652252365 2.5215489640396145 1.0840398277152685 -1.397549091458877 -0.1485593691003635
Ni 3.2164673349404382 6.174922983416233 5.881169532279966 2.3501667239747013 -2.125226564820753 1.0339516528096258
Ni 7.633046316755082 0.895811121805453 11.36799302508051 -0.4617901823716047 0.827795202021084 -1.2081914573952288
Ni 7.151004512152445 0.9785262458820133 4.474182159424692 0.6300580856444892 0.6381015247742559 0.2422827641974537
Ni 5.905834847729457 4.704529050557109 1.376491407013044 -0.9051560965997508 -1.1539607210761222 -1.170463860937468
Ni 4.433870654242067 7.08036158939702 2.1278771023269423 -3.895988506531458 -0.58461589415129 -0.4656206118612884
Ni 5.488192534402195 6.473911890347819 6.9887270088415825 -1.3844269522546222 0.8493220203492663 0.18241745530038908
Ni 1.68570769409651 3.065393218088127 11.874747158923906 1.6404766883291813 1.706466364956429 -1.3317303931918547
P 0.6482355567259089 6.07609059141806 6.802913461347425 0.8478665188496624 -1.5807471336790324 1.0932878286760976
P 7.692058027551441 6.1454547390510665 12.06222499462886 0.6799290023330032 1.566471854706941 0.42502340716521636
P 3.572512178951741 7.890992183911953 7.316067112457869 0.29705728883517224 0.5728921779564585 -0.006078859204228241
P 5.79467543966149 7.949138840949028 0.722506063615374 1.0045616296832827 -0.663964765694263 0.5734855885660833
P 7.362453739747812 7.236419168123466 4.578524567759172 2.769369667803398 -0.9930762547515026 -1.882190210286726
P 7.627442272836244 3.842803867694913 9.38842844950695 -1.0381968012392249 -0.30540180414512563 0.2883936996229033
P 8.343763202072738 7.695809728094423 9.79264268377298 0.21496684999132007 -0.6930909936362579 1.8328980489198174
P 3.405697844783767 0.56939624960127 0.8791701202491438 -2.6479783744773946 0.833247483384907 1.8528878617781832
