# total energy = -340866.7148377438 ev
CRYSTAL
PRIMVEC
9.32293244243936 0.00000000000000 0.00000000000000

0.00000000000000 9.32293244243936 0.00000000000000

0.00000000000000 0.00000000000000 13.64505400595843

PRIMCOORD
 96 1
Ni 4.321766512318155 5.520024367874417 7.030041082899445 0.735643779396804 -0.6378053336900759 2.0857295351673955
Ni 1.997410297984584 8.792084629503993 5.047455179724708 0.8346268802309368 -0.6872502185847648 -1.2059085748983231
Ni 6.022847403956606 5.394528374832879 13.368727993836464 1.8534167376984598 -0.8626709308523466 -0.7971435385734981
Ni 0.14714943583466503 7.528678122333862 2.740936531952788 -0.04232010092444969 0.21970899266199584 0.04674651212691949
Ni 0.8949176040450425 2.938961209896336 4.886225319085747 0.11369572445395904 1.74252300146967 -2.050141867870772
Ni 7.722501886937798 2.2585829262488777 11.22334318049978 -0.7698188826166161 -0.09735919207746459 -0.0737891180670084
Ni 4.603878446753706 7.218112598212346 12.752326469200144 0.0013855674936169686 0.07236781223944956 0.24311528740107807
Ni 5.672668740065867 8.214398446246738 10.753816997485554 0.09668993392458186 -0.5087773497544206 -1.216013524542809
Ni 8.882181448221282 6.692998430760844 13.358508195339164 -2.059932114488317 0.4318265461299789 -0.6330410795322129
Ni 3.258560655513822 4.95959493249027 11.208865598775226 -0.4754339984072844 0.3786648745053349 1.1777225993824103
Ni 5.5730532073677885 0.5467247247555856 7.553847242935173 0.37361985588225977 0.009505368387273953 0.8538317352941617
Ni 5.698446648152923 5.924369269011373 9.159870583526091 -0.03678528714914955 -0.3923824812017436 1.0694981824556677
Ni 5.420315605852335 7.945935284845346 5.6241223664706 0.5981926043944601 -2.325369462425363 0.6932303474275996
Ni 6.858396574476017 5.973025653208965 7.176657247000808 0.2882605164791487 0.13811426250763956 -1.3079142646088637
Ni 5.250134797815767 5.524014582941781 4.678915932764658 -0.06284958833636918 -0.5495298490814342 -0.16381218149437593
Ni 5.37036333405109 0.3466797673608748 1.5641055719323222 -1.461038370261774 1.6210268071346856 -2.0951305167663206
Ni 5.795451759778895 3.6999642129422954 7.4239461643344535 -0.5020441447956451 0.39482785741844256 1.3409028037197424
Ni 7.406482447362058 2.2988207024889253 6.629722756266214 1.7443901365853958 -1.3794384979010952 -0.5037421013233583
Ni 4.572814435995634 3.5027375780122196 12.823594693641622 -0.26833600964107984 -0.853092543135292 0.16150358796585734
Ni 5.350747884280687 1.253514875893325 10.224307067407274 0.8651924117226196 -0.7496015271284768 0.1367348656616097
Ni 2.262013765372218 1.6723289681156737 3.129602125378782 -0.4995190643809461 -0.6392585211968345 0.20790274405568712
Ni 0.1123534552367203 0.3193281482846349 3.8273695425394316 -1.025676300174711 0.4469909125752431 -0.42242582164136927
Ni 2.5544088942453906 6.65890446697265 3.2566653033568245 0.252430651264733 -0.8630031173807847 1.8736088963756186
Ni 2.0819413260588453 3.39016316927761 0.8254887941661596 0.17458870328458964 0.303493017158187 0.8135075817538183
P 7.03578400925808 4.214524820916564 5.7001527447821925 1.0122248026554954 1.817696915699347 -0.9618471215338918
P 7.482548252816772 8.108834882677217 4.984620479932616 1.5576894805286206 -0.14159553618802065 0.4796287532149224
P 7.797094669073252 6.388436875105175 1.8741070586436155 0.02360632656503031 0.09939627711215139 -0.43408885980159434
P 1.8337555426282832 0.0672220717797124 1.8108080768179835 -1.3325415762392405 -0.5393230837517615 -0.6203570563066414
P 6.8698544583960865 1.9750818748856698 8.712558151542256 -0.06728808372369702 0.390417901276205 1.3432059979316222
P 6.867402527174786 6.958487576726516 12.011345395777246 0.9366613662968836 -0.8310777294270978 0.14762425888060382
P 1.331025735870099 8.540318840031683 9.598108073111396 -0.04599575000382401 -1.6711707749789284 0.7204804413928043
P 0.6133808945385948 2.993118124210153 6.938155193454523 -0.628270140506131 0.5821856874432425 2.2027268131907616
Ni 7.386680538943648 9.166717345080931 12.094880734671145 -0.47646629632654075 -0.9283636450644656 0.930255976991172
Ni 0.6025411210366711 5.525058751370624 4.094130336484514 2.4433229337144113 -0.04308269012208709 -1.5655236318610586
Ni 6.275331059223744 4.776017070594355 2.1818029841722937 0.35116152687874364 0.12168954129271302 0.8801189511254649
Ni 6.137845775115314 1.685819251299026 13.300038492496931 -0.6860184030601927 -0.6658331863615693 -1.04455745334993
Ni 1.3382323626155939 8.927705327132346 7.453705896849712 0.6280258857058088 -2.5195047203833125 0.7945999462160379
Ni 5.516248580252263 3.638498119626578 10.478037198736343 0.7328693019754604 0.5181981288476882 -0.5651400448148653
Ni 2.040705996051957 1.172666406117215 9.186273128083972 0.7783328336248982 -0.03774070908388339 -0.5937260839826743
Ni 7.98852244005029 4.103647185878824 8.346652632985313 0.4839260950386955 -0.30904865686909355 0.2769803155796391
Ni 6.247847054507417 0.5790389407485488 5.329962406494035 1.1215277973583975 2.486219990188254 -1.5973569743215716
Ni 8.283322885482761 -0.1592990813388425 6.844550155274971 -1.546409279629111 0.4503395173325018 -0.9506872482623303
Ni 2.71486588378836 4.938944637223425 5.242402357682891 -0.5625242044585731 0.6492649975902431 -1.1607342923545299
Ni 9.369733521031645 4.798466691814474 1.2370170147176098 -1.306965270432033 -0.5838746451098912 0.3164297798245131
Ni 9.082344806857476 1.7416822622421133 8.7312105423957 -0.11192526281709755 0.49055182788532936 -0.5157959471640987
Ni 8.323793735032817 3.9563448539527926 3.460563428712613 -0.5529149635035833 -1.5536207097758856 -0.3082325887257014
Ni 7.553607643572483 4.842135307177862 10.785610061557335 0.5237972202020205 0.9948217766876998 1.233805044198275
Ni 1.7334594358649764 3.5801738545297903 9.308806293208669 0.3339927284089409 0.31312771203447365 -0.6488932160731211
Ni 3.048263269358411 1.9061294668524464 5.474095873697177 0.33348390709332243 -0.78744585166976 0.8363245796483338
Ni 8.713753351475985 7.487433469394572 8.280527870349127 1.731554161162992 -1.499560180486056 0.9473954648849361
Ni 7.776295206888 6.073592125011884 4.131981442030064 -1.826346363844229 1.3426375270226618 0.5836172776834465
Ni 5.645007599633934 7.1583805703231 1.341191461359475 -1.0198589221619856 -1.8079640046822991 0.2994571565259165
Ni 6.170494684381451 2.9039815675301033 4.237935636467163 0.2331556050852049 0.3772505106563116 -0.18049015637068913
Ni 3.3022199479448098 3.847891181339152 2.936005840325415 0.046268029828604194 -0.2389465007353691 0.5046175619497761
Ni 3.394339842992981 7.25437880524983 6.175028426407756 -2.2616719242664014 0.8223064109923708 -0.24731595574598697
Ni 3.4681308529420027 1.381071236995348 0.17472760216823421 0.14695320095550818 -0.5327562291675212 0.35158293068687835
P 2.3982963912009985 2.949673259224374 12.455109519689493 0.8106976231088491 0.2796704608172926 -1.930378854176811
P 3.396940941132688 0.3148167812960902 7.333466173095508 -0.2674831747224813 0.29448387168104123 -0.3147037982723419
P 7.375325207279983 1.2442199122901445 3.0667804776920495 0.10237284324197206 0.762974348890957 0.19271909433671325
P 1.04799083112691 3.4419893504913324 2.778733564490415 -0.22419968144349775 1.7609405847449093 -0.043195047330235284
P 0.13837748873914588 5.005128134333734 9.67007272060318 0.2644778122372542 0.8650160340457554 0.36727643016273526
P 2.466847913141005 6.632473953617567 12.425513870784483 -1.0881751900398808 0.16798970991083326 0.877495911680321
P 4.163416505497671 3.644129170796409 5.985048506832498 0.4887628543057066 -0.8233713619217755 -0.4967985801259895
P 6.662158170380382 7.906769645831343 8.331737805731183 -0.8855074691308878 0.5556485603846624 0.4771401824651137
Ni 1.4003510611993375 6.593625294305176 0.9461797478485413 2.415209463307647 -0.003148572931310706 0.08513025411144048
Ni 4.474914322859226 7.769722539545731 8.323183082960593 -0.4422695958401738 0.6685205033857454 -0.3768831000145638
Ni 2.0683951052810903 6.400584656022872 8.903615802103 -0.15680026895291704 1.150478933175109 1.3124597178877009
Ni 0.14633834071583185 6.975632449410817 10.935323303802107 0.16235770843603653 -0.8962120000325856 -0.5266454882840931
Ni 3.409480285211201 7.9408449637547385 1.7460211549812508 1.1941156960284531 1.2430270770171756 -1.4578023798229796
Ni 2.513658356723322 0.4390448555311767 11.43192141792056 1.254007744398395 1.0085650944157212 0.09210205744358331
Ni 0.9640471477938729 4.7907006891249555 12.530730621268711 0.09903323734577783 0.8767256091731997 0.28977489624114605
Ni 4.562764314868022 1.4048820063459229 3.616402769837674 -0.20310532266704376 -0.9952781474988278 -0.22823219964165856
Ni 3.480782072209321 2.570621473689654 10.479333086339997 -0.8414043081640863 0.10851726557681313 1.6796759842364621
Ni 6.361959747088091 8.61666433345841 3.109611893725883 0.9892807922648125 -1.1356706645176828 2.934403380409701
Ni 0.20280174850550373 0.06457249439152392 11.213696742345105 0.7945356686370058 1.0511441054285122 0.588844844630973
Ni 9.198555159228235 5.026104732234594 6.124500929677407 -1.632415765697918 -0.9885948219413812 1.4892662547592157
Ni 7.352661158614655 8.460747611994424 0.9506864533708859 1.613133263319222 -0.41531954961389117 -0.3851507393399948
Ni 3.8092289806747686 2.555760719443446 8.063681124182448 -0.4373446477347307 -0.36881832072855836 -0.47732967276810045
Ni 7.756968768022009 -0.0681450420873502 9.889197991448514 -1.415936078606497 0.35116898307791133 -2.6002551002595022
Ni 7.322958295987038 3.022513330068557 1.1594231806424726 0.48374868892056694 -0.6769447228936986 0.05610121386894209
Ni 0.7276222435863925 1.0574629304456977 5.973995238178606 -1.0565647622234513 0.7585188842227646 0.5482450688317396
Ni 0.9624902180830092 1.4951932525084206 13.175950262247849 -0.4953050262995986 0.4154396201315232 -0.5675656235372225
Ni 1.5821855347363827 8.647849542337687 13.300912051262845 0.32718341879659135 -1.5735310755465672 0.4999741496404938
Ni 0.07498527758951026 1.7763915395687342 1.67394836147362 -0.014125640768104705 -0.520702897547413 1.1959679187458434
Ni 0.5807413082048585 2.9866200403270873 11.095489417854186 -0.39622216666280796 -0.9888174794751488 0.5450116494961065
Ni 1.9232929854015492 4.7692020070096754 7.449175883996366 0.060069968708703 -0.5499365976015497 -2.157397493126343
Ni 3.4188218634763836 7.640394821287636 10.626372511572338 -1.3622853831605763 -0.41970070940072235 -0.10157682970323796
Ni 3.7207263833979454 5.384207888665657 0.3333694167728498 -1.1437459853266494 0.4725024265827862 0.44728684654910705
P 8.25469216008119 0.7919271698180255 0.06883027761877826 0.25393731771724654 1.7173434168802488 -0.11760637236227486
P 1.262157234228479 6.683796696481668 6.040638355856254 0.3703442704547815 0.7221984525251756 -0.1258585850687381
P 4.857387624584886 2.667999502611641 1.7188541299665383 0.21094050244074636 -0.6210479117260788 -0.5935347939074745
P 3.851461864448498 4.622766707796879 9.24823520140339 0.23971706035280652 -0.2623489388197095 -1.801423375350304
P 4.373340974357066 5.590086204863286 2.421560836712911 -1.1087933805108647 2.0032020087861238 0.4086601353158446
P 7.924613738445673 3.9040525261190515 12.882486725321593 0.079660746356437 0.07537240339372826 -0.3967988651018844
P 4.104355728741253 8.465987100003439 4.036056858269296 -1.0283409914910677 0.3169663690542735 -0.5266380320849253
P 4.5115161554631245 -0.02654238854388678 12.398946310323115 0.2647014982122861 1.6343232671332757 -0.5508375121492642
