# total energy = -340894.2656486564 ev
CRYSTAL
PRIMVEC
9.00351199738434 0.00000000000000 0.00000000000000

0.00000000000000 9.00351199738434 0.00000000000000

0.00000000000000 0.00000000000000 13.17754989711626

PRIMCOORD
 96 1
Ni 6.207651447188876 1.973524821916205 11.24449519202523 0.10204117093416619 -1.2082439078997191 0.08920982349745282
Ni 4.541308449101395 0.39223530103028303 6.088568295875615 0.40011301707678193 0.8860378877130612 -0.2830362919657319
Ni 2.8406530666241117 1.914326730243954 4.8710287646233725 0.2736425094556577 -1.3377974253215412 -0.2418176516355771
Ni 3.2918640725792234 4.435265084277704 4.552895969098686 0.3488945852214378 0.3272096440488365 0.9005502223966233
Ni 5.111284782394706 4.629578881155349 2.5843023707275594 0.4861557557001628 0.14031846924780994 0.40739232434701456
Ni 7.194634444191994 6.416631965181974 2.801547212423465 0.2925424316839542 -1.729453826990538 -1.743265021842017
Ni 5.31825751720257 4.294468162974181 11.78875479387467 -0.9056921716088788 0.7302084673138457 -1.198670148168355
Ni 5.443433345114251 7.673126091632568 12.334107422085935 0.20823390214286075 0.5518842082462236 0.33909148308808695
Ni 1.9007314270614293 6.25291210222103 0.4069191288186137 -0.2646991842194409 0.8873640627236523 -1.435267174834941
Ni 2.724201641880554 1.5289313973115277 0.5276598266986979 0.423540909082419 0.1178961356885518 0.1462698017352384
Ni 0.8092401640376808 9.20266972776291 4.601007136043148 -0.5140931055403791 -0.8930901665741522 0.9115578863610365
Ni 8.553921667619331 2.294806145601772 1.1718205974571818 0.4885047155483135 -0.05503420605700845 0.7756313755333352
Ni 6.85892049070405 0.8637384224243174 4.82813603325811 -0.31991336749773935 -0.00307323960868503 -0.2542890446297104
Ni 0.5878113902961338 7.015725656417196 2.286858745522822 -0.1573054907241097 1.1444859488164676 0.3301196186067798
Ni 7.671271368152038 3.834181616881332 3.670658930834094 -0.24825209440701118 -0.27011881257311543 -0.15999615018239544
Ni 7.504229209247814 3.621509658951257 12.46809678793495 1.8789773597763835 0.10189693204681807 0.40511844071117326
Ni 7.812338394816803 -0.05646552576768393 6.884887519782673 0.23426837853340943 -0.29645436514385076 0.1834224995261357
Ni 6.779995704149077 0.6063379170237372 0.32977703764783867 -0.8566141831353052 -0.14822229747591892 -0.19191742437102433
Ni 1.6999260980019293 6.437141965612299 9.249098138306834 1.84466418831681 0.6354481463118089 -0.5641339721478543
Ni 9.01035471055846 4.766243190431866 1.3498290340278392 -0.8458307193665562 -0.22005917691256294 0.2330321921334632
Ni 6.510439557141393 1.9448126220161581 7.035704449637078 -1.338728935996875 -0.2447854760146494 0.3289546517644012
Ni 3.6636100812568766 4.221089539836714 0.5381147048811797 -1.350848087857912 0.3550276947023692 -0.18292627661600752
Ni 6.166010203997369 5.531937868481282 4.713675285026907 -0.9391962169035953 0.464382111468497 0.5585521071847025
Ni 5.489747411055249 3.2343586411707568 8.78834521029024 -0.034987828929094585 -0.7588312732568608 0.5875004147879366
P 0.2746512344719161 5.270763991184149 12.390863761292557 -0.1995158055435725 0.6653580464973637 -0.4399843993504229
P 4.005194324595816 6.029273866624521 12.490854965322017 -0.7069862635611115 -0.4532584907515097 -0.2979602602654159
P 2.140666019452884 8.392623749397524 1.4749364352480059 2.0045657219028703 -0.3000744783949413 0.29076194274476375
P 6.226189678482133 7.809916450077664 5.804895542338209 0.1490717899604078 -0.13554830155267622 -0.38590741500036124
P 4.643381265114827 0.873078665816073 12.595695460936977 0.6889031808071555 0.6433974830658725 0.1260125941480991
P 4.028846550728592 6.185628856735595 8.178224917857907 -0.458559591249449 0.2302739126620357 -0.7232001543168125
P 4.83295021114665 1.232076601794298 3.718480184690823 -1.2695965999755876 -1.384794620006686 0.42474984178885555
P 0.0618406224564039 5.520386362532157 3.7181902716030897 0.8866932619088729 -0.1366505334779195 0.27598632709748594
Ni 1.459271224647162 1.1935235632329932 2.6190640303682278 -0.23059581477782867 0.9136947301983811 -0.5587241139861926
Ni 1.8275958987490803 6.6739793498615105 4.788879820406371 -0.5059540213730126 -0.3108386588899808 -1.0034169745558785
Ni 5.959028465677464 5.669592564082353 9.079621429746615 0.22669442284089344 -0.5335252461230618 0.20127778254000175
Ni 8.783781330036451 2.241622399973181 10.250065390212665 -0.777170437885681 0.804027667287841 -0.13969446251056586
Ni 2.425456108834629 5.513066507242493 6.8212272875427 -1.1951546788159286 -0.7702613694706735 0.7910338261313344
Ni 0.4543127158533759 9.053751638598039 9.298066439597639 0.20769885557499715 -0.3554313578986911 -0.6477197645903102
Ni 1.3074900186531229 0.9013415904652536 11.490520660312695 0.9301305071569013 -0.34682767539008014 -0.671388826072476
Ni 4.01679985161719 6.612593404763198 1.420645257638322 0.4721306450656643 1.3138663684272402 0.8596732816766034
Ni 5.642924161415706 7.922415333035044 7.959793413274946 -0.755954208819382 -0.06701169013385878 0.09729954248412276
Ni 5.167097553539389 2.8654667458102296 4.987768301752256 0.5204103060076586 0.9875067310835253 0.07135479759390291
Ni 0.5814684160629627 7.551758749314401 6.821978180446954 0.8550113574245597 -1.4309574917159937 0.6758548322636295
Ni 4.7276181237742305 4.829357809842129 6.593216046147681 0.39090743931811384 -0.5186732687118938 0.941906673856223
Ni 8.093166938900328 7.055764274465332 8.91039591917235 0.1835986200926838 0.3573270322595072 0.9342370731261072
Ni 4.485180555035265 0.09345825569221282 10.428976879041077 0.02299594667454104 0.8527415875537766 -0.36377227366421866
Ni 8.12017747502455 7.200540748091156 4.8073019063942946 0.4838517901573344 0.8603479391461247 0.4686843383882767
Ni 7.162834039661744 6.165749102148168 6.945728752402481 -0.054302984317938736 -0.712112014823451 -0.2574458450911373
Ni 2.186277811454652 5.190407646214591 2.457046731534313 0.31436518398600055 -0.08615432450058065 1.232105030788033
Ni 2.3031433977521147 5.087038324467197 11.381832063651238 0.24498113696522322 -0.26271532102019274 0.13486181700861288
Ni 1.1973410523385497 3.405209285668496 3.9355278494730213 -1.1997016747566631 0.034589307939095267 -0.054761154901279877
Ni 3.612200027500442 2.803990765591503 2.605280553784038 -0.2661721692205416 -0.5641380859129123 0.22861786511585142
Ni 1.1609848707153485 3.4448697562108936 8.219509621972575 0.576636218379923 -0.709054716054366 0.5653462472884005
Ni 3.7791071337240454 2.5956585004653863 7.172447989819558 -0.25281400274608073 0.4431540553276561 -0.7782292181674985
Ni 4.077915691354261 7.070773129038358 5.819680209461404 0.855253812452669 -0.6583949849159694 -0.46229334726026833
Ni 0.8408767046487767 7.176348311235896 11.286716261392204 -0.22562690080832756 0.27280664381792374 0.991970937502466
P 0.40854246203967937 5.450564126651045 7.977847255620374 -1.6763358641196358 1.3020812028668542 -0.5608954106058985
P 8.56703978466366 1.6761658297246562 8.02295395059662 -0.2731460294352135 -0.5821851732226102 0.41197145907726473
P 1.937447749166287 3.0950292923299836 10.349041898435056 -0.31426362541112973 0.6327795983407103 0.32998000770512204
P 3.797069140246652 6.335771423538098 3.6294138421724083 0.6431966799089761 -0.46837169224386427 0.4060921174783523
P 6.942905251026295 3.796447897915795 10.333992528057845 -0.12262053774741462 1.3030121993215558 -0.8298793382436225
P 6.178903233240664 7.618798899974719 10.16215779969398 0.9809560744492009 -0.1931762364787899 0.2397692537469806
P 2.4208102966212626 8.469693812471968 5.989183028206544 -0.6682212269777718 0.18853488105203658 -2.965938732013821
P 6.914229065174414 3.962895825025286 1.4311739646195432 -0.034533257890179234 -0.5827366748507061 1.30208480241128
Ni 5.3511923642500365 2.7002342928263285 0.4937553014043717 -0.16533581722775398 -0.6157311274988557 -0.19358607032269884
Ni 1.4251749245463536 1.0410130727636002 6.970172387243696 -0.48529237925860286 1.4616706045291343 0.38148537467326554
Ni 6.895564784712577 0.5908185633179638 9.243801372172875 -0.028377265591112418 0.3259893984884902 0.2117784249610095
Ni 2.7925292947627915 1.6122769082788324 9.08082069755053 -0.19739618809740844 -0.924355552346337 1.0126024977098884
Ni 6.43343251865124 1.9233302422853609 2.50741147754274 0.4713487725943173 0.3981252972227918 0.2641196575668871
Ni 4.0356802163680205 6.705860786000133 10.35527412947012 -0.18018188110165098 0.06440227753546973 0.24260080965850475
Ni 8.01895098914301 6.93864658983071 0.16960455843120828 0.49799465731661974 0.1411697615045117 0.4418757028358648
Ni 7.757200887075226 3.7345667596552046 8.206161015019987 0.441380251256685 1.0467292641902681 -0.14804643401968698
Ni 2.9848533154792865 8.52390395847328 12.440898978760268 0.002992764079736781 -1.844114229350611 0.1937331374235244
Ni 9.066986801298908 4.829789978420116 10.183808545099952 -0.44424497439898974 -0.6844348606231567 0.08683335284547626
Ni 8.484522596804165 2.5064246926230016 5.853336237823386 0.9894785100979153 -0.10260578518838458 -0.36365220314658664
Ni 3.760316804093629 2.6624195422524193 11.52837952809561 -0.9660092233313815 -0.8887200625309145 -0.15973106944646684
Ni 1.2841619189538374 3.070485718505108 12.486875412999714 -1.098090906491696 0.8624762983430372 0.2196467719654927
Ni 3.0675595770916506 8.400393780289258 7.906424195298301 0.8816086482971139 -0.8121762645369045 2.5025107569284772
Ni 5.74373648574334 8.08390232500972 3.659959157124086 -1.1535771124844585 -0.5044864356885506 0.379168810724947
Ni 3.07516754476664 8.465714260149666 3.5111058932459125 0.06214896272491877 0.22966199010964963 0.8062143905265148
Ni 3.594580154435409 4.3904996224078285 9.377737617300845 -0.7476978823478607 -0.21727467218889035 -0.060408582995044355
Ni 7.068711324780875 5.944253702417515 11.346160148943184 0.7400840745563447 -0.2426100656298854 -0.5652022655113687
Ni 0.40973002527794095 8.851289663322921 0.4758914331630161 -0.35794898211422227 0.3969754998890647 -0.9348489956784932
Ni 4.608168529520884 0.02678454797198165 1.7766765363989032 -0.5937168280112937 1.5658064532088 -1.7693514345164238
Ni 6.033019327633746 5.6159046217794435 0.41192598186484014 0.04448651244814919 0.5677471434204093 0.6850393269763752
Ni 7.862343900694777 8.44679788135067 11.350983330343768 -0.32291384488696 0.7555811417506794 -0.09165057172846151
Ni -0.011396645542012968 4.881064979495929 5.918354199679204 0.31118190116201244 -0.006641930796549851 -0.4869934211101097
Ni 7.966649587694477 8.901367197297226 2.4047840451875584 0.3101958830996593 0.12585549974494453 1.0208919914121901
P 8.486125221947535 1.7147998998943335 3.688963070814274 0.2871449148174668 0.2369155863482694 -0.6528588855890886
P 1.684413046754585 3.3370436960030037 1.5220464116534638 0.800190552929938 -1.5659491494342515 -0.051908773054149315
P 4.862373688497969 1.081889017431588 8.45739141361859 0.08999400996164501 0.40737638350741456 -1.1249946728610756
P 8.424307108271236 1.3729365476821105 12.35430860205324 -0.414241486058364 0.6506868176384342 -0.6961002127762269
P 6.29828079939768 7.74155278314726 1.4081132692278875 0.18793350002261183 -0.5724846581053947 -0.42074174907072703
P 1.8203480715557478 3.2956815616847797 6.2068636398852535 0.7151855115424521 0.11250478946965141 -1.6544136101252473
P 6.687448603875454 4.0034566467718244 6.215085647081466 0.7822010583310529 -0.004394272412953723 -0.5072010064062362
P 2.3618012787018814 8.39247068969282 10.129766764773814 -0.11677050672454084 0.21670234462518806 0.6316850797249508
