# total energy = -340894.9462284966 ev
CRYSTAL
PRIMVEC
9.03084040836798 0.00000000000000 0.00000000000000
0.00000000000000 9.03084040836798 0.00000000000000
0.00000000000000 0.00000000000000 13.21754778898979
PRIMCOORD
 96 1
Ni 6.189954709189074 1.80127335253133 11.321874225827006 2.033223494848879 1.1836628761262453 -0.39388194856540554
Ni 4.549990226810431 0.3571634138578916 5.771177484027649 0.34416349829435566 -0.07000753953738911 1.4464165065835413
Ni 2.661713758443753 1.5450774429264942 4.683637633001765 -0.04045193736745936 -0.06008231000387717 0.19306002261589977
Ni 3.6213579454908342 4.302662602419454 4.9059967900207715 -0.11822755088604156 -0.5282190034188 0.3277454619476484
Ni 5.069769273418204 4.397251624140383 2.8099848043976134 0.32406441355163546 0.5984857101548466 -0.33558784081020265
Ni 7.177260360197507 6.156206458838577 2.645743620386536 0.20486935654600202 -0.43815763055432927 -0.10771688116270482
Ni 4.9608392772373895 4.491569720651113 11.538773336776462 0.15777857370578632 0.32126962441531765 -0.5266845690521446
Ni 5.456316332490283 7.764003087926217 12.290799407491484 0.46676346721648004 0.6929249003720389 0.21864147062942993
Ni 1.7058534934991225 6.419518670631315 0.5558879586231412 0.20424303581591274 0.3272752071794493 -0.5807201586413094
Ni 2.5302156922533334 1.6216409073288278 0.3981869091862756 1.2700344588439547 -1.2118200552867517 0.15367612150163856
Ni 0.4881277573842184 0.14532789508706181 4.653541454484754 0.40240695531728116 -0.11818075680850615 0.6908222522067392
Ni 8.606354720637665 2.4550971623053965 1.201733924040871 -0.21742816704761908 -1.1503899730057285 1.5870018563394928
Ni 7.150700658757632 0.6044269192824548 4.836076411772525 -0.7241483771626948 0.008553288886649786 0.1552054136619714
Ni 1.0155902429532448 7.448673235775206 2.9584310486540697 -0.24367141701486422 0.13472554854106475 -1.0713887146101613
Ni 7.453513766197434 4.044037396763164 3.889289432117471 1.1195236224441751 -0.23578995738425843 -0.7953645922962043
Ni 7.699685443024895 3.913650123934562 12.708315024257413 -0.9787287277805791 -0.19516447055341227 -1.3415234680228767
Ni 7.858881096538026 8.90815637395939 7.22991919021992 -0.00884768019861702 -1.6773046557908082 -1.0184507289605493
Ni 6.928388462108394 0.47874019885081126 0.2740471717048701 -1.282219945166553 1.107012634461358 0.9428998910074277
Ni 1.9022833017339837 6.442700837784038 9.041014484705011 -0.637973998057456 0.08339707347041767 0.20156420343216902
Ni 8.88743962621948 4.920435297556328 1.3479784494224407 0.7742964587719955 -0.07661090378651968 0.7620880896312616
Ni 6.440894669716043 1.923930226028911 6.826348094022949 0.020731319010080428 0.047091811281480184 0.7265395031026907
Ni 3.6918075309830023 4.362193901940588 0.47203841223451354 -1.7310594809147606 0.12029548915866377 0.5704737983229531
Ni 5.888676844607068 5.696058050995678 4.908428795324327 0.6689071973012028 -0.9951771031445893 0.056639602870915365
Ni 5.247496211308971 2.897581246443298 9.196637537779646 -0.5321749027427545 -0.45016956741354086 0.20467086738195073
P 0.23471154043602796 5.598859116416495 12.376078535905929 -0.3414412142671862 -0.2001128156976231 -0.1222065901384476
P 3.903698137879906 6.248835788205731 12.649497161123136 -0.18118718243771376 -0.4748272180612209 -0.8736585402121019
P 2.3507458021769505 8.436674261489818 1.3325140384242624 -0.6313845177653965 0.6964429408276264 1.0567146575377544
P 6.34721776286945 7.65591295989702 5.964470881412436 0.5812096966832184 1.0583030850707968 -0.5265161617950803
P 4.707867377633926 1.0526528117085145 12.549479701273846 -0.53120225441684 -1.4943421266202264 2.059084678886357
P 3.986962485814503 6.250876758122565 8.145670783962606 -0.2137661448149996 -0.03190790445219021 -0.6116674989524434
P 4.6877556961967946 0.9717635747833316 3.773583596429571 0.6292595010025936 -0.08740156664412044 -0.9918482958816726
P 0.27719261339528445 5.533322308069274 3.5444576307438194 -0.5581481868780646 0.6142738262270389 0.43521448876560526
Ni 1.4420897396893853 1.0285494988411132 2.5826821653765033 -0.06575699179115127 0.3540902704897644 -0.5509632390938511
Ni 2.15009859150332 6.331594409081288 4.953474626940138 -0.8926281393360692 -0.2569712194475639 -0.9881788174498853
Ni 6.012896053483465 5.66208402963668 9.243308920656654 -0.2285296762774193 -0.06438016604828269 0.7165299413854885
Ni 8.709333393034434 2.4223784277536557 10.138876586239489 -0.3883185955450151 -1.7832865565402773 0.243585027948645
Ni 2.3224521793917994 5.130537798065916 7.007705429730387 0.6401375813676782 -0.046007834188682054 -0.13076065035604578
Ni 0.4928246974450409 9.005255969294833 9.236501473208378 0.18105117108048174 0.9140623979504452 -0.9576233132605314
Ni 1.4704104549955563 1.0285494988411132 11.411554985823159 -0.6814215277181296 0.19876992851648348 -0.888666840695476
Ni 3.8724604611439224 6.7970077968423945 1.5738397663252903 0.9449796563545918 1.0929831529514855 0.24710203996296795
Ni 5.57206461312778 7.851710609308084 8.116050530731512 -0.6137148683997753 0.17368033253770734 -0.8241907724992774
Ni 5.569445669429186 2.7257785398155567 4.72171797746335 -1.256940601774474 0.34376934817973054 0.17087448765779603
Ni 0.6827441728788121 7.503598806722953 6.787567859435015 0.2970171796258563 -0.49101796888847044 0.41131377088860777
Ni 5.228441138191617 4.575710060098689 7.33409986746594 0.16360649324147308 0.2927746022994184 -1.2213045977384192
Ni 8.112015551267609 7.02837792635263 9.188125067675184 0.5056002375780195 0.32172676655739435 -0.19733345318027307
Ni 4.484923022160889 0.2641547891964582 10.4880052614469 -0.15668791174476887 -0.16665119360506783 -1.046711266468139
Ni 8.175168217765076 7.174776879104014 4.7529511387791645 0.12297355021145917 -0.43678877523126064 -0.015494496091173315
Ni 7.388627178354692 6.091879783096913 7.024743013115789 -1.087819863582991 -0.6558807031345478 -0.4693710800426561
Ni 2.422631291283176 5.173009840184832 2.7320938064653033 0.09909880047639062 0.29345465908557844 -1.1526114061370794
Ni 2.32643477998173 5.247387841224891 11.417819679767002 -0.5990287271425103 -0.23672841003812778 0.3138658757520788
Ni 1.0862926919749325 3.5004530550192086 3.516898215278309 -0.9819472347178766 -1.6112933818970059 0.9797168027254611
Ni 3.6458947386945546 2.5239302273767086 2.6832812113436884 -0.021227027699576344 0.5416383621484995 -0.5407202212096043
Ni 1.2459398875050633 3.36853957017315 8.250142254267573 -1.0516727242384727 -0.14355060303186246 -0.48615704125174347
Ni 3.8574963587005784 2.7820135826126 7.045124716679085 -1.1113292595588407 -0.9917544506162855 -0.5536227882038852
Ni 4.230524249783709 7.014903912565384 5.947249068884098 -0.5813058559414505 -0.16995197584352664 1.034588000842044
Ni 0.6706762609324994 7.387353829866756 10.996814546293704 -0.13761212606024043 -1.0055484190765844 1.5749870912668036
P 0.1635584524813754 5.574268138170734 7.943679784246386 1.5398845911367156 -0.8986077539582717 0.7333117888295178
P 8.480446744617693 1.771742504619602 7.81700328371348 0.9644400790720487 0.45520558717555154 1.0712118227126648
P 1.8457321795250416 3.2220503090183676 10.36936440264851 -0.3575887705613261 -0.33053433754669526 0.3206232490805704
P 4.076250404255865 6.2067972264231335 3.6972124889264792 0.6086464527379324 -0.39319160736660025 0.9355005132195632
P 6.792067927176427 3.8436972346610925 10.50801670055626 0.34039580372180733 0.6042640073995206 -0.2598639676143267
P 6.376911165907298 7.857842549898929 10.122275192442507 -0.9626662750010775 -1.048714412941097 1.4678775046707946
P 2.3349237699013092 8.339646912877095 5.6533033435741205 0.051822383987930105 1.4195158255379554 1.1524959636051377
P 6.872279851076111 3.9714113787490612 1.627305050390062 -0.16218030231790778 0.363033081505349 -0.33232768200169216
Ni 5.4332064120602785 2.965700875127752 0.2711834922330631 0.5903587101723381 -1.109597878690031 0.23248403293947703
Ni 1.4545432685182151 1.1717515341121443 6.799476828591344 -0.3240998947752612 -0.09938136471381595 0.8206542201009286
Ni 6.821273664835915 0.7581345311209823 9.1282099574396 -0.25180844429970184 0.5142514854951143 0.7634268630473433
Ni 2.7274402144381127 1.5190776535876978 9.076040598963614 0.2841063851014591 1.1355865894443087 0.8033578949143261
Ni 6.353286487577916 1.9614623984818595 2.604597305629528 1.0670926583379687 -0.05905078341556927 -0.694850399529526
Ni 4.09089842728731 6.85606949266585 10.381709561393258 0.45042307818524363 -0.4787851742677045 0.008515493670178882
Ni 8.07047368570371 7.1451376611082065 0.441085206969239 0.36581681489807316 -0.5139324115927988 -0.621460316673149
Ni 7.487984483775131 3.79545448556493 8.357732976825968 0.5250372632567087 0.08870305906436336 -0.7999856360079836
Ni 2.8946100999714455 8.427435711822021 12.439761312731353 0.9622150463962718 -0.608771665461887 -0.1292143889148484
Ni 9.026162364681882 4.667129256860285 10.22271529561971 0.8448588423715901 1.5860281795723137 -0.01820418171285252
Ni 8.67802346957573 2.5555742919279916 5.554568263053107 0.26698360937824345 -0.7439659261092543 0.7624832681871514
Ni 3.577395814715821 2.44955222633665 11.48295642188716 -0.2819554001967273 1.2508067209625942 -0.7120230546540706
Ni 0.9975556547943089 3.1604148236980176 12.694661296747402 0.6775713007341041 1.1520259659472547 -1.4390202141194701
Ni 2.9757160770647877 8.511612174630956 8.117226346143777 1.0143809297665496 -1.0786376828630908 -1.9086653737591193
Ni 5.881497326536786 7.881042778732333 3.766102448291933 -1.4996540257514432 0.7390024114563918 -0.6350431975639063
Ni 3.1994370848070623 8.288812312603358 3.624978409383131 0.7003721006787035 0.28957666418741096 -0.5300725116877709
Ni 3.3647556480706995 4.5220397759581985 9.2765378976876 0.844940603452119 -1.1618794617025667 0.27540808599651273
Ni 7.2772859478031044 5.919255269998233 11.329857488687548 -0.33579944260037653 1.1058116721747213 0.7877710962196627
Ni 0.3903418181829367 9.040683955948566 0.29186682586371465 0.9083848879496937 0.3061600224673888 0.041600963370238025
Ni 4.631927041215052 0.4635169112897103 1.558427734201084 -0.2817106311757729 -1.0046045671060764 -0.514864693599081
Ni 5.864230359806748 5.718635151845622 0.43514291402553346 0.5636089528823197 -0.2546469421897614 0.3437390091624274
Ni 7.797417197184136 8.729517321194285 11.485401070367192 0.40869330254662517 -0.5412028172729776 -1.0622075623315255
Ni 0.22162585278339986 4.931236182602942 5.75988983668671 -0.4436181394482682 -0.18641449227492413 -0.41005573011179053
Ni 8.057622799899923 8.845635866285722 2.4845945961078666 0.017353660787099143 0.09929163321348707 0.28699244840000254
P 8.521952486820231 1.7848643156335902 3.479215227791683 -0.41798938313657047 -0.235811040430181 -0.4298876772360532
P 1.954788607470616 3.3202787593963077 1.5216433153282856 -0.6854195931339293 0.3774171181411629 -0.2903963318752289
P 4.829846938106009 0.960547271081079 8.037432550151834 -0.9701929223954259 0.8218610959248361 0.500440547753951
P 8.37823569364982 1.603931429422131 12.278255570259253 0.6394667805528986 0.8512871144954371 0.14097795720867978
P 6.3285058616850165 7.840503336446171 1.502571083614286 -1.0085897770060697 -0.7541305253470819 -0.0989843863857134
P 1.8052288606002402 3.1827209993377634 5.851778637145986 0.7857355538468727 0.9430734404708144 0.3394061861150284
P 6.907852331175284 3.884715311485272 5.999683030982044 -0.08741827881466879 1.7000090393668594 0.5943986845696666
P 2.4353376836415244 8.257701067632135 10.195672444221644 -0.6798356712882485 1.7337624816682204 0.3443535028179747
