# total energy = -340870.4389931819 ev
CRYSTAL
PRIMVEC
9.27659768817976 0.00000000000000 0.00000000000000

0.00000000000000 9.27659768817976 0.00000000000000

0.00000000000000 0.00000000000000 13.57723840951408

PRIMCOORD
 96 1
Ni -0.11311326571257264 4.6798394262590595 6.247960130302734 0.43170467584013394 -0.4232082083333486 1.547315079272832
Ni 5.289933423513211 6.453404300025984 4.400627752070576 -0.8341897926935181 -0.18489779852008156 -0.7049944299420633
Ni 2.5609717583888414 3.8891579026688046 5.630453203871247 -1.6920669017016474 0.761668742705656 -0.33893361735398403
Ni 6.4592392799440725 1.0997777570889447 8.287206760594342 0.07841093310973592 -0.6076704619779083 -1.4372294407676343
Ni 7.6634715265046625 7.939376093633055 8.732648570945285 -1.56872131286275 0.45815772782534 -0.30294871461894274
Ni 5.519269470468632 4.063038448908284 7.691206698140749 -0.4901237392089753 -0.3335366147081288 1.28521270924629
Ni 9.12168773996083 0.9163682897495301 7.55535278096363 0.3779117983893943 -0.16262921692986831 0.523164471714028
Ni 2.4466376924263162 6.158473431129711 4.00513578173385 2.175255090133054 -0.6797179147634617 -0.8405332184130427
Ni 8.70256178180644 7.281971448394411 12.225149362613275 0.37005810667293043 0.4405988930059702 -1.7909170765023417
Ni 7.634788286589358 5.5589733083850295 13.129420041375242 -0.16574745084387582 -0.40013718544649796 -0.01749764256413116
Ni 8.970776049487942 3.3228030633062002 9.885179555856467 0.943486359638517 0.9065367789973613 -1.0337788746771874
Ni 8.474320373373013 0.8685882459242494 9.920765512078686 -0.21662906818509145 -0.31390984161613683 -0.8889553184701723
Ni 5.891177546614968 5.275016654501629 0.9997352174567936 -1.232694841853232 -1.3576383713068683 0.5231217914015507
Ni 1.701875327173952 5.940825897205754 12.55093512293332 -0.7926873025743574 0.2082621842776349 -1.5862150987721393
Ni 6.0166528063479605 7.414988582011989 2.1096856915221687 -0.402474575330423 0.15790892863606354 0.4691777330849275
Ni -0.05914202061967422 2.4412108828045658 5.639278958869767 0.8526621404660929 -0.7224517061865622 -0.27631902784655643
Ni 3.76291268533136 7.526344860130784 12.930798809219166 -0.7923854550632224 1.9721520814588551 -0.20074736395782844
Ni 6.246276427830344 1.6262710563752028 12.902150820374908 1.2498911511268604 -0.6268457493547785 0.026410114562412584
Ni 6.430546763431123 2.989847420667095 9.941878120656707 -0.10820847608714267 -0.30798807681506307 -0.3797077139475525
Ni 0.45059124970313613 7.098536006581593 0.7635150073897475 -0.12883772230172005 1.157753098239019 0.5315740359339619
Ni 7.653499184037344 3.0517316035503415 7.571930988613255 1.4662443399427458 0.39262262223700767 0.22484399989571602
Ni 1.6952889428466988 5.253355799002846 10.056741880344708 -0.07003607878247939 0.20408388453022916 -0.305226454909526
Ni 5.76831828741759 0.5627184130861496 10.48699140673404 -0.7240882133487208 1.0627508364295053 0.29979242837814823
Ni 3.105443103909207 0.21780430842414109 7.694506383922726 -2.041397288908923 -0.8077801923517378 0.42871782529766816
P 4.488639472218199 0.3311522720571074 12.460089402205446 0.2842989607282394 0.002066652721041602 -0.5511797259800314
P 4.848933248114225 8.79097703395158 8.465177358735069 1.0907758608875215 0.2418359064680222 1.1446109044301063
P 2.47584969840733 8.748787067866584 0.9224129207743725 -0.6589372305726845 0.212139407844854 -0.479918002320567
P 6.392586925871801 6.000409483873284 8.142202407501165 1.2729989407889173 -0.11491597001430533 0.4848190391666102
P 7.797444149679575 8.216709256798627 1.3915443785288435 1.0619298831901065 1.592836974964031 -1.8798975575978074
P 4.314601223818772 5.793430037239948 2.4177939673717703 -0.02108433147412498 0.9546984263042525 1.7242547992881014
P 4.322198757289223 2.9491324336074993 9.020906783156216 1.5167248651908007 -1.0154106565826446 2.6946860629465785
P 5.331687389508937 6.182416329648922 12.838174764722936 1.6989276333772223 -1.2447569152240885 -1.9168391678191632
Ni 6.931881929906805 8.08196667601926 4.578461984225934 -0.9385094752492159 0.8917976730149738 0.5261520935874422
Ni 4.758282335936879 5.042303926003787 10.394285728178543 -0.5496969707869178 -0.4471924870630879 -1.1423349639117357
Ni 0.41441437421099353 6.476818432479487 4.985467139898651 -0.1382369041284329 1.4809235392214755 0.9857954048193732
Ni 3.4248920203786213 7.944626647899569 5.859474774166537 -1.5252149049396828 -0.27319128085085204 -0.8362101655576567
Ni 3.726010379903455 4.6127417954998755 12.537859758554076 1.255291239096509 1.3711312635869806 0.5898771425502293
Ni 1.288584348937649 1.5830977709399416 0.2620471855677575 -0.6624611845655429 -0.6245528395555437 -0.5871070360042598
Ni 4.288942154735417 2.41891921866599 11.80194633979434 -1.436207170150707 -0.7566432644666066 -0.950821974067982
Ni 8.099842679679284 1.238963828139795 1.3608462616052583 -0.9271349148636872 -0.05353242470050135 -1.1829586509703691
Ni 5.612248808654627 4.156370297804751 3.25423323650091 -1.7602073061233106 1.2954030195157304 1.5445565426910883
Ni 5.285554869425234 7.610604196531403 10.952839876582292 -1.0835258641933274 -0.7935985015347171 -0.8455067603682342
Ni 1.3354126138446532 1.1943712232649992 11.423847990040148 -0.6151652276930566 0.5645756876709631 -0.4294806716056216
Ni 8.728591914795556 5.396252509111304 8.633046669701224 -0.6583782727454209 -0.1997639169986366 -0.4572568132776254
Ni -0.030366014727929477 8.954829578137874 5.355595964616866 1.829921739900313 -0.25494621859773514 -1.584896894181348
Ni 8.861395686667322 7.5757056361946065 3.119913668574111 0.24404576963514743 -0.019220281682192707 -0.46521154934832787
Ni 2.318286687423679 2.702569744827137 9.79755281451107 0.11161081690047231 -0.6177489292598329 -1.476693817410844
Ni 7.944543158520774 6.827306844665786 6.6325762175616125 -0.8729545721665418 -0.469450784240656 -0.8583697323738314
Ni 3.1659729035364266 4.509780838248917 8.22230768347679 -1.7023222608810682 1.2134730175091424 -0.15924975893467413
Ni 7.830979050162702 4.985605361203547 2.1662887073666752 1.123650243018039 0.39408120906040517 0.9542482261407115
Ni 3.232458278851106 3.8825065821580433 2.852021298830858 -1.2326899567572254 1.3579463894655905 -0.8432927834360509
Ni 8.634564321075786 0.3520496635697874 12.717039097367815 -0.34599309530392675 0.19780910726511094 -0.4212577694751971
Ni 6.960787808165565 5.877030735207841 10.678335148038384 1.4047738913420902 -0.08085939465022848 -0.690917640134023
Ni 6.252881365352886 8.213388234842068 13.008894774145098 1.2897327086038304 0.3511620410993758 1.0410815789861876
Ni 3.1182077022673766 9.180668347781499 10.180485199297559 1.0068121162803565 -0.6880686007210022 0.4942770992557165
Ni 3.370623924161114 7.000602965253692 8.517164339591911 -0.12343891988365192 0.2118532440630029 0.16140280072193494
P 1.504682691055055 2.316245835941995 3.709450725449118 -0.30083861025447545 0.18583573695331865 0.9106870537203091
P 5.302206362196246 0.31541545181379477 3.6580472425840838 0.8684697969223107 0.6468769569740408 0.6021775571841371
P 2.1002959193868933 5.981318245921894 6.818285353456979 -0.23183122984682655 0.02657980737105745 -0.5484165614125974
P 4.679820873063772 3.740852936133884 5.468653570743575 0.514866493371294 -1.682665662992405 -0.6695132063163179
P 1.2601886835493088 0.49961064697365754 9.294733392412347 0.5979933438994605 -0.7683708373161799 -0.4139532653939838
P 7.428105691080631 8.558728135335937 10.86219824100259 0.4713986519956462 -2.1944838564556783 1.0664491112166987
P 1.8145488821581979 8.17287733293064 4.060449350505838 -0.4669938380597312 0.8168456449881157 0.6104557380325293
P 7.508190558541441 6.102850951656178 4.249703074360984 0.6136634463365496 -1.8681424739444086 0.292507978901593
Ni 7.742545244822275 0.6559407981304182 3.5437270915180243 -0.4217725043280865 1.0502871567448555 0.20233913392498054
Ni 3.1212411496969703 1.638497612070019 1.8582082613100057 -0.5362117918162894 -0.9456761682009843 -0.2842169425373944
Ni 3.8271902304067624 8.376739842755585 2.755052095998171 -1.3912046372980877 -1.0593680360002014 -0.20938112837342654
Ni 5.045699160741497 0.4483611556295141 5.99314219727896 -1.0794506656826892 -0.5196330615220018 -0.4776163507705839
Ni 5.40716178794067 0.8181857079450049 1.4342046681143905 0.5985702994488531 -1.4050153179289349 0.8499948780465748
Ni 7.570584954295108 3.13107434319963 4.142972107827497 1.5651968446492592 0.7960721598861902 -1.2095150613026588
Ni 5.61703553303894 7.5861789149347025 6.769420875367112 0.5263544394062354 -0.5756391445739764 0.9947441293722286
Ni 4.222911332705295 5.625291704942116 6.311936185954706 -0.49337027117073096 0.9174441699384844 0.4869288864207614
Ni 2.8531289245895537 6.074566605439567 0.9187347498085192 -0.6841229858096928 -0.3598935074351028 1.8313600150087364
Ni 1.7482026558081791 3.5388364692400978 11.873525494875349 -1.0313234711581594 -0.27980570084357614 0.16897727063508317
Ni 3.5056726326627325 2.338556053275859 7.18392059427643 0.6205398617414087 0.2174353661364707 -1.0854811881474855
Ni 0.6808484628046074 4.449705591906254 3.965707458767479 -0.33751873928432835 -1.1344128808511815 -1.2269854501732804
Ni 6.589334285303785 4.662928188754014 5.8559988330293224 1.7982694031023547 1.3433826327188025 -1.7601533129569233
Ni 8.736226554656582 3.45259194094366 13.222031098634769 0.07140699098807701 -0.4665320679319643 0.18298669754029775
Ni 0.35264893177759093 7.39532219500667 9.549441861583922 1.6806640591813444 0.7130766927295654 1.6914596071349515
Ni 0.7355571974102052 7.6359293080995725 7.20778928001449 1.2647282161396927 0.2012718690027308 0.7578563109381012
Ni 0.27182100884549515 2.9348557498333547 2.008413075042421 -0.04346398472090579 0.8827021384716087 0.33766554927483783
Ni 1.65431421105307 8.288732760906784 12.092241692847898 -0.15038690922740552 -0.05556925262487204 0.6382568194051976
Ni 1.9107750295195995 1.0111491431979938 5.829604129752798 0.29860740693111154 -0.16549214029996012 -1.0587864524651185
Ni 4.8628852509708285 3.004968274826845 0.939987435010965 0.28315610537304786 0.9827442766978752 -0.2422303136929635
Ni 6.423737740760415 2.1287194145681654 5.713668923036915 -0.06574259361344807 0.5555500871335851 1.0070944234074655
Ni 1.0174850593888582 0.433417484484765 2.463060053235522 -0.1284695403290239 -0.6566582047305207 0.6881508760221633
Ni 3.6063793766861956 2.1048785586230383 4.172108973367593 1.8558713698865392 -1.2232720058774351 1.4322127042793333
Ni 6.1322392129924275 3.7882006905089534 12.133421437449458 0.9087098753892802 1.8230568944596797 0.8135965419231987
P 9.310735523348278 4.946430289352858 11.495820472861265 -1.6511621930674856 0.7599021377235364 0.13853232388166464
P 7.497160683942703 0.1254270214252425 6.193936008603265 -2.4163178658804774 1.226121045290456 1.8049612133002333
P 3.232439725655818 6.596310286732087 10.765717914865741 -0.7861631283025945 0.6265876105973854 0.44077424224156997
P 0.6274087667567111 5.125848964385815 1.5418447412169922 1.1243925205007022 -0.5009257149204857 0.3413106022265928
P 2.7755951214808494 3.0897656538908165 0.08495415356415512 0.8361389460000891 -1.0171728906893902 1.0899546505378068
P 8.215206447980295 2.233461478566776 11.49191038695431 -1.6332410898126903 0.007706367505322212 2.2819800396961343
P 0.8264557947446473 3.071091862833408 7.816552085506724 -0.753278975980064 0.24072184746823705 -0.6764423293359834
P 6.84167629441637 3.0229463210609526 2.1368540630422053 1.4791944723455106 -2.615437207316579 -2.142408475916678
