# total energy = -381164.64319590514 ev
CRYSTAL
PRIMVEC
9.29512805528320 0.00000000000000 0.00000000000000

0.00000000000000 9.29512805528320 0.00000000000000

0.00000000000000 0.00000000000000 13.60435947486013

PRIMCOORD
 96 1
Ni 3.422744925378675 4.425549792647714 13.770196499038114 0.988478350968175 -3.1654239414297742 -2.991860336975589
Ni 6.073891993438258 5.982558067259589 9.320088049118198 -1.3216038462808142 0.9068882487995091 -2.930099867938341
Ni 2.0559521469321007 1.190045922524798 6.089991154861162 0.46059256251907776 0.49314838496791197 0.8235809068294202
Ni 4.4908480657400345 7.255879040123762 2.348058045966597 -0.32553868410431674 -0.1517490796822548 -0.493894261995001
Ni 1.7529774549115762 6.252377038266548 13.040540117569153 -0.5665513233400952 -0.38920356925312966 0.09846373799555301
Ni 3.0088700630713916 7.477484183012589 11.704428697104522 0.7852107916916541 1.0233437953867923 -1.8802094324112715
Ni 0.5849033555804617 2.5539386210845665 5.347914623569288 2.750386441832676 1.9771901581033948 -0.47544376859929727
Ni 2.4302576500146142 3.4611523936231543 1.8676467995383963 -1.3472081771124798 -0.10570396449773407 2.228589025669504
Ni 8.531523794948514 -0.00289171427174675 9.69624885971804 -0.2997302076816451 1.1659765145900758 -0.961857405946537
Ni 2.4951562326097148 3.0893565750580683 11.758261430003335 0.6052389697182803 0.08991893374933546 0.00021134467985770052
Ni 4.1305410251880605 6.4296630116031785 13.365684619006403 1.8975188702239967 1.9331296774490705 0.14746279360207507
Ni 8.347675461355204 6.172345987544145 6.395653997853687 0.5477190211249405 -0.8632661412341842 0.08484923253591194
Ni 0.6952281574537801 4.4339247028336475 7.272604693163237 0.4328002228971579 -0.04712909227731883 -0.1855961101386868
Ni -0.15916605112080567 2.238908148252549 8.074500019684383 0.1562009448060213 2.5245636229634583 1.18548758803981
Ni -0.1689882127117886 1.6289153836000883 0.2716138601933107 0.5829552186194153 0.4566068383984523 0.5952695172103942
Ni 2.577445999397802 3.7192966840601542 6.035465005425309 0.6733436358060018 0.4460863984831027 -1.3461861636058685
Ni 2.81901707689194 4.748090728776329 10.067484182074233 0.12890637075612638 -0.6592393351941357 0.6927294965317812
Ni 4.885361176751759 4.511213690842565 11.530306785285417 -0.6162749158174676 0.6160805404184745 -0.9048159396515126
Ni 6.447184327585958 5.611924139674794 12.916032809634018 0.0874974687920364 0.7019962665456878 0.3046430716022302
Ni 7.458494236830723 2.211599062651803 1.7453851944899665 -0.4043692212499745 1.3539166994809069 -0.4910295388526963
Ni 2.7709984464584987 1.9633540833668772 0.15192421701885167 -0.6258872420962511 -0.9370573161837218 -0.2217782164861987
Ni 1.8625948975560938 8.833522498545594 4.435823697451833 -0.9032503949366056 -1.1046680454885813 -0.26114900497433735
Ni 1.2059591813908552 2.143354234033466 10.134431410845782 -0.2522750995234752 -0.09941530327554492 -1.3930974834454266
Ni 7.164005996530239 7.912812200379954 7.934674341065098 -0.10832057618497473 -0.6834886946598034 0.22554411128653415
P 9.315019415905779 6.596222407409768 8.387182543223428 -2.9852687998010006 0.6466195895475961 -1.8697399003385153
Ni 0.632888523553671 5.622037238767241 10.018249748919017 0.36711727887705164 -3.1656681962300963 2.6365235956732334
P 0.6789505295763038 7.798351996129586 11.588846570923584 -1.0946047477153085 0.2290294987319733 3.689563375462562
Ni 0.4711932681469692 8.003895158106879 6.779650601224606 1.2341248894315389 0.14505855503595663 -0.39581798924585376
P 3.861586501070438 6.620213132370804 9.879567371024338 1.0055723303359843 -0.05837406906351883 -0.5065754570070953
P 7.794020466555064 2.349473693936983 10.150920038125278 0.499642734443004 0.1656561766816502 -0.6898040953548701
P 5.6516050404336715 7.926950089828128 0.25863786172542746 0.43503194044115395 0.6839306672932286 0.07676568419682908
Ni 7.99833667165717 4.3521554632047295 0.5276779010191989 -0.10738443752395055 -1.7030570821645636 -0.352336006802819
Ni 6.401610315775048 0.8182361612679484 0.24073079793719182 -0.5177307022929665 -1.3591686919084658 -0.2944018534901962
Ni 6.281015327148745 0.23994535963451552 11.322010406441226 0.48239140356172405 0.6082983253698944 -0.3794002100094627
Ni 4.304768901464566 2.0435524463904415 5.684839770033899 -2.2060437933791364 -1.15452404977876 -0.5670969114309201
Ni 8.074779803032436 3.924663238608443 5.3306637958067205 -1.320697789526777 1.1078006775802922 -0.3017847762178287
Ni 4.103622334956692 0.3216458153173996 12.486679700443698 0.9016593963004019 -0.29640679973536693 0.8716569364010407
Ni 8.235920139306952 0.512606780735656 7.211126717614112 0.1424136612139418 -1.1049107576270067 -2.40394237503426
Ni 8.867486895681443 5.6617925005488585 12.506283125063158 -0.37225897097899113 1.173128809364141 -1.1001940688776277
Ni 5.799825149007358 3.6910766759308613 8.93002358629181 -0.007582183222632103 -0.615079867068102 0.8130815499599933
Ni 2.3867378614568566 1.3693675288588973 3.0536344692472355 0.38236854860916725 -0.38550632290720055 -0.05591480888974887
Ni 1.4433474513559477 7.871365225331035 9.778826775469238 -0.011141618439116294 1.3888088833724017 -1.6223480970492703
Ni 4.558962762568579 2.4120391994436603 1.6210544939838356 1.0066020571520793 0.07675257157070653 1.0268644069455413
Ni 2.0384029455657946 6.274861952517127 8.30306721332711 2.382623044731193 -0.2592870120649341 -1.5474660030283995
Ni 2.72979314473348 6.2014862133298285 5.9643823742767115 0.0017411510608228078 -0.28293061962580307 -0.6771295852109951
Ni 8.125475430284466 8.830510877124683 1.6444401061223364 -0.9933889008959149 2.3701927893876404 1.4773142246036624
Ni 7.6324711446554865 8.000074860563684 12.555122515285076 -1.1041209147358597 0.9108914564216313 -0.048437783786413356
Ni 1.1004408901248022 3.9814936502364073 13.559192449453455 -0.3231354739794628 -0.914703888189186 -0.08922627855768504
Ni 8.689169163154315 6.736569542701006 3.3580183026486567 0.8527667843647571 -0.48765882260825044 1.9530081615405526
Ni 3.43705012712801 5.233705387770662 3.1696525369239774 0.6292481881486841 -0.9455558405730361 1.916079406835003
Ni 3.7873184296102753 4.672288961222184 7.988860288821922 0.817919594778585 -0.9930369168731351 -1.031261250461656
Ni 6.03989041579104 5.612574798623757 3.4087222955157457 0.8400557645559921 0.010164856348143785 -0.23640445103980579
Ni 7.255748908333969 2.3715310323068164 12.260724437724663 0.4370651688210989 0.6306214143471268 -0.2543204120882781
Ni 0.04209112740839218 1.131151992515838 3.2089142274171665 -0.2592744136594438 0.7453949452462969 0.2400227645186834
Ni 2.645021578811492 0.3918881669090518 10.759782515232112 -0.7569469117499544 1.4475760741092811 0.3084583315832623
Ni -0.14785109199834565 7.469165043593709 0.39706927116836277 3.1164711656801556 0.2219993313580693 -1.4054639754305795
P 2.6984778590326925 5.8423038832467755 1.3530731697513048 -0.6263559542025535 2.2743960567012897 1.6449277821219994
Ni 4.794798746184003 4.79246566909558 5.33281375887665 -0.28401845337334314 -0.389470192650955 0.7316940507204367
P 5.271601623983814 8.958644214431107 7.741111669363775 0.3452014526405668 0.7685150762035281 -0.9480279562626125
Ni 3.3897565166662695 8.749011196203192 6.1701486193222195 1.8975530658960418 -1.0677025240078257 0.43040755429526517
P 3.9322666531834636 2.681058789456179 3.716887386923424 -0.5008974327857115 1.8997017368079283 -0.2520521848793917
P 2.206477447210683 2.7411796763403253 7.882297225186392 -0.5745492539439073 -0.4114592953275365 0.8250304947917533
P 4.72504810685521 8.023572943749077 4.460651913431463 -0.6243070420933248 -4.108259040637537 1.620689221289609
Ni 3.5401888656664284 8.646132721244358 8.927697015792877 -0.38739274129663603 0.8302570332980153 0.2933782973216883
Ni 8.289144041332094 7.083500894287877 10.418939472381963 -1.8192848290117574 0.32748449497677795 -0.5430833221251421
Ni 5.095858641869009 2.8008636922158825 13.005114526336492 -0.0907375729958889 -0.424028904462431 0.8238339033804908
Ni 5.957173073122205 7.106766599277213 11.197870256055863 -1.7330981086113442 0.5777572193582438 0.7124213185337537
Ni 6.29743981804613 0.2190173792975248 5.525709969911678 -0.31910732665667624 -1.1676351332394215 2.906982565194587
Ni 4.329614778187096 2.0556268174576195 8.209618645564314 -2.0827645390018 -0.7244695079475394 -0.2114812054355648
Ni 4.270981111757721 6.982230476445767 7.547235751854166 1.71448229328237 -0.9635998425589406 -0.0037013601109871738
Ni 0.974612744523273 4.330776669167387 3.710153996314445 -0.7917534779061783 0.5782580702540622 0.3020246601427766
Ni 6.904802061519214 1.2023991474272455 3.6278196129127145 1.6796240479526043 -1.009976630051267 -0.7467008085419141
Ni 6.366521208170276 6.823850793140421 5.556115262596702 -1.6020224981180409 0.14312200013487608 -0.028477795724718695
Ni 6.008575130090253 3.273660369915653 3.708561740915055 0.24121472794425555 0.5700932750550827 -0.12733311273173553
Ni 5.517392689518367 4.538978237707584 1.1625342031370896 0.8900562648438348 0.221932739786192 0.8733124697265928
Ni 1.678551366278094 9.062805417032182 13.250128519183425 0.7640920074351679 -0.526783299413538 -1.5700480020939733
Ni 8.497624463707561 8.804066238413272 4.721651667141626 0.46170019376095967 -0.932909098343303 0.5907317772410406
Ni 1.1780645027360432 0.45898411772607767 8.171294833470416 1.7481827708586086 -0.5779168848645595 0.7301490748308199
Ni 9.312416780109928 3.667783085557999 11.517749997083222 -0.3101506316840207 -1.3136457677760023 -0.49587581120140406
Ni 7.173031565665134 4.8333549364739605 10.766422025049884 1.2606350199069256 -1.571026821067475 1.5750143449603133
Ni 1.425761069478272 7.814832257794025 2.1403742160472174 1.2218710117648504 -1.4849030926945135 1.0917479949928035
Ni 7.520186000320222 6.538964419901057 1.486371809599709 -2.9217360693546777 -1.0223616339791812 -0.6550134700382462
Ni 0.5841355780206858 5.630746773555499 1.5592632726264235 -0.3701948893611108 -1.2957130945569815 0.7800603578389662
Ni 6.164770458352652 2.563670619935479 6.435991134638233 2.9648233874624554 1.3395768858194672 0.5869903079207375
Ni 6.616485786106033 7.983250679169079 3.3404960571530937 0.023731282178668805 0.45540870432529307 -0.048748887268928946
Ni 4.190568960793783 0.18258977328346016 1.4475172457060137 -0.1959802815864883 -1.0233443096074246 -0.942188723873016
Ni 4.83147732064981 0.5120871830892701 3.7854677696568686 -2.3424714122129724 3.3165888664737846 -2.2390392744685506
Ni 8.019557448521194 4.338733298600415 8.53035446786595 -0.21341261813032278 0.6898755720227538 -0.025480917879923858
P 6.2796582384837665 4.734966008262969 6.960860977536265 0.5589002345527406 0.8039916718435831 0.14883062048387916
Ni 4.702488831581892 2.078530012461104 10.909757543942428 -0.3643312314914822 -0.029568971906368424 -1.44498671611555
P 8.195569989343426 1.675037807953696 5.2972924278272115 -3.8555985327501854 -1.7727404055933145 0.300893631862127
Ni 9.115648218815789 0.7470224688167735 11.818134136974091 0.17183890845359437 -0.3850440385588014 -0.66889742710919
P 7.9187796724547255 4.162367542920174 2.632579120681758 0.3246303133574345 1.0920953510298934 1.4401990649189196
P 1.1213456326421871 0.3968480471257155 1.5120430936746372 -0.45616178044123373 2.2265977062710878 0.16664810828127427
P 0.9640441841665515 6.733083869760135 4.95763265475139 -1.115292357971647 0.3312308493930876 -0.7911191867562891
Ni 6.515354795181556 1.3656401825941256 8.409901694695636 0.5120069124353117 -0.5628828733495725 2.136204146878179
