# total energy = -381174.6676254991 ev
CRYSTAL
PRIMVEC
9.21541607528742 0.00000000000000 0.00000000000000

0.00000000000000 9.21541607528742 0.00000000000000

0.00000000000000 0.00000000000000 13.48769293471118

PRIMCOORD
 96 1
Ni -0.1544015353458515 4.888824419932971 3.4420049836467257 2.0873724700874563 -0.164398135904833 0.20462767284884115
Ni 7.120033366278267 1.6946321173332841 3.5760192535300126 -0.30577975630983467 0.16333678451985417 -2.7057952854858627
Ni 5.650524653539741 8.892535751278082 0.39310662047160855 -1.2572799873917637 -0.7942279075885998 -0.07608742718288186
Ni 7.361394334379348 -0.04202690599919758 12.543231209187857 1.525983407674591 2.144423449464178 0.7331528946541502
Ni 0.5660956504782169 0.1580158216155336 12.036350137634855 -0.42794083792232746 -0.14459729912882194 -0.1478579721579647
Ni 2.0358881980385326 6.424684129973157 0.7451530321130395 -0.6614430277136737 0.9766685028174404 1.3498931801438108
Ni 2.2629744863034658 0.2008241949162841 2.980779849028671 0.09040975734282494 0.7794211815930705 -1.2249614777647162
Ni 8.047251691903803 1.929606801944081 7.900956036728306 0.7185156043569497 -1.0163604220904237 1.0406290648298013
Ni 7.300720033513496 5.2478846849141645 11.95085134836189 0.7017530401866302 -2.0634876930500594 0.9191233574131205
Ni 1.9122726038990223 3.998274235732892 0.5294173720948365 -0.2075733857407264 0.7648216865123408 1.1213020545008365
Ni 6.671380824107247 1.7498324609217488 1.0006467626393751 0.6724632900835773 -0.16598553499661092 -0.32975426484756115
Ni 4.197262719723831 1.1304182548618726 12.889864485299427 0.5749122937102809 0.3126649134654422 1.4014412274244317
Ni -0.3595698775021359 8.731846537396269 8.881295708026855 -0.3305659621155791 0.47525350696536217 0.18324406496674248
Ni 5.485817518154661 7.4367856550633595 6.207899755580936 -0.5371564151177458 -0.23592674007243883 -0.07400997582856285
Ni 3.7974518838998668 1.9924835873036963 10.601610269024029 0.15800611633556014 -0.4700431664090163 0.5561560961487002
Ni 8.539953923950092 2.4091402041092485 13.029948028352557 -0.03374161522681931 1.0598678584547554 -0.5275145211526076
Ni 5.502829176629503 2.9429339774011067 4.605655872740439 0.2858251675647787 2.093642619366885 -0.2812558030265414
Ni 4.276506084417855 8.24938263285028 4.111211005473352 -1.1311406378578133 -0.24945639912775752 1.2969317974554309
Ni 2.014582155571666 4.117908770034304 4.795198555032182 0.6074604028496313 0.34996493546748114 0.60741797964747
Ni 2.7321405451402483 8.570899291858284 9.132773360133182 -0.7697476630590485 -1.3275106986835525 3.1712333490226996
Ni 7.535399824802952 9.019883589015812 1.9605438759776095 0.20501848052935662 -0.41239594820919295 0.39148670886035153
Ni 4.066173422971592 6.851044580134077 10.266683336228054 0.7526963640037165 -0.17214512684010352 0.8894397143057585
Ni 6.328207936813284 5.627679636552128 9.789071348359748 0.5453091261318673 -1.1253008912475844 0.4135480595357651
Ni 1.5863141142383235 6.195625742621758 10.174805635797838 1.0756660018292763 0.6483712821313802 0.013934607803221163
P 1.0464842432752723 3.7294144654167893 11.487306693463163 -0.03363157201151627 -0.4020439155509076 0.4987713875816442
Ni 3.9081198181492613 8.948335096925522 7.476525294738909 2.6274092920767913 -0.8702741971209011 -2.63565713390788
P -0.146389652421676 7.980541293366759 5.987983061191099 1.523163678837609 1.5634343534321977 -1.1663583234095267
Ni 1.0792266173603833 0.8832220851647615 7.334701881089868 0.24767488174730248 -0.2797766473778536 0.1316718493164055
P 5.53166421420685 5.317239907926984 5.180231549290459 -0.4572208178333674 -0.18280852009122064 -0.11184144485403964
P 3.31966941083016 1.34849186599333 6.344138626957086 -1.481388394673036 1.5160525217141245 -2.5266966101460615
P 1.6357456072280605 0.9703188276227411 9.500731109544203 -2.662548558982085 2.455118383687443 1.372535600133675
Ni 5.1952093653896805 0.7360094960682191 5.488007101065615 0.510505645299437 0.030355986584038045 1.0515356844399761
Ni 5.02433711650532 3.875580183222572 10.818357781751082 -0.2296902722444238 1.3201403743614104 0.47377743664046795
Ni 4.843438494695377 2.8137983489027505 2.0053639746548813 0.350564516724693 0.7357687350104425 0.8328060249721142
Ni 1.6131494064803285 2.728417516958322 2.9105629845925596 -0.31715714490884084 0.04202570961248246 -1.51311606479362
Ni 7.729347476082223 6.6478815125629085 4.801497292067693 -0.4067950570826478 -0.9980084019457974 -0.630967484832636
Ni 6.256862183881415 7.64991980306236 9.024790798191246 -0.2812905129192188 2.166936542965029 -0.6675303715583343
Ni 6.373391122892456 7.242460171716122 11.65231517296099 -1.7430644757954366 0.8203174055868001 -0.05877798937015684
Ni 0.0532227152522236 6.273846196107382 8.547488448310348 -0.4113129995576593 0.6348825036163259 -1.9080012578125594
Ni 3.8209051183627456 7.273912387520368 12.792078781484475 1.2055853872309494 1.0338997165257677 0.100459171159027
Ni 1.9388314336522703 8.724382050199832 5.374481466224104 0.7591431480703248 0.9894823667526573 -0.07753958624837613
Ni 2.908698705876709 0.0859604816291887 11.398746542898031 -1.8108336129206104 -1.6687781063770357 -0.05425541890945495
Ni 7.530994855815425 4.29867837601616 5.537412790889736 -0.36421913139365014 -0.5808499993509545 -1.0408956882276268
Ni 6.008810823552416 5.35598151801812 7.487476895460199 -1.4872183710912517 -0.5157828345379762 -0.8569332570376209
Ni 6.0859622887481795 2.16765022018008 11.980969171887068 1.6320982344574986 -0.2434266479939098 -0.02171142353516261
Ni 5.243249330519341 0.08399944104227296 10.99879563274643 0.14245968396052883 -0.5181179104290561 -0.15425616237482465
Ni 6.755268758612388 8.685161238461518 4.5354933792604495 0.507312849393752 0.13760852651581462 -1.5798472475725822
Ni 8.029134183473934 4.246786366876487 7.776167320094836 1.2510926276341294 0.6998041439903754 0.3628582464903815
Ni 4.377267446153461 3.4642592924500284 13.037635528623257 -1.2917343124148917 -1.2134156819086457 -0.1270325507721812
Ni 0.30441745407838905 0.9465706998385218 0.9823679844243969 -0.026442510462244783 0.03302736276861409 0.925323058465929
Ni 2.8345883280572703 5.282765035578996 12.010102788952272 0.8147995610923645 -0.9208889339539754 0.36981076654881473
Ni 2.0111540207110803 2.094654907731962 12.836615045339956 -0.609797278512924 -0.7091161654199207 -1.0770376853658226
Ni 8.595568961271692 4.930238500748757 0.6944276946759201 -0.4374035259971241 0.8369339310975585 0.5253571084899726
Ni 6.067172054929001 2.567166162682703 6.8639010074029025 0.4840914169719663 0.2985387584767052 0.5164855170319556
Ni 4.177661529270965 5.228698188194434 0.9042968206827013 0.1376766607495887 1.2725279146897697 0.9292907848644254
Ni 6.90216249430523 3.3366534230561267 9.594376326819203 0.9433035542037496 -1.0440596877779051 0.1921015153573724
P 1.6884024959199615 7.431551298609562 11.972917662672836 0.7560583384974141 1.1987861049209287 0.259658793582056
Ni 6.954902321743759 4.353943227518669 2.8336971973018446 -1.2222679900929532 -0.5860292295590488 0.03948083170344169
P 0.6075650237917546 8.224445716364405 2.0801526071134027 -0.7795114273140317 -0.7469394069152813 -1.4278297447202892
Ni 1.7285079876222986 7.543279005732525 7.283165587019061 -1.0583804752759514 -0.8659064070705087 0.1628477606985776
P 4.9726939236055285 3.478469464372134 8.7595287263955 -1.0122129755809535 -0.15242630825493747 -2.143238170906825
P 2.1135096494651835 5.221252131830582 2.837837683841794 -1.0151700013267484 -0.5543118438511099 -1.3961884636659245
P 8.679558265356045 3.1763328258259893 1.7785412472958966 -0.1143313011554289 -1.548912505666939 0.8700348274165856
Ni 3.284613967255783 1.9237826588476021 8.355234590545528 -1.0090883139090427 1.295182418864492 0.10381214679165993
Ni 1.1501023840613653 1.7594902171956572 5.092049230793294 0.8453499230753958 0.995386390941918 -0.11081968845774463
Ni 0.8163771415498554 3.0731570250219074 8.72883033164393 0.6643542878231977 -0.38531349017010413 -0.6692776932667441
Ni 4.085995783415463 4.750703760550015 3.3199550887352087 0.6630353119014581 -0.4776788285774032 1.1029299797515522
Ni 6.41561616034193 4.000347704398569 0.493719614004914 0.17546622079353652 0.8367776080253524 -0.4610517615436834
Ni 5.177515766109237 0.3867249446894697 2.4872251909753818 0.2765627684262463 0.8479081707208753 0.7136086539736355
Ni 5.634194935870499 6.519989965263959 3.2432238465223553 0.5692173002080325 0.059369085986936465 0.31682187305660925
Ni 2.321879427241273 5.090936930046862 8.054850724178102 -0.7963251564372609 -0.12601310836873136 -1.3782156812375876
Ni 6.948147421601798 0.01770005007184712 6.992330735013299 -0.5476902247695342 1.0241557497651264 0.7272234165435927
Ni 0.41115132711277264 5.758879518299869 5.886366508823606 0.7486309356850914 0.23593419627160656 0.3966014043790976
Ni 3.9952423637728582 3.696367982594045 6.5908021455925265 -0.36099676780161055 0.3036277429638384 -0.04457907216195549
Ni 7.953733647373631 1.5878438733427784 5.521794503358228 0.8788123164988995 0.28736808657186635 1.3804551120910677
Ni 3.4021381712263485 6.2057166234613845 5.790698507672532 -0.04115744807491621 -0.20163310899689146 0.06091663297971445
Ni 9.168519038387823 -0.04507260108366964 3.932538828239531 -0.8220860674514486 -0.21061088701546954 0.7420149730304705
Ni 8.710144232028851 2.1363730972853805 10.611254202173498 0.3603213390011408 -0.8553905951408494 -0.03669195610439487
Ni 8.524462809163413 6.918271041983466 10.742974754941732 -0.008344001089321115 1.9543034833132082 -0.1258506146489381
Ni 0.5532502817089412 5.744955024282813 12.442545413865844 -0.8968169806064361 -1.2349008483656152 -0.46468061654552234
Ni 6.266464647657572 6.715531883561727 0.5050831438344525 -0.6728870078845572 -1.4570184504691035 0.7862227778959363
Ni 3.6996302399613774 1.6392382500026896 4.027425362089051 -1.201528957773389 0.9348713642759963 0.2321413048880776
Ni 5.454945873576805 1.187904021690728 8.784750399244793 1.4513306560557069 -0.11298070066480542 0.36278291316775585
Ni 7.6187071880817046 7.125995740619124 7.096981002424085 0.020108083603784722 -1.8491561626498927 1.7859563900629565
Ni 2.3769415395853595 9.029246451968378 0.40920410965029475 -0.055652813477613826 -0.461776812635166 0.3769378645118992
Ni 3.9854555916708634 7.624282514938302 1.933151051049945 -0.42428524344761126 -0.4532446067944388 -1.1629624103541005
Ni 8.875892709454916 4.739829569325575 10.085085264321556 -0.5266760844117123 -1.8658832455965866 0.9844090659948079
Ni 2.756930014965452 4.001250815195175 10.027709160946573 -0.3779755617477942 -0.3390583158573064 -0.09577333564758345
P 0.4450253543185287 3.6422642735443165 6.261419207237758 -0.5584724029867028 -1.2324197338149743 0.6710496975655024
Ni 7.836126504656437 6.720674085852606 2.483650530995755 0.9336452051783792 0.22857209947958054 -0.7680278521544643
P 3.148963039439055 1.8196392393328709 1.367355823142844 -1.5522924778827654 -0.6583296788956726 -0.2579461817663235
Ni 8.43477837781067 7.431026019880925 0.2019549264952999 1.471326896671976 0.039845671242028154 0.08518784682225329
P 7.315897824146251 8.997480912010209 10.50750612401769 0.9289192604576196 -0.02105116424334439 -1.9227557904139143
P 3.5700061943995496 6.7983323989444235 8.229893870476175 1.1979096158532465 -1.0642451615868447 -1.4476822606698423
P 5.134654864935623 5.4441730519315765 12.23727662367198 -0.10471974620759383 1.211026612851179 1.2459789605566478
Ni 1.889602679820955 7.242275863390284 3.653047232147465 -0.20633282846540596 -1.8579930442152326 -0.49415574318650385
