# total energy = -381172.8915256848 ev
CRYSTAL
PRIMVEC
9.20771532376624 0.00000000000000 0.00000000000000

0.00000000000000 9.20771532376624 0.00000000000000

0.00000000000000 0.00000000000000 13.47642210645615

PRIMCOORD
 96 1
Ni 1.6273623724882575 1.5746021645298682 5.348266370652707 -0.14840484580037022 0.09609189532926678 -0.2216262642893667
Ni 8.342438557751365 3.4672019803775243 4.08118623988491 0.03544702795370024 1.2276410814794083 1.5092000175686655
Ni 2.754239386585898 4.842254541613465 7.031013149924509 -0.2876375381831692 1.300693578490708 0.5987891003278785
Ni 4.907638527078128 0.12585197179686855 0.3646623518296751 -0.8550350115736436 -1.0393692242807713 -2.734763904804071
Ni 4.3561240111822075 6.2829212811934685 2.8265853254951225 -0.3320150358572798 -0.7246790528551842 -0.422523266451182
Ni 4.524367382877789 1.0436392689067442 10.839314938996365 -0.691787444333486 -0.6826867675837984 -0.12186489052831269
Ni 6.934505245621985 8.786535868404254 1.6647825269634569 1.098873293183675 1.5895811870308947 1.2999980950855803
Ni 3.310873392119666 3.316462475231488 5.270602055457834 -1.7566524988925167 1.2054439765570788 -1.4057863917670048
Ni 5.111819611105576 1.7547142810872935 1.7548588422155567 0.6687413611472999 1.5611638122304663 -0.29896556160147864
Ni 2.3721007913522048 2.0742864517001744 9.853973397954848 -0.704052120633452 -2.017673205819106 0.9977975714865719
Ni 4.388001121121464 1.2423970086955374 6.065669845473711 -0.42796912005710164 -0.16454520300565853 0.01975738513258533
Ni 1.2934814124918972 3.276685145671237 3.5578160261959018 2.188075124715857 1.0822125446985427 2.2687882235962085
Ni 4.683200469663515 3.5808067702188167 6.935370770848527 2.501459175735511 0.34292036991587393 1.1884795807885984
Ni 7.2882288318225905 7.49518143811801 6.157350144709467 -0.19452657985909724 -0.14433556082700305 0.4094579486267916
Ni 0.45401401989742496 8.638438977513726 6.49783211571549 0.028383693349015634 0.23252182815594793 -0.945937649392487
Ni 0.5912458068802924 8.61004238391099 9.02669609948186 -0.4938248422096464 -0.2977897961258226 -0.12983479610766674
Ni 1.3298887182977384 3.9171461901671645 8.835883697118422 -0.6692360413955313 0.22246572947152654 0.8200122156415556
Ni 0.7047198471660854 4.125719354333557 6.096692479444637 -0.38109585254433076 0.13793119996255598 -0.2991658505377428
Ni 6.350054732541568 5.051877385309919 12.397081717098464 -0.055581079699413956 -0.45945742047336996 0.7787267266292072
Ni 0.7867173131227768 1.1589474860555933 2.6204770666813415 0.532879642119263 2.402489187527501 0.08627928011421915
Ni 3.6843106965120542 3.802325981922642 9.21885651134706 1.4429378040063214 1.0619195987774617 -1.8439247390476246
Ni 6.247232177171354 8.661283318865342 9.578312821016235 -1.5174437456346963 -0.2647369794359118 1.9534259658042619
Ni 6.849757435142227 6.854573070179267 8.431752474186894 -0.7089564999136049 0.6364817297826457 -2.9201373574089904
Ni 7.612763960915327 1.8197483733752697 2.8148878441355523 -1.3010712735451013 -0.12171448099337748 0.9011868275393576
P 8.114814630885862 8.424193860798928 10.56792674189941 -0.18804560012044388 0.815404284555899 0.4182467505630152
Ni 2.136917330327219 7.538227506565735 2.8533355796243915 0.5245528674211225 -0.6777865020687036 -0.9567491381856943
P 5.585077755720808 3.3158455583146975 10.477500533470623 0.17971059789218727 0.45367423813268964 -1.12970236274939
Ni 7.062860795175204 0.2379117070316305 12.835779623572156 1.629843119874735 0.9807437013280789 -0.5320378629442578
P 6.506963406855514 2.2669118531817625 7.162879601274331 0.15673522004293652 0.11288017053119914 -0.13069483011511687
P 4.968906663859126 3.6725248210867942 0.37628064683873186 0.7670240934802983 -1.170844127095022 0.05356970569634
P 5.849440466138487 0.7458654432014881 3.49504242798363 -0.2412934037009909 -0.8317408169323933 1.3051924948023266
Ni 5.772620498425252 7.1453343000064935 0.8133423423256525 -0.9083509493879648 -2.234722135150435 0.37025865271951075
Ni 2.919416589127877 7.262401190753955 7.039301014354413 0.24267280054702073 -0.22627507591528773 0.09579776112761566
Ni 0.6122071704784202 7.339211950752015 11.113951618007407 0.9313916332575121 -0.3452492751593667 -0.8147882482384547
Ni 0.40818077606592884 1.4635571195075 8.003835881412758 1.322506817711058 0.6585698199309368 -0.02701946601163734
Ni 2.9409073963486243 8.22118215659883 9.72486926115782 0.46324002744425374 0.2707402482071982 0.9348590229808222
Ni 0.30766843643336855 3.5674187523529355 1.6168876757040578 -1.2573401512057378 -0.42414229011184373 -1.5996650536294579
Ni 4.385008613689269 8.49327014004916 2.4759960455404215 0.7350681093989921 2.4604176844131693 1.8685091132552079
Ni 5.242007495978815 5.227081789678545 4.6735830111622 -0.5578743643913876 1.2413378622402107 1.621143535218208
Ni 6.196156981090169 4.719847176063932 8.864197421284574 -0.1741269331568227 -1.5734760539389159 0.08807442434142895
Ni 3.610685805964885 2.079461187629078 13.181692304988976 -0.030679431361727807 -0.4955773061243787 -0.7028681276276798
Ni 5.686242922359345 3.044125883471406 4.516864936552397 1.1915975575922897 -2.1547382011266243 0.6152284768308244
Ni 1.5056271701465713 6.361960308264116 8.909963448795287 0.737201353691911 -0.07788694228546586 -0.7963768356108026
Ni 2.5399482312952193 0.15606340606079006 7.718904056063448 0.3566657445264244 1.3060191044686797 -0.3685393560355588
Ni 4.972691034796456 7.825729205220664 5.302634775783566 0.2897561271880687 -0.37010335808856903 -0.9103494678752322
Ni 1.2283552430521616 2.2759538294845787 12.888458803636997 0.7343384303218191 -1.588904215568528 0.6816398143765229
Ni 2.807662550036958 8.797806111779659 5.140500723107249 0.7908265952165349 0.355351139480059 0.13104270037283883
Ni 0.31472154625817245 8.489154291365496 1.5749621861932495 -1.0974720419607744 0.0037381268861935617 -1.086755941094851
Ni 9.102912961851068 1.398651935231988 10.302711397056433 1.994824069135074 -0.4561553526833305 0.41326523818802374
Ni 3.4687949151029693 7.477143524088256 12.343513071747624 -2.010022117031751 0.8058066135651349 -0.7288082445322094
Ni 7.570095408789816 0.286775209927543 7.822685134583483 -0.2708281799353142 0.1386081714249226 -0.029675415577245665
Ni 4.785424523547292 1.42276694127789 8.480402358090721 0.1333770049329703 1.0332422854474268 0.19648910290210678
Ni 7.899004202591144 8.665334713542775 4.085767998956479 1.6506849963207508 -0.2243225801746072 -0.6628715326300841
Ni 6.692121351329378 0.7237429867196686 5.570681493043156 -2.082392757484678 -0.6065654018391876 -0.2102776720457669
Ni 0.7189531332851217 9.087747854956223 12.621436905076493 -0.7547159655369067 0.3849309100197048 -0.10351826970032493
Ni 1.9052696319298101 6.656220469858217 5.043132818207288 -0.7387620133108116 -1.5792093568782672 -0.18647182787542077
P 2.6193463592577304 0.3992078576269323 11.621554540229061 -0.6389337908675641 0.12765784306100597 0.32399756486944203
Ni 8.593505327454922 6.157245176756461 4.704322047505705 -0.1648686477833483 -0.6631296713874772 -0.037103589720516736
P 3.5019334820213364 7.2482028939525875 1.005220998106468 -1.1250000721777142 0.266686904073431 -0.017138973673131774
Ni 2.0917350719586647 4.377706895554714 13.085511274575198 -2.9931003800302776 -1.4796117623885872 -0.10848024169129059
P 0.6106013449517286 3.3968274132874776 11.205577591723626 2.894415527162854 0.6637775893841213 -0.6806453116737374
P 8.365319729963685 5.235092501881652 0.7388942820417504 -0.7037217338772267 -0.6984867107305325 -1.8301387410071255
P 8.367419089023809 1.3267028488468477 0.9895641992212246 0.9690387541863246 -0.5251465351410634 -2.4237460400237483
Ni 6.660677004003393 6.897840123791216 3.1208022108278963 -0.2939740219241582 -0.17099764349922164 0.6031468630759419
Ni 2.390092666806078 0.24253305927845692 0.7862698181652239 0.8942782733449826 -0.5647831756960789 0.25826576988927136
Ni 2.02133288172309 5.253563178524676 1.7501960552504383 0.6238033629840289 0.04682338811144194 1.3168303361515707
Ni 7.17955016960045 4.421038403172895 6.325374372783861 -0.8053677262555033 0.36750191590998 -0.6627103244618716
Ni 8.085791912651159 7.32915712577984 13.397948386698209 -0.58857076503398 -0.7285822445643323 -0.556729452153667
Ni 4.3230775214156 6.2202443639905445 8.63279372733933 -0.880589205893664 -0.2800766951167757 -0.048758143240309575
Ni 7.290429475749651 6.258843106008269 10.512633491496107 -0.13655026045462934 0.5576139116411493 1.5701277062919732
Ni 6.952736521670433 1.4658130097256161 10.393204821806004 -1.4681518413781038 0.16116445945888375 -0.534007585076119
Ni 4.37317669968813 3.9217132168944526 2.566180091060081 -0.11863044275141504 0.3963828606103883 -0.12205900881698979
Ni 8.950405575391244 6.411562269917142 2.292204525998673 0.24591624718498292 -0.17252462166670932 1.228706032408813
Ni 8.406155946769173 3.4711336747576698 8.005089051448211 -0.7796844625567863 -2.8977224800489 -2.3702449827818146
Ni 7.032972551713958 3.3135712526662293 0.8626349247487658 0.4656393809143658 0.37122950127321225 -0.036206531827544096
Ni 5.780152409439207 7.70813747470817 12.132701512021951 1.0996929608714932 -0.6539541755357963 -1.653763121025442
Ni 8.210142106102824 2.5695878664467124 12.344887783623397 -0.8224833028898673 -0.6813238257980008 1.115780096241343
Ni 8.102098776227827 3.671944735030707 10.135751580856384 -2.1198277624026844 0.40172252765574684 1.4551508011327456
Ni 5.1100701452221395 8.535929484459494 7.598518704766561 -0.46103530648345115 -0.7348426236517474 -1.0439200768762473
Ni 3.598890722824449 3.6819535214270016 11.40938115942886 1.803848696962345 -1.5163183737810013 1.6931655340824645
Ni 1.0905709931587353 6.661892422406623 13.383192102357176 1.6210172940529888 0.46384089425304637 0.9524062878359661
Ni 9.029260448158372 5.355695155256691 11.90900651722204 -0.7581041652828493 -1.4988035048256896 0.6960238510123368
Ni 2.6403951961500303 2.6066949586059285 1.7362620198746217 -0.9860921101241856 -0.10734587097653125 -0.7453748906416389
Ni 8.583579410495213 5.447173805530094 8.76827236535269 1.2047832030446284 2.3866257381326834 -0.7040819454301229
Ni 6.572853816654856 4.5196622404228615 2.917524403659212 1.5103582995428246 0.5796582930356984 -0.7790766537694583
Ni 8.58915928589186 1.7686731772940858 5.968343375292042 0.35924584654877484 1.3099078980001249 -0.3036745370413738
Ni 2.497868972940972 2.499968332001097 7.385793781827319 0.5965077604928695 -0.15891885795781663 0.006546028648633888
Ni 3.8928930683936223 5.353973312518782 0.011691035958947037 1.8629910116504558 2.060156314683981 -0.009873036139337835
P 1.0023426663424553 8.851818569001981 4.004141603921379 -1.2889806609291543 -0.2746583523146818 1.4667454479488804
Ni 5.860848825241533 2.2145752001214687 12.24431283152764 -0.2897409576794171 1.3207366131845124 2.566442779695748
P 0.3597316203529356 6.482259107038349 6.717551219102411 -0.21649177127627875 -1.0607777718635345 0.672358646184913
Ni 2.2592049955794637 5.324434962234226 10.984766453316835 -1.1713868869723698 1.69387181612087 -0.8919012884723736
P 4.584217531521686 6.971695207217785 10.53942425957215 0.7131530544934557 0.32185969259083275 0.307444031386135
P 5.281886110406003 6.068620918187614 6.716109290905853 1.0339768496206065 0.3074597151154189 -0.2760287502996472
P 2.907824075721313 5.011556800554286 3.89603382004015 -0.7677080069212004 0.10186453614698585 -0.03327958798873623
Ni 3.809903931512477 1.8533933646283156 3.646746901680109 -0.8112928334906867 -2.2048739414407508 0.332289372564589
