# total energy = -340853.06551262905 ev
CRYSTAL
PRIMVEC
9.39573035843852 0.00000000000000 0.00000000000000
0.00000000000000 9.39573035843852 0.00000000000000
0.00000000000000 0.00000000000000 13.75160111455018
PRIMCOORD
 96 1
Ni 2.5515139025778932 4.519534165134236 0.21628783122231318 -1.1920238464964308 -1.1507926077607857 0.5241684874985102
Ni 8.18202739973152 2.6293105490527 11.776830035311523 -0.7270691503539155 -0.5753498954683317 2.060533752628058
Ni 3.4285019684368274 0.5921950258066133 6.1597270639445485 -0.371092975695348 0.881912809801094 0.8824961931083899
Ni 4.204936929154049 6.749582552918768 8.517851469493818 -0.2900978267982036 -1.0647349567390696 0.8111287971089967
Ni 7.6199654204115435 9.194661623218085 13.592563362393431 3.057194125186393 -1.0089587303097138 -1.660232787910186
Ni 1.5520806800933942 3.7586021593304726 4.001578562329559 0.5847624470314832 -1.6739887040436974 3.380646359075326
Ni 4.426619788686246 2.7802623512585263 13.568360900840961 -1.2708651822753663 2.020223483044785 1.7650196399102893
Ni 5.482042167733954 5.423149730523314 10.105858603346357 -0.40465821324530316 0.14356500120956564 -0.09611709214024737
Ni 9.162321519695587 5.6187500428799 9.064656662032903 -0.1787009256807503 0.10720960250898309 1.418431334224525
Ni 1.9887096605681207 2.63530502495257 9.713979606909096 -0.6589207755124523 1.2122414590948865 0.13067503262077496
Ni 5.99181690820945 3.64883184281294 1.432050226142228 -2.2822592614994504 -1.2977008144109714 -0.3802455887288935
Ni 7.563778953513072 4.2672400164456485 10.212447525601043 -1.2163343982173374 0.18358525035624512 -2.1893365079267846
Ni 7.200417877532372 0.00203417559925068 3.752991029224826 -0.7194018636166449 -0.3199300796682877 -0.609143446979009
Ni 8.048701987475782 3.986053997236525 2.005670832816469 2.44894747899004 1.0681133862929992 -0.4018310282091531
Ni 0.37577377521474187 3.8226998310999325 7.960705336240946 0.7638706354529813 -0.6976906971917983 -0.42369208994830254
Ni 1.7109624786307105 1.6169957803946549 7.453092553296108 1.8598794626046675 0.09798679835913447 1.019390210055683
Ni 5.2076962401472535 1.242857801816539 4.059486327009937 -0.20510769780905322 1.3919361161474737 0.625511089703755
Ni 6.198015604288689 4.11157155765403 4.252187117011193 -1.1055882433100057 0.9686772570818479 -0.38272618905890216
Ni 2.583487572620619 4.17064251373943 6.451783943053593 -0.46505522627612167 -0.30082266941487545 0.3607519987806561
Ni 7.184276012961875 2.637625770324463 8.37073688352233 1.2946180617205898 1.3372022149397036 0.9749173244542887
Ni 9.206537826254818 2.328741138336629 0.3968991351101471 -1.2029299518859735 1.954164129521867 -0.3897095623552708
Ni 4.859753557507756 8.018701420785678 6.887777772163381 1.3790070667906316 1.3239846878081651 -1.3600495518515223
Ni 4.415119414859535 1.5154655193068818 11.84358012173072 1.9428924132627894 -0.6569155721569654 -0.7460266652930249
Ni 5.372938948064213 7.41985515753468 2.9186670952877276 1.1302476937298986 -0.05484548708497006 -1.8903182387104993
P 6.335155683026163 5.482925366377509 2.452955510968379 0.43223997951831367 0.9761393697868479 0.36938576319625416
P 1.5302168158002933 0.24681361923342418 9.659770941228372 1.1238793283097095 0.5435204096625608 -0.2892190237376761
P 3.084496096772323 7.02639016183112 6.2239337261849155 0.18115607208946222 -0.017467817767460238 0.6971592501683607
P 4.719240411610325 1.8296117602350412 2.0929665625746123 0.10656039896075842 2.2482332822629925 -1.1914209228051096
P 5.445708878854959 9.349766338194668 8.922643957587479 1.488352998916327 -0.5066554183154113 -0.9548220963663104
P 8.451647275002179 7.417835075530806 4.526256810128526 1.0565017701959998 -0.437875066316904 -0.8913405308728971
P 8.867896916563396 7.66798699772226 8.914338132045964 0.5469744296494322 1.5046044277781827 -0.8609328651153174
P 1.1386591533376011 4.7322159150863765 2.3867419207464877 0.4639401388350719 0.8282675136718122 -4.315153655143685
Ni 7.046647356251372 6.830451603185514 0.5939548460825471 0.5152303044686158 -0.38608199290501255 1.4774767183234556
Ni 1.3206262611005937 8.77052896397663 3.036518679393784 -0.25971561496192047 0.31857690807450295 -0.007281364152761653
Ni 0.5992671919662252 0.8830774386343353 12.30097178691318 0.17694974731759847 1.0087085619721208 0.8037199062394352
Ni 3.2515991592788973 9.047054700981466 8.389136542072041 -0.9961618356553619 -2.235588854026105 -1.0380055111640254
Ni 2.5904873916573012 1.5715392374423462 4.095433451375633 1.9918783562431888 1.6633147692696193 -1.907031180589806
Ni 5.856978783383369 1.0223400128354145 0.3260628456049705 -1.4164788384838443 0.4996882429689587 -0.15009740301144472
Ni 1.168810051711714 8.590469189454504 7.2905764862978675 -1.062848024129002 0.5203943651680586 -0.9473579267787814
Ni 9.258552588922033 1.5805403470224024 9.775022726774093 0.7167284305495398 1.6961266735933178 -0.9128475517067375
Ni 7.44818328424018 0.38056089977741264 7.887354749320714 -1.164939074464497 -0.19840328920568412 -0.5590053926720373
Ni 9.06981115964837 1.8517481007054089 6.8934574910998565 -1.955914022333438 -0.5634084068357395 -0.5698996709870378
Ni 3.8549741645106765 1.2652760141944241 9.56620450110099 1.2661693194615935 1.7009068685907804 2.0274158870281664
Ni 7.732902098023521 0.12316392998973459 10.119982265059031 -1.1708222727181512 -2.6199518073574812 -0.8876985632449356
Ni 3.4348065034349666 4.994601078064088 2.7264614602706776 -0.8924687309400695 -1.9602399034023015 -1.9388295560473257
Ni 8.893678800370989 5.2303117628604 11.682108859936344 -1.124422088187057 4.097004036549008 3.799387275665941
Ni 1.4987223280003472 6.21743657871664 7.477433132083262 0.966352208493097 -1.211289379594262 -0.8705544473654814
Ni 1.8545104453990795 5.113908060785959 11.610600775718252 0.31758677624709175 -1.459676714027557 -0.6156341969096752
Ni 0.510906925970691 8.376208956820268 11.121002426382853 -1.8237572629608136 -0.5896670834219522 -0.13032664814242073
Ni 3.079281466483251 7.358933242589916 2.6833359979935376 -0.663992790718721 -0.7817809400744987 -0.6769210687446148
Ni 3.002584120447762 4.870849914933691 9.085269954629652 -0.7638343828984071 -0.593931515125261 -0.42317915486762603
Ni 7.477319443747231 2.415116086530216 3.6321967024042876 0.27645529631410454 -1.6840448027281192 -0.1362620397902492
Ni 8.43403967651259 8.341764209721639 2.1128234988861894 0.44441903808300876 -2.223832999041757 0.443009816440308
Ni 6.376468708937965 5.991168602822159 12.324143536857163 1.5200824688091241 0.5621223410344642 -0.22266833240063588
Ni 5.903027257341464 8.164776838991454 12.565113011874727 -1.2404857986525604 1.0512222669646154 0.43618893686373267
Ni 0.42443989962064865 5.420058535270875 0.31673194589311904 -1.001180886136508 0.3309958505641461 0.2713097475574231
P 6.236209247757299 5.362791559393585 7.63682793749226 0.509896036739896 0.43584569459170097 0.9464061043884734
P 7.601634350692661 0.8577869515188477 1.5635162233813757 0.7140884218235315 2.1116855929115244 3.029191983546512
P 8.35488064915145 7.415627078921919 12.566199158291694 0.12719530160229062 -0.7756853686997222 -0.5747153472081263
P 6.916037310038052 0.8723155692053203 11.760795282065882 -2.249008984086753 0.8487638338529511 2.2876187260391503
P 3.6691923902659482 2.7108842790882397 8.043916742059162 -0.9044120193448746 1.678130494126213 -0.7560323703554851
P 1.1459032613607987 7.253005779744872 1.2802001921244461 -0.3458874229639978 0.8789588693790926 0.2057874974848972
P 7.649327077444608 4.256641632722993 13.53962030157746 0.7469545764239329 -0.30387842552206373 -0.16772334362332406
P 4.05005771170348 4.019841043217613 4.700915918902617 -1.967254387046922 -2.090722617506612 -1.1193140775365302
Ni 6.55767476255066 2.5057003218760627 6.320909876820232 0.686642924018069 -1.2977748621820164 -2.2471832437319232
Ni 1.7968300573907656 7.282245292284678 9.479102323386009 0.10223863165695296 -0.04666063728133254 0.19065758382199421
Ni 2.301249231623431 8.922119675839497 0.4815245983310756 -1.6866015077117016 0.39583238742355703 -1.969866370748472
Ni 2.933882540855518 9.36792828476904 11.902684902445024 -1.434123291038485 -0.6683125011399974 -0.5380172204561443
Ni 7.795487057222638 4.661268755964243 5.970257465576468 -0.07416244224602712 -0.5602528919258931 0.7397279767685067
Ni 3.830883512148188 3.657100085433451 10.90664259900796 0.6838309084905706 -0.06290460994402071 0.8432531884473671
Ni 7.46225808815555 7.037899931388081 10.482528731227005 0.11803728925210638 0.08574886153204588 0.538788294294214
Ni 1.9909176571770073 7.228783587158874 12.461342808695214 -0.25568875319071455 -0.12476689466645609 1.133375697835919
Ni 3.881498311008065 5.800745337833644 13.004861374792645 2.525429313397863 1.8190158916210866 -1.2867157761543775
Ni 6.783332015978853 7.373787892116083 8.155524863413708 -0.3181629604655359 -0.06764598128374802 0.472721741682444
Ni 3.999358351271347 9.321400628568165 1.7649494050775212 1.6402267771019041 1.6922671906379114 3.510652647763851
Ni 6.50909883715516 6.5432147336950175 4.725902923931011 0.47531058545554267 -0.21745207830701904 0.5300717403568226
Ni 6.0502489546378095 2.5514481324661396 10.277052566804036 -1.0715951741940126 -0.8036448300271257 1.5855694947683403
Ni 4.11788548838242 6.061589601050261 4.480739194929589 0.12699089890096837 2.3255651233759367 2.2963831024953416
Ni 4.798333668859711 8.246651232395013 10.583066803200316 -0.5707627903182815 -0.6097797950114272 -0.26414434015723537
Ni 0.4628543427501471 0.4333883931113016 1.118003579954725 -0.2945352937442669 -0.613356199508776 -0.5338993416330289
Ni 8.08523258669004 8.981820145851685 5.816665463170229 0.38170546110387166 0.5993845678200322 0.9442512628289996
Ni 1.4013731668740828 7.039055606208902 4.941073602826531 -0.8212250050027341 0.20934718981169753 -0.4394115575660884
Ni 4.372500382442901 8.587932342286848 4.6419492554229995 -0.3169373155885509 -1.2729009817584722 -0.8201014329212521
Ni 9.012882430060104 5.435523907263329 3.637435761592011 -1.0321811911727643 0.6831806765010816 1.5313734683419111
Ni 2.0183156065877 2.770349855844164 1.5191664974525854 0.41143795517129783 -1.267317574133424 0.43416650711706517
Ni 0.36763331452563897 1.7261083957946461 3.011187790638219 -0.627298520621481 0.49159209622438566 0.9871647743630741
Ni 4.9551671982024015 4.077108019094901 6.560283956841247 -0.021750761413530283 0.04522210506259308 1.2957668306130523
Ni 8.724762361926052 6.605677548400877 6.754126328067948 -0.19334927172154442 1.0389678750772944 -0.24305820891089755
P 1.5262612133647988 0.17799271386699714 4.96980104806768 -1.499773839158759 -1.7438401776191967 2.6573662434501975
P 2.3179454442787124 2.1468491964156415 12.908324944333057 0.13405037685091106 0.19774071592102074 0.5563224465232355
P 0.2029956916368169 3.708278628108363 10.73015414155408 3.5546521932732524 -2.297635743955521 -3.6295903373430396
P 3.3493711282664385 6.552281613386827 10.833744886285805 0.6130196421049636 -0.6096494400811501 -0.5380516732385056
P 5.566190327858153 4.216258784105998 12.251383941369692 -1.9005957093771078 -3.214170000485226 -0.6452787592489855
P 8.98273153168599 2.9989291813802867 5.136237013726463 0.2564834811778679 0.6217981596285421 -1.0821503240020396
P 5.636968363835775 0.5569356688952598 6.201462897717627 1.2685409050175638 -0.192888530035042 -0.9717229858867072
P 3.9901693270862792 7.776357350432456 0.4996066811983178 2.2828261897465136 -3.286809321218507 -2.1424452426918843
