# total energy = -340897.6870861567 ev
CRYSTAL
PRIMVEC
9.00866961963445 0.00000000000000 0.00000000000000

0.00000000000000 9.00866961963445 0.00000000000000

0.00000000000000 0.00000000000000 13.18509859862047

PRIMCOORD
 96 1
Ni 6.13534528788933 1.9539353500508132 11.182769425791495 0.805061250758678 0.9513174256471618 0.968987332123099
Ni 4.815241899658177 0.3791956150899921 5.901623468044459 -0.6299012483516505 -0.23634531566709618 -0.07451108383469747
Ni 2.756598785142343 1.3116892910092375 4.671941896339874 0.17936015653130402 0.7340841482191679 0.5909631765255564
Ni 3.4545364384300474 4.2225435223302386 4.796421888409457 0.3785286060377868 -0.3955788766518542 0.2455686340375771
Ni 5.15716594682929 4.659418945003487 2.661636599236925 -0.24420414958988262 -0.27979901597535684 0.10968120397792724
Ni 7.348146414867549 6.075158367611364 2.7791943297376425 -0.7957541144251392 -0.24394009729521857 -1.3156609984338181
Ni 4.908580723337268 4.627312047253049 11.350523462202828 0.1461643865056257 -0.7002227195850328 -0.1857642602854349
Ni 5.696965417425868 7.771716032833335 12.293389720072087 -0.5335131619382036 0.5876906764218717 0.6484232184152381
Ni 1.7498259273988326 6.483593420980983 0.501860360274975 0.06740352625563875 -0.2361188014785869 -0.6240188214289446
Ni 2.5572189139266643 1.5494731198876865 0.5587014607368604 0.7330927308401761 -0.13104475725536788 -0.6510092339748594
Ni 0.4345214573583803 0.12200801318554223 4.903314255204578 0.8693542564097931 0.4316432264745792 -0.21048978805657295
Ni 8.522615653538217 2.3199665965429617 1.3243635879915858 1.0194316048165797 0.2767224339325621 -0.6790352868741403
Ni 7.0819942860406915 0.6631488746561491 4.884828465590689 -0.8353298198352325 -0.16094668702112283 -0.227891271362472
Ni 0.6489593194803035 7.378694812811356 2.605823387953863 0.6234056133249779 0.0039253031963351745 -0.04662129940296487
Ni 7.730555422333405 3.809009562078815 3.708638571064148 -0.015294207154909143 0.035146980214778176 0.2334127154013335
Ni 7.447962471847022 3.9034744694332164 12.536351732123082 0.8020168075053995 -1.137414643791983 0.11786065446492605
Ni 7.659891419540355 8.418340305204516 7.201819498630012 0.5771589236526125 1.6843957583096347 -1.0037105945368971
Ni 6.818400619324137 0.5874283057274874 0.3752345031537218 -0.2607551119700283 -0.19939444947435983 -0.38795992665401574
Ni 1.9184231752662384 6.4283882948825894 9.294030717073365 -0.3737157580301757 0.04560185699951501 -0.6633980945575156
Ni 0.07536022215256262 4.814611292800003 1.5157059243663722 -0.28934603623384364 -0.4310739842346705 -0.46897795836929557
Ni 6.342274424064286 1.9970778678192878 6.826347166604065 1.0126055830336818 -0.19546528962328272 0.903719107042908
Ni 3.5707662910608393 4.402590789008196 0.6452036052064097 -0.5537865674752592 -0.4129168537096695 -0.46313718331780235
Ni 5.981918639295699 5.593491840668987 4.819364266776752 -0.41968913943649655 0.1538440145380705 -0.19739721653867295
Ni 5.266540202044795 2.941015256480503 8.996614901952142 0.4218318968111122 -0.058253227214938384 0.2830535183569125
P 0.10691218586780717 5.507891464006626 12.515189466829717 0.4568572638463616 0.24345672990089687 -0.47867230283892404
P 4.035433458840737 6.176298698993001 12.56377682438505 -0.966440397331529 0.07515771627976088 0.939633304441014
P 2.2976971657800322 8.371918631773537 1.3905007344098899 -0.1415106897836982 0.9317878402546662 0.27795039280239225
P 6.280601073334911 7.679467258151943 5.684649665485737 0.09600293515988627 -0.360053944272367 0.6964825358163101
P 4.614943144163445 0.9467661108535936 12.567323537528807 0.6568032149488171 0.7970643485961305 0.0006196358618699005
P 4.044586266953656 6.0856624761346545 8.414993584521493 -0.9841966928736856 0.46337501036022133 -0.7794309517850835
P 4.7938823445048975 1.0437084022936767 3.723234417230046 -0.2761549914648664 -0.7928174003943185 -0.13214364674650145
P 0.2993860111195448 5.5091977210699845 3.6872655029067656 0.043436473917080026 0.10124721427796111 -0.5184719513343651
Ni 1.3230402144563616 0.9933229143256083 2.6129834783949533 -0.0011793650200818398 0.0066676418281627105 0.09940784707637719
Ni 1.962052161182447 6.4356042390739745 4.902021511145323 -0.3046369009546431 0.14607825454972262 -0.7716551644944065
Ni 6.080986976714768 5.70111841402041 9.208987076180078 -0.36241267431253066 -0.5080576979795767 -0.2994245035157682
Ni 8.53352515218462 2.1803051947963206 9.950596056130182 -0.39069660885888846 0.8188680747347833 0.062147162952705864
Ni 2.5047163886490136 5.270684189969936 6.955654003739497 -0.26911145435452366 -0.5953952441549811 0.9365469522062064
Ni 0.5125365343838537 8.998967065533131 8.913298222983311 0.04736871909195067 0.4561208999009693 0.42387078161801195
Ni 1.3326524647088074 1.2134497511751974 11.216615897603548 0.09333952939511021 -0.14766333964865536 0.9401123009599616
Ni 3.961706508450844 6.75464626596279 1.5711101420585618 0.6401298680581944 0.23443447179762852 0.0991903317489324
Ni 5.472334245875039 7.779274306462015 7.9969336687622645 -0.3102442198390915 0.36125516366931976 0.03827704120332763
Ni 5.47738810940983 2.817218121551628 4.729375767248442 -0.31466111795986457 0.4878033186059147 -0.5472166275672253
Ni 0.7150532242854756 7.294364658534746 6.876965078242717 0.4435044966885394 0.6373983280596442 -0.025056428747995556
Ni 5.131058822900904 4.739379894619896 7.059578914833441 0.08961554357630373 0.2605558514750287 0.00029336287070272056
Ni 8.134522175679395 7.191827983395722 9.176300920987062 0.0928870152387239 -1.0165162309419975 0.35513799502798843
Ni 4.588962141606694 0.4104232667067474 10.349840464975394 -0.7851447143404091 -1.095099942184172 -0.2610641585700149
Ni 8.195925266326697 7.260546113597837 4.636922495771615 -0.4325477405667196 -0.6815045743502393 0.9693835391202531
Ni 7.276212189688749 6.035556256918063 6.890136653776083 0.4730140761118821 -0.460994940163819 0.4420047722145614
Ni 2.287706551412682 5.199326519632894 2.668821913952343 0.00945806008910629 0.28547729730705673 -0.06665045013969811
Ni 2.2941747760436626 5.390166172255022 11.47384403852031 -0.3720072599795013 -1.0701517568792667 0.14026447608142295
Ni 1.357029924111917 3.259399650502937 3.8646317895705447 -0.8332078883962231 -0.0014408462115846152 -0.36772765876754093
Ni 3.8051268255663464 2.6480893621894763 2.645418291711641 -0.7367064163333635 0.10609682906077857 -0.22653732843773888
Ni 0.9705039547291274 3.4219250551930718 8.211785028809762 0.5179168501618435 0.23378655380098445 -0.6948342015796097
Ni 3.927194295969945 2.805290643262745 6.8478517613347245 -1.0544896248619775 -0.917471166521678 -0.011792364649237755
Ni 4.093088943016607 7.026059457720695 5.94057245020608 0.3077132258871217 -0.17240686514192244 0.2806935027651682
Ni 0.7347795076760851 7.37198335410651 11.347319979363306 -0.5481396536021269 0.11778300714945522 0.01165506774042509
P 0.22183758316911995 5.577186149050498 8.003248746013403 -0.040619573293575205 -0.7850896927327575 0.8549589069200695
P 8.494589683027103 1.564922987912939 7.67371432187152 -0.8973599975940998 -0.35475001556095037 0.9418310834232813
P 1.6212001456702292 3.226004513027945 10.36479215358269 0.5716073977067639 0.2471192663541486 0.336470243415156
P 3.9407343260818717 6.082464398496774 3.885385061273037 0.42243482050243375 0.8302061254554218 -0.5818748410710431
P 6.736710005182453 3.958328257424914 10.389013763005135 1.0336824583086393 -0.32772823555646785 -0.6446822633155671
P 6.286934167924855 7.703934804249077 10.202404581534411 -0.1873586013557483 0.5954692919260262 -0.5531530476563182
P 2.317696411853537 8.437123380908686 5.776101172925009 0.7693789668657202 0.11097266909584115 0.33656331734959455
P 6.827715583486302 3.8984115972290225 1.5301837569630972 0.8642043367777376 0.12245367315224716 0.5335154759310489
Ni 5.322484039034192 2.713375189349246 0.4392302888550564 -0.5675257714382227 0.19164797275972156 -0.33416782053422445
Ni 1.5824808845783718 1.1148048212180457 7.059169921242569 0.2500495526270662 0.7208511944686617 -0.6567119407865916
Ni 6.7306561793439865 0.7422972422924544 8.999594068923543 -0.31064196949814243 -0.059849110947148544 -0.0696828092081187
Ni 2.8165785060240522 1.735781411800367 9.166940012610944 -0.4715138374172718 -0.35938777144327777 -0.01770821591304047
Ni 6.526771973427069 1.8339308649403823 2.4663917072769848 -1.3829400832964505 0.4732950976874107 0.9584031288493494
Ni 4.076954416116766 6.896343626994391 10.561171237020401 0.039390843092796675 0.6937877625929665 -1.3692157917318224
Ni 8.115739099975226 7.177369069004743 0.5132842539442595 -0.26003468886423603 -0.6613368411531126 -0.6155514073878818
Ni 7.57078667048043 3.756362898090724 8.16799658944513 -0.2118509300701577 0.379510767445398 -0.12165328873813888
Ni 3.111414238228405 8.45726676569263 12.452653085571585 -0.6694399298762213 -0.9231463625295844 -0.4015140111893666
Ni 0.014546298484183812 4.7526496646497485 10.282043020786212 0.1760514038730452 -0.15120580558427507 -0.35088667595080214
Ni 8.882385874795641 2.487789098841754 5.6976897144458265 -0.9932161227634765 -0.2951122492936595 0.41516939718927204
Ni 3.5487040596941672 2.66630489172129 11.467422658970222 -0.24549355782526752 -0.25451581592853584 0.3726968298473582
Ni 1.155010512761312 3.353621323783471 12.636320936482397 -0.701280728535902 0.3771319828005763 -0.14862878888571823
Ni 3.084973793532127 8.34660427075257 8.139267041853682 -0.18767793236838 -0.10893224162704464 -0.5248624282417412
Ni 5.625229382973922 7.894531222797339 3.5110334077207583 -0.6840417389497961 0.016575644970494033 0.9781350600606379
Ni 3.0392277703063355 8.155305175990916 3.4839776709042916 0.36650792742782684 0.15165600574781624 0.309035544242971
Ni 3.333622077709966 4.201535305283657 9.319135176097255 -0.42189283195603466 0.6327418031242393 0.0036368254216388976
Ni 7.2765365017872385 6.014539031202078 11.302200058660986 -0.18985359986346012 0.5783066641038105 1.0206122553882424
Ni 0.5139013477983293 8.981445203545308 0.0873967053412156 0.33269792085691735 0.5139987460543599 0.4572388155554964
Ni 4.55076538334018 0.192220681641528 1.6413597460590978 -0.09106101777357867 0.3913026178740035 -0.7208758770590101
Ni 5.913281587118207 5.565024445357151 0.361233229168388 0.43706285482825374 0.4556665859723701 0.3369456403896778
Ni 7.804804875548641 9.096413842459754 11.108484838765586 0.3969515886296648 -1.6743224332340325 -0.26181697757563943
Ni 0.2642350839780097 4.917391202012892 5.723004976333735 -0.6185534274389992 -0.6603724203573144 1.0533359708735084
Ni 7.731933748751984 8.718842490463027 2.561231375278529 0.6892790760893355 0.3079960472348631 0.14941708911496848
P 8.459176603605956 1.6927560067341243 3.5384053488332525 0.707809273683039 -0.3839677747754871 0.2586900019108835
P 1.7960043667559433 3.2878580371453703 1.6402660935936368 0.42023549885826983 -0.5754859068255638 -0.2086900158436729
P 4.55312565472363 1.0632752322358623 8.05809893053734 1.2737653866412968 -0.508508155253434 -0.07978981573513355
P 8.317839589350452 1.6747747026067752 12.3347782499079 0.5552446400780244 1.0648840807224242 0.5086063713941951
P 6.187000998243148 7.542544491903656 1.4281704855163584 0.04043676785880778 0.18080280251510153 -0.36873321721391983
P 1.9287741364096873 3.1970776755765833 6.08782365592431 0.3203581683446418 0.06629383813122776 -0.36642796611951084
P 6.928099186638132 3.931176127845841 5.9660723898167385 0.7815796226969701 0.5778353808943467 -0.2904680656534288
P 2.2159074562749197 8.565406833199994 10.169956255213622 1.1149434592726606 -0.6274931531307902 0.42675401670307794
