# total energy = -340864.62580470205 ev
CRYSTAL
PRIMVEC
9.29601738724530 0.00000000000000 0.00000000000000
0.00000000000000 9.29601738724530 0.00000000000000
0.00000000000000 0.00000000000000 13.60566110207366
PRIMCOORD
 96 1
Ni 8.096496489376289 7.404110522193117 0.7665523827195104 1.1569640266788206 -0.16539238149730226 -0.7917321377499398
Ni 0.1685962897776764 1.8733148322389115 10.993196861569036 -0.2072892788414043 -0.3126224902632809 -0.43860166007028334
Ni 3.92009334896049 3.5201786808766564 8.072470002832137 -1.1554851281404488 -1.3058717802575381 1.5768801945244584
Ni 6.3008591784416215 5.674660855069627 13.26705663187077 0.7745268296152467 -0.5425143369955495 1.303282165153491
Ni 7.480031096210799 7.301445306146677 11.410918050961902 -0.25354728136767946 1.5845986462146386 1.7647543020640446
Ni 3.466373332227906 4.219322852701785 5.993769891997749 -0.6115255740579404 0.8346186527008206 -1.9600391002454052
Ni 6.957176598154657 8.005627919396758 2.65883202003415 -0.22577628190199828 1.3003937878621024 -0.27343604987180653
Ni 7.863278005115778 3.9217945201427153 5.545640500123036 -0.025839586770923243 1.0513767902646087 -0.22453778150920686
Ni 9.104147590297146 6.5647824081386945 6.287067607042989 -0.24763040166261224 0.8465187465725164 -0.38888243846828513
Ni 2.280024889034258 6.508048814012343 0.33730599096750113 -0.028093158691790326 -0.5681171251653183 -0.49292392766193177
Ni 7.307153060823652 1.3932870862948623 9.382640468048328 2.9940964253949596 -2.629184638809659 1.2783596908801984
Ni 7.702977481256234 3.417773753317114 10.574347135665118 1.1700982500679333 0.44127509313738844 -1.3366687110337367
Ni 3.491955972083013 1.580360140235333 2.704465239796045 1.3382175435780952 2.3320363329225775 -0.33264932700716904
Ni 1.241380866137774 8.664315823544044 0.5827645413243864 0.5231539301910667 -0.025767852992723363 -1.3912280343368555
Ni 5.318298028454244 7.275937034430684 4.358954611498159 -1.0246756268243387 -0.10063066373988475 -0.21554509109229328
Ni 1.7618276956901104 4.2211634641448486 9.518357673922107 -0.4966098611539512 0.4780632085000154 0.16782130265376904
Ni 7.560646159010032 7.947314002314241 4.932025265889077 0.4611260664250446 0.26903380703905283 -0.9100651038655939
Ni 8.885040460433457 0.9161940930405867 4.687571615011965 1.3313591258953652 0.22505020236925113 -0.7715577196845937
Ni 6.920020416649984 5.688735025396891 2.0735166515381644 -1.279093226612113 -0.15578416898357686 -0.3148956025681738
Ni 5.945472433652106 4.019783839442383 6.860709036901604 -1.1704296652654231 -0.07883207980755456 -0.4645376632097548
Ni 0.8822450375351901 7.232097016423166 2.6736480125490734 -0.9446428418404633 0.13216370135115948 -0.2741312761666182
Ni 5.232709596351784 2.1739015545190314 9.685039913719345 -0.5434257930662254 0.5934468621793586 1.5945513865519765
Ni 3.5717715773867744 0.6194559219595999 10.339499989158018 0.762032810913294 0.03298879622119479 -0.38509597484265934
Ni 7.599605767888213 0.7073451183658901 0.7266984969684873 -0.7655487944863525 -0.8750453932572994 -0.9319500768641434
P 0.5247917880800532 8.258079863635546 4.682905014282582 0.8365855466192044 -1.015565436992954 0.6468579308106472
P 6.22952154099682 2.0866398392865126 7.8715282205487025 -1.6074470115677222 1.2055915578785368 -2.947061949713976
P 1.909913252700233 5.3654753167044875 11.639152940300056 0.022555773813328895 1.0919292577656743 -0.21363064767839982
P 8.14605355807817 8.085815365396087 8.376774202466201 -0.37491286366207044 -1.3319314534590674 1.0456676556949733
P 4.246160454904436 5.632717224609509 7.888793713645683 0.6051793201249384 0.5955762498175355 -0.17028904746797124
P 8.884352555146654 3.2583749431443225 3.7403325422983715 -0.2832090700981703 0.7773352455983193 -0.1041268498186013
P 6.78348051323726 5.289601222773752 11.086777079821 -0.9702201760889354 0.7864575196145618 0.19930728907719225
P 2.480883936762928 2.688036388264093 4.443486086423467 -0.1994517850748565 -0.21073507129815966 0.16859083382994192
Ni 4.911662339798012 6.792367505861345 11.90355212608746 -0.198778927377548 1.225994804125237 -0.6569497678290106
Ni 3.83214372844117 3.2767252814706236 11.037211644703468 -0.6613445544625964 0.4974745231470916 -2.167816631577138
Ni 8.212752482845756 3.532560976039085 1.5205690859896706 -1.2431443193213298 0.24161967669215806 0.5730359026231744
Ni 0.2876187780221713 1.3154236446428353 8.314542014054132 1.576589402756917 -1.6951828216228093 2.3216881569190337
Ni 1.5122668128593666 6.908920971887266 9.0276283527596 -0.5063782533946247 -0.7654984008643914 1.0147725087780135
Ni 5.934521725167616 7.229735828006308 6.9205056687577 2.854202445279078 -0.8270644945026465 1.02806588345281
Ni 1.9002732826676216 3.276260480601163 12.192210198853743 -1.8128897241186905 0.29800833989453196 0.2552094995614508
Ni 9.037839098259907 2.4839144384318104 13.352650641583663 0.6825199029886311 -2.3688586439572497 -0.7578509116214626
Ni 6.020128749304855 8.391189536631652 13.462203276913769 1.3835864586311977 -1.258643957618826 -0.7710764091728011
Ni 2.233972418888109 6.108431618484965 6.939050293847436 0.1879702667978182 -1.1776904605928942 -0.06835123488088873
Ni 6.978362221784668 1.5667135867079722 11.710229359656223 0.42569857885537005 -2.214748520241986 1.3181336283440266
Ni 4.34147252119601 2.0630279551179185 5.9620146965962055 2.5156339245739963 1.2680580518438742 -0.43580944203712685
Ni 2.4223283232282915 1.0095846725378117 12.180114221026903 -1.7598879751106788 -0.8325609988408436 1.4678649062653044
Ni 6.818796083298871 1.9756639836941183 5.538620147790704 -1.2965124505298251 -1.7479187185639444 -0.11154499665954339
Ni 0.9554818513326069 2.2700316703408565 2.3555345790833364 0.702862471200725 -0.43263412963293885 0.022664788587367417
Ni 5.974066983141317 3.519444295502909 12.045078413227754 -0.9981798945266551 0.9855634913142254 1.4177883013238874
Ni 3.131670226129384 4.216766447919752 2.0181412055523764 0.42979408908098243 1.0630228591439694 1.732639680917687
Ni 4.4186015774742895 1.9072081116399728 12.852098218845976 0.5055938098201164 0.46254634381133886 -0.8223778876602545
Ni 8.5271902710358 4.513867163678918 12.617930611210026 0.137349359317157 1.571359007595913 -0.016305679138559015
Ni 0.42335922393942227 7.085498822195318 12.371913370208048 -0.4714194779312526 -0.5821203814229458 -0.061009449803836865
Ni 5.276465950202797 9.43211108378849 8.667105558362545 0.002880921092220845 -1.7721799051041542 -0.9782037085150443
Ni 5.248977626782902 3.8257294764426146 1.4999421530047516 1.4454914236661105 0.04003696131722782 -0.36668764753880073
Ni 0.7542035532196834 4.295838371832376 5.758010806184766 1.2986567505663376 0.7213520453644803 0.4132870925648947
Ni 4.881980156274262 0.6573585736606278 0.9468142447189071 0.9428320138839698 0.9104240298669095 2.0676176560580326
P 3.674594825728831 5.485115060503626 4.1100388722742265 -1.0142816851845244 0.04120347082150323 -0.675577667342843
P 9.032112751548155 5.517455905000689 1.600202489352603 0.3139136982708787 1.563176986005753 0.15511105417595222
P 0.30883600811130524 5.267123452726641 7.954277648940498 0.3777433911323301 -0.7418424520083482 0.7596877077198853
P 4.483682995216152 6.26885299057057 0.7865908778036924 0.22153858967156684 -0.2761493350379115 -0.7294741602509823
P 5.984078793869497 -0.38204865226351 11.312032595585913 -0.8079856234943245 -0.20271760031032182 -0.6206373065512214
P 6.9590358016325 5.9268618068389065 5.3995833341072395 -0.8379587728176473 -0.5980347386603572 0.5425138227749173
P 1.937475944259242 2.038495765227792 9.762851297673993 1.0046793862080698 0.09137572080052006 -0.3000557093418639
P 9.237638400006208 9.580196640798613 1.8813772681205736 0.3355279341065447 -0.014360639597046233 2.143402207288515
Ni 2.2099143258848324 9.26244947041801 3.0739949454415054 -2.629693203014961 -1.5978328855167256 0.5895675817296105
Ni 2.6768997594318193 7.136478181557749 4.759613890574869 -1.8825761328712354 1.3394635001700543 -0.12756296935435452
Ni 3.134840168059105 0.9233306455902835 7.5946119473467295 -0.04762428674618249 -1.3321661951776929 3.4411400455850085
Ni 8.51425021483002 5.661757982933403 3.8699673639943892 -0.25120500638774806 0.11069524706473839 0.10471306133937451
Ni 5.720387964607153 4.437732781261285 9.334966772469503 0.1736595066021009 1.0882361251848032 0.7020520594842877
Ni 1.8553828146951243 2.3827551772024225 6.524608739389484 -0.9504077693486987 0.1514063516308554 -0.4227757487816203
Ni 8.726366739617022 5.803810424657928 10.352615740092455 2.2416900818278362 -0.8883336257257733 -1.5835843460175114
Ni 5.399396484157717 4.49124065735358 3.7540330127265897 1.836575754881721 0.08015491238403614 1.1214923161347718
Ni 8.019014184437221 -0.016472542813680918 6.70040758344032 0.05495784429311825 0.4761420802179026 1.07470080970253
Ni 1.466567591374008 8.360503383229867 6.9765476391902945 -0.2524288514925201 0.926483140212301 -0.35485800189372435
Ni 9.412403526923365 8.605211744983443 10.056229888070519 -0.43135423447925064 -0.19622813593123625 -0.22259377040895859
Ni 3.058343240963292 0.441848072924823 5.4397477068390625 -1.734347150527097 -1.7657860857626684 -2.1884867583319796
Ni 3.7956847482406864 5.825553809331291 10.155932463375017 -0.9236186741803125 -0.381056257555647 -0.9296466255419474
Ni 3.326031357702996 7.306372195362958 2.3642012560952974 0.8401012730819467 -0.6814963468201231 0.22481957441568376
Ni 7.492348319251502 1.6540124860100476 3.02089237570738 -0.9752924484055204 0.12897887586527465 -0.6087269282668807
Ni 6.0964118680007156 7.156985195918346 9.494166647870165 -0.10758215535705343 -0.16620356454468796 -0.5194631116030408
Ni 1.4013095493017507 4.965058663681636 3.5039478345150945 1.0474275758088736 -0.7640045899276842 -0.047430939788453794
Ni 1.2980307961076227 4.336201679336328 0.7315277780021823 -1.3940685891094444 -0.317269245006673 -0.7146540645190144
Ni 3.7344146976284005 8.365681264915656 -0.15794956106181365 -1.2724196712466795 -0.13513486816434148 -0.04660381590146812
Ni 2.515697521885521 7.6847851752255485 11.53700179401524 0.25296672627386113 0.06788792209122503 -1.3037624472240192
Ni 7.423343982171394 5.448405087833634 7.927148151791826 0.5935139679718682 2.0692652189637846 0.2169571409484715
Ni 8.179119491931592 3.2762976646707203 8.153178955407002 0.33847673232222353 0.7341216863253228 0.09952868892495761
Ni 3.9117827094145357 7.772595355484031 6.626868649077754 -1.7943361294862195 1.5553939996262245 1.151746744143939
Ni 3.762488670143816 4.499318896464803 13.060890487814598 0.3370037473211228 1.259132210109154 0.5789365843783256
P 8.917966954026038 2.001739312470854 6.572200630015286 0.3857546914725808 1.3750195428977932 -2.144123658835572
P 2.907282958388622 2.660538768826809 0.5910965617103356 -0.662984918279497 -0.9777028576192257 -0.32531705501181396
P 9.712478968247078 9.297690672340508 12.047091930594256 0.5949949233927689 -0.2670717982166755 1.394067817778496
P 4.87189397740697 8.81610119547507 2.705023000839398 -0.17041426019192585 -0.6432429597658793 0.735205920528437
P 5.217696528268209 2.342131581211573 3.7375976539824656 1.529423800814708 0.3806291973205574 0.4727749635178826
P 3.034136411681788 8.352425144118643 9.036539515028897 0.4962905301413195 0.09585329695589943 -0.8194401451881694
P 5.858889327688999 9.217410266167287 5.903754696414547 -1.0959293800640029 -0.7134672432997647 -0.28156253563368283
P 6.389468816195575 2.395434944921306 0.4910137792946181 0.5560997889894681 0.2546623688087291 -1.3733521824976993
