# total energy = -340890.6733880204 ev
CRYSTAL
PRIMVEC
9.07042819454052 0.00000000000000 0.00000000000000
0.00000000000000 9.07042819454052 0.00000000000000
0.00000000000000 0.00000000000000 13.27548851564233
PRIMCOORD
 96 1
Ni 6.723073861460858 1.7131498936355722 11.38162032971199 -0.8039047685567315 0.9276506781578412 -0.524569836701987
Ni 4.379746906057395 0.43014600412390597 5.909769391831795 0.6458708843070295 -0.9799823976820219 0.17451516973417686
Ni 2.392289126216737 1.5319499517428732 4.861669634829952 -0.045059611342799816 0.5385080440496338 0.34791319514477503
Ni 3.3975374598074737 4.211354408623449 4.934220360926109 -0.05349822902845625 -0.04436284238609134 -0.4595368675610537
Ni 4.933714231038858 4.628775509184193 2.4084254177833944 2.367045502007911 1.1221137517688544 0.09639399995071785
Ni 7.07693847241645 6.196199905175069 2.694977474863034 0.6482046746465288 -0.7226993034209941 0.12295529537901406
Ni 5.092972807389262 4.835499635713527 11.725694320590543 0.5540218234145168 0.7680383936774255 0.15222807620120235
Ni 5.580408542353057 7.726353912156729 12.308926474751694 -0.4877580671902762 1.0720726280510635 -0.07352635132392499
Ni 2.0103243290478208 6.606999593232352 0.4555368534676629 0.1141865480474485 -0.10984961123499144 0.4352540837542891
Ni 2.865747331498566 1.6605414107313496 0.518057500185288 -0.023001345991179742 -0.1391139074167475 -0.8496143547787046
Ni 0.5235550866487791 -0.3615118888756868 4.606421439163942 0.7245790369422102 1.7734963099227328 1.162163825712205
Ni 8.69388740576199 2.310401301447889 1.0537179801588905 -0.352300011358561 0.328472312811344 0.9008618400997711
Ni 6.702329792426038 0.7928932853050333 4.750606778119478 0.2832460939836928 -0.43237341977238436 0.6137552347194075
Ni 0.9018790139835998 7.321785608195171 2.7455968128877917 0.04234632617669481 -0.6644681876932428 -0.8747497163937515
Ni 7.4868583289493 3.8539341898577777 3.859662165194677 0.40425737826245856 -0.4434769858847137 -0.5412143872372035
Ni 7.595014113457911 4.006671128413675 12.60722655028953 0.5263942915052354 -0.4790284006267621 1.76668057255248
Ni 7.934547448036146 8.797834511638264 6.8999354175995755 0.029306462273601144 -0.06642445017182108 -0.31641461031586154
Ni 6.773160765356913 0.665248779008833 0.16997528713511692 0.6856185965186127 -0.35792224264134487 0.8132874953232123
Ni 1.7033266200174217 6.72673831440798 9.116702689906035 0.07480598936729697 -0.38989211067972207 0.18870123142657177
Ni 0.40870079099796575 5.04027362020417 1.4614854241067106 -1.5633975866569914 -0.3948941918800038 0.15545583910988067
Ni 6.3717761816538685 1.8594377578216583 6.958771656428287 0.4861632118993304 -0.07458667426763929 0.04954027282197274
Ni 3.5015571291084435 4.1993270209801725 0.14905162362417546 -0.4675995899645302 0.939323229399763 0.06851372860068201
Ni 5.899660399728906 5.351507219151168 4.901243912573249 0.485180536271087 1.7742079912777766 0.26035453409750003
Ni 5.582658008518617 2.662243206940094 9.118773468638283 -0.5308219882592858 0.4242397349216564 1.1313306423814322
P 0.22194974711606272 5.7307871696063515 12.551057924361185 -0.06421715810785715 -0.7376929486163488 -0.2755667230615641
P 3.790531897530103 6.395531632813551 12.537955690989609 1.4120560268258004 -0.2417603160350804 1.7682800558291158
P 2.580500509020637 8.605931464602982 1.6173661730375393 -0.18887323822806182 -0.4679289482794909 -0.7268048409489353
P 6.275448235370619 7.8296298063545695 5.74883097219969 -0.21280532356362705 -0.13994000286246866 0.6082600159327911
P 4.711815278320082 1.2137049118846748 12.479384308661036 -0.01786556742651117 -0.8285714180654762 -0.16052116944793
P 3.78716676870985 6.223665161422308 8.358552772345197 0.40204031600648177 0.48868572121086806 -1.1404925113863584
P 4.534542831789026 1.3278108972183158 3.900630567734936 0.16968303845285615 -1.2471097317269813 -1.012082106430044
P 9.126755445354785 5.410573846853288 3.691501870719756 0.1442651126003838 1.0015554958671073 -1.77315846696734
Ni 1.3897165689116466 1.1692144621182587 2.480060030642772 -0.6229564416027014 0.4127625875199924 0.5296871033238941
Ni 1.8413694650724841 6.129559470020358 4.766935362761577 0.6156987315990234 0.5911074154129047 0.0028523818471305716
Ni 5.610313743755682 5.633788011644669 9.303581626823965 1.5762739283990275 -0.5619547051083483 0.7529606734086968
Ni 8.590466384714757 2.5825050736278494 10.173246108414007 1.068556901588321 0.07194769398289544 0.5309821679862339
Ni 2.4531063465396357 5.161427328161359 7.122127345145559 -0.8425422784232717 0.005838461058648009 -0.5859215003365909
Ni 0.5246217689918027 0.3209126527585661 9.715480650765382 0.4300869377310529 -0.5850936051186568 -0.16480334176305167
Ni 1.699090730100823 1.3443190763365376 11.561755403347282 0.9510942538927619 0.6793317350686364 -0.6419787483414751
Ni 4.377452087751401 6.945489828580589 1.809250172173839 -1.1648280028079294 -0.08464997204091226 -0.8394271298330575
Ni 5.451100519545713 8.011455607785267 8.182094850256348 0.1228395957367562 -0.5862228336270937 -0.957192910591332
Ni 5.363208071383314 3.0668931447544345 4.784353305816919 0.2082722115799639 -1.1479733931444358 0.09355293095749695
Ni 0.7554460229481226 7.151261560160794 6.776485984293583 -0.034686238528275744 0.4842744795170499 -0.2812511750408511
Ni 4.969823605252946 4.315809458472591 7.316891205199461 1.6629630423571555 1.4082309966527555 -0.8767690608166255
Ni 8.320557656131836 7.375400908617044 9.170348829783403 -0.15478503829510118 0.48790976227679195 -0.10813057166135571
Ni 4.64005912172434 0.39429423006748704 10.348654581973197 0.29612706371141906 -0.16526716877334763 0.31927676235500496
Ni 8.066631021838093 7.043640930909311 4.667714856961404 -0.6470355940390922 -0.11946707972009749 1.3260742233473422
Ni 6.896654643760532 6.185188405477531 7.355005144020761 -0.4222998375864663 -0.15959891474397675 -1.7405239687617702
Ni 2.6246825642320966 5.017470563993616 2.442597348558113 -0.12222253097804756 1.7550946674870935 1.5585844815390641
Ni 2.391264167842914 5.4254221376316005 11.324841263973394 -1.351173589518131 -1.716920213299901 -0.3083423748306883
Ni 0.8420858449917161 3.253181596803904 3.8167291079307883 0.9021440492463043 0.5677679693560157 -0.7309440599282896
Ni 3.950661234976852 2.6978899893217485 2.3341358906229717 -0.9766091103344148 -1.2646953060192285 0.8799590285088329
Ni 1.0009126689651815 3.3625165369638177 8.122925726716845 -0.4274770109120315 0.03075630734625025 -0.15239905456142785
Ni 3.617976073604253 2.6201019980481948 6.864900889113789 -0.9891450380178964 -0.6711165462476958 -0.29487236536871153
Ni 4.136940616598235 6.804607939534316 6.032063252599512 0.4959418885526491 0.5228898778964027 0.37580220824555927
Ni 0.9488574821742619 7.45871279059554 11.422362878592883 -0.21211601080608633 0.1818286726764546 0.006661214070259496
P -0.247804095335062 5.6855982968772425 7.982617088725667 1.7763373789159533 -1.0000107770878068 0.3979072676747147
P 8.644517065684804 1.483731556032727 8.116301593084957 -0.35546786756358134 0.32296321006765666 -0.20064194872821575
P 1.7731507754306466 3.498935775391319 10.207337312378751 0.04687995238099023 -0.6107614421984062 1.1522781911673767
P 4.093638392911207 5.9889134121043455 3.942116891718959 -0.9652852006811634 1.0957182924944615 -1.3293816904540203
P 6.819828117864192 4.01177777942662 10.698649748306902 -0.31390984161613683 -0.4183539655648408 -2.4644771991945236
P 6.404420652338747 7.608674178156836 10.119652577019542 -1.191054026383994 0.14863804485709883 0.5656426954828967
P 2.479201968145748 8.380658312635868 5.9124642160164225 -1.7280844574468366 -0.0939707352212059 0.16002057566242764
P 6.949653155072492 3.8513581882810883 1.7185386349620202 -0.12049320699176669 0.8147383688371258 -1.1670034131926934
Ni 5.462220864380296 2.8573118333777168 0.33116767875365477 0.4732989543421526 0.45629727757783356 0.3060461225973439
Ni 1.5814200665290163 0.805782363616568 7.406182313372866 -1.426671205635814 0.601905277359357 -1.4357664830688628
Ni 6.932328637426447 0.5128211420507004 9.141554755821428 0.6000689954815666 0.7228720815534325 0.35107745180536953
Ni 2.9370681075461356 1.7925433506805135 9.111259526011066 -1.2064806453517094 -0.011711632009973378 1.3585662824377764
Ni 6.54785133167745 1.7884979397537404 2.5787372178005366 -0.6322226973959758 0.8047748298665107 -0.8719752389724079
Ni 3.9899089773090193 6.9894723343741365 10.418006168083092 0.36316446487689064 0.974513918368283 -0.10972285584914007
Ni 8.427543355417233 7.29325911186176 0.564577004714751 -0.9756189785070036 -0.8127241666205746 0.1332178536472867
Ni 7.510722625246026 3.833335247672349 8.422765960943845 0.10568930920971477 0.6785061538435476 -0.8767050403479094
Ni 3.129324901276808 8.531299982303683 12.662452758739642 1.0593160997163436 0.42894331104491285 -0.44832505800563427
Ni 0.09043216802674114 5.151295659988254 10.103987040670598 0.07310803283958377 -0.863693715689906 0.5258505031866234
Ni 8.8678582164694 2.2151255248227244 6.004569878025204 -0.27996768034273717 -0.317425310968563 -0.31974521735099126
Ni 4.0607580910960674 2.930827653022324 11.102330964401558 -0.7993410604454492 -1.5536322797401114 0.8121466968505497
Ni 1.0117881122414163 3.5205778168067456 12.666607921846268 0.2340068973419067 0.514544848365817 -0.8238891820984585
Ni 3.111320101524242 8.360032159166177 8.129603375874447 0.3680225643001404 -0.1116928350913173 0.2717681752510803
Ni 5.460424919619082 7.9378218725755305 3.6182209751626004 0.40282604513257075 0.4046828958356514 1.3820777352961553
Ni 2.8860650904133007 8.519653552640056 3.7548524616073355 1.4258129714005767 -0.5193736372130281 -0.02636589158803846
Ni 3.5453219446279043 4.255636238543865 9.201825029330685 -0.5408644600969524 -0.28391355236436266 0.43719012443473737
Ni 7.273803043615286 6.1517003849805665 11.56187513299803 0.7711301452288719 -0.33088426468694626 -0.5062201305502056
Ni 0.8386844344591157 8.883468423207017 0.29277527779008533 0.1723544146374322 1.9464299941024028 -0.3692045004233835
Ni 4.725230441460659 0.29896040270256624 1.6229417651825782 -0.5298861067085777 0.43164194092299857 -0.026527099756251088
Ni 6.22685795210891 5.976541348193766 0.5455572240592572 -0.2667146719875729 -1.4496625243246648 -0.8311409785648654
Ni 7.8560519633718116 -0.5363344127804618 11.380611698108721 0.5356852298888581 1.131442228258632 1.0277568368528236
Ni 8.922725235967272 4.701211947886455 5.664876903912639 0.06608403611326683 0.513804884875999 2.2986618712271896
Ni 8.007791154838147 8.818106918412564 2.692614628346387 0.704753774686167 -0.5153552600822544 -0.28850091462472893
P 8.460378305091938 1.6439425273322585 3.5973254299787283 0.6316729955400928 -0.1329579151176807 0.7646067422880574
P 1.8952931600493121 3.4226262638959355 1.4587633886378215 -0.7538785572372758 -2.950190468040629 -0.34373283851484027
P 4.59090647192124 1.0202326807903528 8.078997643491821 1.2918641531245363 -0.1592243050133774 -0.11189620935137505
P 8.810288209401625 1.5263172159008866 12.289610998140567 -1.4127857059029734 -0.5632484842191074 0.25283045780631297
P 6.513764662926747 7.997069908839388 1.4410941947244722 -1.4726463868143476 -0.8582434912086122 -0.11611050454303874
P 1.7164152477468688 3.448513265656048 5.949662041600943 -0.5049518053607432 -1.2471428989577618 0.2102951555472636
P 6.912065301080235 3.8460519878502315 6.159972615395851 -0.29680994871105654 -0.2080014744170805 0.5684192297867695
P 2.55468607068522 8.634013509960132 10.452575383608018 -1.0792346930171413 0.6866894609852884 -1.0910571395733661
