# total energy = -381163.01242420083 ev
CRYSTAL
PRIMVEC
9.31314577534776 0.00000000000000 0.00000000000000

0.00000000000000 9.31314577534776 0.00000000000000

0.00000000000000 0.00000000000000 13.63073022943237

PRIMCOORD
 96 1
Ni 6.089847410425843 1.5986480417995592 2.002054402517169 -0.5179536169370499 -0.0749240030024 1.0785996305363037
Ni 1.3374515547743606 6.389879715424909 4.972381672524556 -0.25352516988049245 -0.48438966493867547 -1.9480024807958451
Ni 5.743761599460165 8.147521782272396 4.146167805764837 -0.6941184064595077 -0.21515068386735203 -0.8215121972258497
Ni 4.237751418904265 2.71303112844201 6.635725344232763 -1.5496871790494344 0.041546198872902645 -0.33204048977857653
Ni 6.055565720746754 5.598476525025555 4.523425647027956 -1.0593268983496207 0.9259372950111602 -1.781039155266997
Ni 9.234244825897488 4.66735752137825 7.424385813194874 0.19004103328391786 1.252887514751023 -1.0165488839521462
Ni 0.22459023615515475 1.359905549291146 4.622862104703491 0.21961823272040243 0.38338927656419775 0.0007780158166051118
Ni 0.6778563855266478 4.565257504004747 13.397085956582856 1.1398847025990304 0.14303792506150204 -1.2191685252320228
Ni 7.7907631062232525 1.8565290489209934 8.862700599580883 -1.708072275990968 0.5338031823747968 -1.2220610162884695
Ni 2.8388610413064987 3.6421850583261284 0.5054095213748228 -0.08313276406543747 -1.9748890207740437 1.4318828317437404
Ni 9.217360092567363 8.121519479206919 1.347886003325421 -0.29537321626453 1.4865198023623303 -1.2064109684560382
Ni 7.888094792948645 4.890565686697116 12.452136000112292 -0.6183145719553158 -0.2324017576383159 -2.058476098768081
Ni 4.139283528391628 7.092938404793063 2.2829565747344316 -0.8280762235966126 -1.1621743672351663 1.383318549681792
Ni 5.16733375349505 8.827940214207823 1.2456630524273968 -1.5545756174899874 2.6145067250825105 1.1327689174898554
Ni 3.332029363845626 8.203158515264215 7.869129502847451 -0.028806896929363293 0.18223233587277649 1.073591892909067
Ni 9.335869872835339 1.4694188307191323 10.42419664016669 1.0190850201104387 -0.8931567581460296 2.1332034123786423
Ni 7.5412173645902145 8.841826114591285 5.496250780183791 0.941048953841618 -0.9181018581271414 1.722456569737098
Ni 3.9127878226063886 8.389896401641675 12.96924469523742 -1.5528558065854032 -0.04607673975340452 -0.14848660688089912
Ni 0.023168312799421883 3.5383434826885702 1.6290498749395812 1.6439821303792785 -1.203784843687101 0.6287915602272397
Ni 3.156467252424674 8.269598497380658 4.166015050773017 -0.8075480217362737 -1.334104035630354 0.8801914562346131
Ni 6.089651834364105 1.1691536970751395 4.725119514240965 2.054179528275256 1.3716174591947798 -1.4632461765463702
Ni 8.680224408720171 6.718028407585391 3.114390459713419 -2.1559715593130933 -0.7770369976316102 2.0092649271507526
Ni 1.6613813918887603 6.729176243104508 2.3464480148915157 -0.27732690028578044 0.15007323464172864 0.385595025966265
Ni 5.688050361301971 2.3792107304911 9.99252488195491 -0.5845343901810772 0.7256771551023954 0.29265761710557986
P 0.18870016619690735 7.407489904089792 6.576459278323819 1.2220982972843082 1.19892417316069 0.46296723339884144
Ni 8.166092194991794 6.166271084836768 5.6867409330029 -0.995422643496492 -1.582106218810088 -2.019389931399896
P 0.5278244006792601 4.9191942968773725 3.2558226857317742 0.90105981504319 -0.029819397354277678 -1.0350572271689786
Ni 0.5785344795444175 3.8726388510751315 11.057371346102638 -1.4549746805661974 0.8407946996045456 0.6764351302471319
P 3.671549407024355 6.508147353902161 9.63601300426939 -0.9125253924806285 -0.01517079420316742 -0.5849187701036894
P 0.2896202079979185 1.2017962730939413 2.428014408411593 -0.3546386867940666 -0.2586234103390062 -0.23867782045501476
P 3.497728853867459 1.4996399888306908 1.2221613290084392 1.1648125761889616 0.796957647814937 0.7379014650827292
Ni 1.725278885202598 9.05243359364669 6.0065720546520005 -0.6499442830454548 0.02399430603206835 0.7994171650990232
Ni 7.294372435238333 2.4402677143368248 12.203047533937893 0.4825603250394206 1.8326201126680823 -0.0319968646215707
Ni 0.46112085653675916 3.1649701545374174 8.962314007026563 0.18667237392200112 -0.5429830491018519 -1.7241624966846114
Ni 2.1269828028685 3.844792545141831 6.498191601045071 -0.8210398855751215 -0.12347157289380026 -0.8260679349173322
Ni 4.859646042650776 7.206111752519306 6.142797300855201 -0.06574156517218356 0.3138239667705498 -0.5804535352434842
Ni 2.1857021871191553 2.547871800876408 2.800270159067095 -0.5365537485367405 -0.9203454027456794 -0.22677592681110623
Ni 4.520451959574945 4.906155892761446 6.469962524819509 -0.12593828926673795 1.1175886102049912 -1.8747604934815583
Ni 8.764685327953986 -0.057066300871671666 7.689217221024678 -0.45932629421214444 0.014593324433142608 -0.7516941479914473
Ni 7.69788310318887 9.301290162490742 3.3183055121990335 -0.6420540816641007 0.6665597801149489 -2.0690266205904173
Ni 3.468997799083435 1.4065271571513804 8.652882875289075 0.2103586617953474 -0.30810943288427584 -0.4704031208515963
Ni 7.44933386815612 7.090423855427849 7.615147909871258 0.8306005326803632 0.5897267330152941 0.505433115872536
Ni 4.716903457018771 2.977598974245755 3.9912548012051943 -0.867472466006048 0.7887684271359254 0.6126290915347643
Ni 4.738631026163383 4.651487920940008 10.569663320944345 0.4226273961292141 1.3119712082870565 0.18655770272100772
Ni 2.34009551814332 6.2883384867992325 6.949627717267436 0.5069582942678108 0.20126492702419532 0.897446643770635
Ni 2.8479506716044587 4.780391171917536 2.9837940788299795 0.5413964213410224 0.6489292115173791 0.5909971150872854
Ni 4.693872047462567 9.20616569131926 10.2009391151751 0.7911161014324957 -0.8425391930994781 -0.839434071811593
Ni 8.541719304425843 5.673922319127784 1.1734200491647866 -0.41826937627083444 0.9200520398749767 -1.0678948425242898
Ni 8.077654562502623 2.0887430262256466 6.274457242988669 0.8056996556736252 -0.8314273994570326 0.6871576588709585
Ni 8.019046936001534 1.446340855433942 0.5388502339884353 1.0078567554947868 -0.37706976210407317 0.9296515106379537
Ni 4.6715763764243325 4.1001869423354425 8.499128426066589 -0.5794826866897826 -1.2771947240378199 -0.29240024967913514
Ni 5.2814477289468 5.029080104137242 1.286237634721581 -0.7162473771480633 0.9332731665509411 2.4687282611613934
Ni 4.488601000948896 0.6128720480982899 5.941881081316251 -3.1375660386772415 -1.7618073036205786 -0.1708768016506412
Ni 3.1194940636102246 5.828799933733398 0.5898592648336793 -0.15989099206309884 0.8605117184174985 -0.6532491790489717
Ni 9.095329943188087 3.937635295593026 4.905222715552577 0.34049273431098775 -0.2993663965843231 1.1459656186857878
Ni 5.4558922628721005 6.417204485193572 8.340288999238894 -1.9728059129927702 -0.5084418207918727 0.7458418029757284
P 7.1794109635190475 8.397412110299927 0.24242025378368443 1.3084925057098369 0.25009968913871117 0.5122951330996919
Ni 5.576609258693987 8.83659212665332 7.489922420169 2.091049404718412 1.0752152874451029 2.0914348130822886
P 6.107132609025243 2.2590990891460248 7.142720894336831 1.6682006366070108 -0.49474915379612866 1.3417921483032311
Ni 0.471373698744776 7.111685767282607 8.683565965432168 0.6866943460812948 -0.7312387083505729 0.01621877585170755
P 6.694577906468317 8.285291148048756 9.363111755606408 -0.5222990383899392 0.253762225591963 -0.8047455192904721
P 4.211413842590094 2.9429168192973902 11.778409063432075 0.8606528719810533 -1.9648326649793062 -0.4810084071712683
P 1.7827782473538345 7.520542180920674 0.22787312004862914 -0.5400957002517279 -0.24984720680827296 -2.0496021933172184
Ni 8.94424277892189 6.995206252798396 12.166612644950515 0.8540407659811744 -1.6669672784205423 0.7111815325893817
Ni 6.312459534413696 7.174484309392387 1.8360457160548729 3.2256476621075216 -1.9009075841905714 2.211229451345134
Ni 2.525175664568899 1.9947640719872068 5.167082298558529 -0.19945744150181133 -0.8917439369589029 -0.3640180711264376
Ni 3.8829112508893227 0.8784391944460629 3.333122727162204 1.19046652931164 0.3810179481185438 -0.4655643047020563
Ni 1.269707732246325 0.05047259364733163 9.011670885807403 1.8526824306355965 0.5715685740490285 0.4591123784291254
Ni 6.355812228099152 7.882544158053578 11.46492950721659 -0.7274905541620504 -0.09247872405671169 1.2004588646376617
Ni 0.4223036648544862 8.479721692854612 3.8394495933980406 2.3487587878835807 0.8253971341025527 0.5037063629894164
Ni 5.792366907375181 0.2911494265378007 12.876746531180718 0.28162475633018597 2.239574321036414 -0.6936226977700118
Ni 2.317911604854651 4.548298265508246 8.562674813783877 0.05549829017762055 2.445056114355434 0.6407384481764706
Ni 5.159100932610422 2.504286278546025 0.13731488426146085 -0.2889053491519992 -0.0581732659066224 -0.6302774007441467
Ni 7.19243074134338 3.850436311494868 0.6914163258072116 -0.5797541951836145 -1.336112067199318 0.506471070218747
Ni 8.619502698123142 9.138747828894124 12.371850164139314 0.5905916521187506 2.3418744020589215 2.3593550753421884
Ni 6.975490323145956 6.2228391324082954 10.20960779128303 1.311622052477754 -2.1521041059378874 -0.49584161552935896
Ni 1.806005232971778 8.827455930626376 11.704967458305378 -2.7176758389735323 -2.5260525488041594 0.5017857489279358
Ni 1.8516675868149122 6.520012301647654 10.958370743650407 -3.7802389848722635 -0.14007035779274585 -2.37301868887221
Ni 2.614991642636039 8.862007701533582 1.6228743279615305 -0.18577557313934456 0.7224838449760784 0.5825896077498806
Ni 7.927535965399323 2.602148814581851 3.153865159488967 -0.2502264445245626 -0.41313694014027563 1.535077913776692
Ni 6.4003942570298245 6.49752105454768 13.275867913517086 0.04705581583722218 -0.8093164264906063 -0.21849748885239786
Ni 2.647457268884696 4.3204335272908345 11.978617483890446 -0.7585602789836613 1.0297394145004912 0.45971993010613726
Ni 3.610399291720659 6.4017260368788085 11.917593096055011 3.90067511337385 1.0762948936625272 0.9082900142430422
Ni 2.6040300700328634 3.042651297638432 10.084655176752628 0.43406340588029757 -1.3268026168729343 0.2672504898863849
Ni 3.130641899129342 1.0443202908109392 11.295881941280703 1.5277932071898204 2.308699972189482 -0.15401447867766377
Ni 6.714014441746844 3.741360747919345 5.518033296888607 -0.39102519584290074 -0.36636137454763357 0.06657151727264664
Ni 6.983341305052903 0.6881055024763459 10.97480937729685 -0.32007483277626814 -0.02487490886480877 -2.5475372010404964
Ni 1.8478678233296995 1.2646879466616932 13.454389742672355 0.6889921409765359 -1.2855137854264764 0.9852264196897806
P 0.39442290028173654 2.2205333524002735 12.455024937938552 -2.190521529373821 1.1663981755085266 -0.21632233557795003
Ni 8.634915954417327 8.447647218729433 10.316800236778382 0.7716348527794324 -1.047306733960293 -2.32616264775062
P 3.6805738453017356 6.106126789279157 4.749083169691458 -0.533877487256158 -0.12680552236303969 -0.7922365881901839
Ni 4.950831053150089 4.700763775352414 12.828152399040661 0.3123754072494814 -0.33339648958583873 -0.5285092809657091
P 0.8321994255635089 1.8009575079497548 7.210983459085765 0.34238558045832646 -0.44943860278478726 -0.48219008618419534
P 6.195877575325718 3.7811651330561094 2.7325663830659868 0.0004674265547217756 0.3320302053659314 0.6608362473676103
P 7.4654362972392905 3.972047369313275 10.280487350000948 -0.027060860772534043 -0.3526134288339217 -0.03419772892763143
Ni 6.942754615669183 4.349788562843263 8.049477639893526 0.47851829375956295 -0.1552835751980745 0.2100275037081738
