# total energy = -340854.55100806116 ev
CRYSTAL
PRIMVEC
9.39676824631698 0.00000000000000 0.00000000000000
0.00000000000000 9.39676824631698 0.00000000000000
0.00000000000000 0.00000000000000 13.75312016837114
PRIMCOORD
 96 1
Ni 4.710440036844817 4.345272236875884 3.3125768340610895 0.8778895475743139 -1.132381709353766 -0.23057138929779644
Ni 4.901476329615677 4.1119410914851695 9.456479729132939 1.7440702913521318 0.9136124548972202 -1.4215202575624937
Ni 2.016565199272609 0.3911686569338597 8.578150671774248 -1.014778936535917 0.14120241451466006 -2.456444044477402
Ni 7.361493802791012 1.8058802646825718 4.6573699103971045 5.77662165674371 -0.16767834931800155 0.8153214950341056
Ni 3.4657253583886587 3.6187141376607874 13.713180850181459 -0.5097191448423996 0.5555086923726884 -0.6947436987483326
Ni 0.39952990107097297 1.8617346534789316 12.77495679380056 0.31948862125549493 -1.102506004840256 1.0000434300979553
Ni 8.866940602029908 6.419138927211784 6.264614716053833 1.3086295455083332 -0.454648686230817 -0.1606198998093234
Ni 2.958215317254306 0.20888827255473036 0.9671689207499127 -0.31900114009611513 -1.2815673991842187 1.006809545177195
Ni 5.098799060156518 5.596846555948014 11.120896350455013 -0.2554028465191795 0.7796227560809154 1.0632717419299815
Ni 6.029191850113645 3.5753480534926854 5.704642519359239 -1.3213953298144339 -0.4211099310434231 1.5275913755916593
Ni 5.867830550582843 7.82377719969978 3.415353044024297 -0.14645723515569617 0.16209622724453374 -0.05506865883936968
Ni 5.112584118764232 8.989051601762192 1.2152520521721561 1.9840287782917831 -1.3735807535687374 -0.2926370482802895
Ni 7.66718006152829 8.503031968968566 10.182245680808409 -0.6154601332256562 1.676666507986177 -0.7565129095363294
Ni 7.264415792923046 1.52736006213814 11.108477581909712 0.9904650423809007 0.1815589639548357 1.2033621543273856
Ni 0.47456027425776526 2.6900879400814715 4.3920314939569005 1.8168664493782514 -1.0873874040312628 0.9922146780821558
Ni 7.373709601148224 5.353338710848945 7.599533668610034 -1.162278239802882 -1.8723909648081174 -0.12906012272517126
Ni 2.259715967188929 4.637568101260064 3.621843261393827 -0.16736184651884725 -0.16592768517548198 -0.5298979337831197
Ni 4.284879209151422 1.2296516594049187 6.81963575570657 -1.0048768469308564 -1.8751430736319576 1.7938903001980526
Ni 8.83546142934017 5.01291260093735 0.03725536595910622 -0.6125028503695451 0.4613471812969151 1.8975108998041965
Ni 7.135332391359184 5.0472483910890835 12.345543291240661 -1.1819538638549387 -0.6738288029725363 -1.3338916625092319
Ni 1.4913516472882662 6.687172336704948 4.333181415532635 -1.6880541809978282 -1.28232176085174 0.6578298564411187
Ni 4.359949988440473 0.34269636905244283 3.2987269377544015 0.3659582255719439 0.12075648795548237 -0.30894092764663567
Ni 6.6059184840935545 2.5965149246652284 1.3309873448387717 2.4029825822241517 -1.1663629513952172 -0.8349940337623685
Ni 1.3868501907263018 8.089010372338752 12.55500288728779 0.13236373317710753 2.428439588844676 -1.970049947514188
P 4.01351934379791 7.663111260998543 10.194431409508127 -0.3853307165612848 -0.36251757532151113 0.9483933100218311
P 2.4007990414467595 9.149614176015792 3.442048322141992 -1.4879624483461278 -0.6956698101070278 -0.7636466923676333
P 3.2648882366281278 3.229453024624246 4.780763568956895 0.8905635434975566 0.4775456454336486 1.1557327253748806
P 6.5334506095313865 8.862091869758892 13.20225226486068 -1.168430375447207 0.4816018177808932 0.35818115272968637
P 0.3475770503345474 0.06711171682092885 0.8308575252657685 0.8657891647663539 0.7917084836008559 0.26428806482395134
P 4.107731339435914 5.5049649587658465 7.454603557546478 -0.8742069565164041 -0.5132803798310968 0.3859799201095095
P 3.707635752933323 2.502481467618598 9.35337275293729 -1.6327191558709493 -3.235506814289789 -0.17939898018903944
P 7.6470333910068575 7.212254333937751 11.736073619279443 -0.23794402761278377 -2.242676614110821 0.895607019458735
Ni 6.005549581908457 4.427898017610472 0.6528113245326082 -1.942654071999738 2.85694118436648 -1.3502387364086876
Ni 8.619664652976038 9.129458108726393 12.618541952927634 -0.3824847624720574 -0.7956957503833779 -1.301735132381345
Ni 8.438241253835505 3.394666999021554 6.474734904889049 0.2917489892483814 -0.34153711641510215 -0.26225637910590316
Ni 6.9979986275202215 5.505209274732991 2.508500097501517 -0.6291258036382069 0.6153403198183404 -1.2442385808267733
Ni 3.660125694091736 2.919735552429089 2.231746487334897 -1.6299667899367927 -2.817598163792483 -1.2755777572596871
Ni 0.21521229739657932 5.371427489185587 2.565657818014911 -1.2150249353772946 1.1895905544645897 0.36854475535219755
Ni 8.777567941894953 1.1832504191834476 2.937969040992422 -0.048824220591554626 -1.364805835589585 -1.017136638134816
Ni 1.2540644625834083 3.2075115714211 9.37105934960494 1.3411061779798 0.8893705516307199 -1.8103664434762048
Ni 2.120033011358194 7.213626262060946 0.718020195840202 1.7250790949616095 -1.5776852069242568 1.463753455200092
Ni 7.2285201392887775 5.216230469441192 4.845939551576604 -0.9397045239985816 -2.316080066703637 2.473450092117095
Ni 4.604961316414275 1.587818867238372 11.45922322240276 0.05629558926793531 -0.1466690940561861 -0.6657473115159824
Ni 3.5810330981127723 7.299334182688739 2.623614263805508 -0.05885717934752444 -0.3083367184037335 0.3087046432661135
Ni 8.115490464470001 6.836872247188596 4.026308345001114 2.720821840801682 4.621623495542009 -1.5822332313062557
Ni 6.4575905017331 6.749228592359585 13.70413082295236 -0.6152490456561146 0.5511714984499153 0.22993169883126854
Ni 6.815795296638422 1.3579927162993806 7.372772743381906 0.6449306318809473 -1.2029664615508637 -1.9861370828840375
Ni 7.7097850074910586 0.7343564769509812 0.7487899125484255 -0.4061671936906618 0.47744537241035834 0.35744247479144886
Ni 5.2175554137245514 8.568113983908603 5.654581238014588 -0.012356721793140011 0.6597728391001024 -0.16545434508348925
Ni 4.508935744558623 8.369785799195284 12.400445787441956 0.8103736641105269 2.183062244882298 -0.29331119152917867
Ni 5.911713456989134 6.822429414823185 8.847505266843584 -0.4145955269636731 0.7605153458275031 1.064759896439734
Ni 2.880165762519689 3.6237695988270797 10.971908714983268 1.315229053102722 0.6542287693534217 1.2472683687920327
Ni 8.866273431504245 4.805610502815464 10.863011450366303 0.1648547638262774 1.16976374954665 -1.677066571638073
Ni 1.5312691176124478 1.6189033756734927 1.915452217239576 -1.1970948332614353 0.3495378752323916 0.7726802633248112
Ni 3.4196154179741676 6.928725654066863 5.2471862421551645 1.7999437054809837 -0.18475124563988826 0.8159773834505496
Ni 0.6852019837151538 7.993379464737716 2.7431007462445844 -0.15377690874556096 1.1618576073256957 -0.31266208525196476
P 8.882435872407633 1.005613917533652 6.374956263907341 -0.03575041812673198 0.5467232328705746 -0.12772880550825744
P 5.713732952690598 2.128001470594283 2.9889934910537 -1.769333951014927 -0.24045393851883107 1.950939194826666
P 2.7342527495267763 0.6424899145975608 12.731785222729378 0.5661319764144895 0.5689596756712717 -1.2063191800731805
P 0.04914415679106354 4.69656101055743 4.7250905377823 0.2920179266390519 1.4930581177014801 0.3677289443191215
P 5.20243601406551 3.4229042867626474 12.33543424826167 0.8299909241208222 1.4781891710094477 -0.051653205399917496
P 8.960090762887631 2.926886492852041 1.0083963005287062 -0.9909689786005125 -0.2785479171770751 0.15604667861634416
P 9.273576339037591 2.6736999767468737 10.80068268844062 -0.6290746386852972 -0.3784183057121676 2.0596395229485625
P 3.976373920024018 5.536810605406301 0.9091551546747166 -0.13951705639243714 0.5967419879908626 0.10704633745824145
Ni 0.9522214819446688 4.05498728083666 12.389525803387405 1.7460726664941413 -1.6879572504086477 0.05534839486331758
Ni 5.934791919116298 0.6999915568185506 9.490546771720814 -1.0995579779555258 0.6729199180050217 0.5951129370278719
Ni 4.739316304807672 1.5938421955052742 0.14410507483604543 0.26019152615707447 0.5401602349410761 -0.4647960590774641
Ni 3.7640445510397407 7.782168311141523 7.871652792815286 0.7912102038081987 0.403022477414093 0.4278364511339793
Ni 0.5455838655833921 8.560004573153007 5.328825362253208 -0.8195902976127885 1.080025821459869 -0.04893632068938669
Ni 9.309171296096913 7.463956160704119 0.6656444905452576 -0.7566440357975549 -2.360764554095205 -1.7350958557676632
Ni 7.6242180383827725 8.343080184632825 7.3270020262910265 1.290198335386339 -0.040436253638175525 -0.5664402516835277
Ni 8.478045962944083 6.725680291834067 8.960597248681058 0.5622544957369543 -0.17794270735848708 0.502661723774986
Ni 7.959833003095219 3.4556050392881072 3.364646204720307 -0.05122511672356339 1.211957095085248 -2.2278783727557245
Ni 3.239028331182707 6.611753877001115 12.430853728583447 -0.46649607248770625 -2.586052069286243 -0.2732936107566713
Ni 1.3733752254615004 3.944941731174115 1.2833898960550905 1.4543753564193016 -0.042238854064553064 -0.7745129456581757
Ni 8.50040087393778 2.220803951037225 8.90810220443293 -0.6477254210172652 -0.735875692901952 -1.043091410327365
Ni 2.6528391518599426 0.42386001269135226 10.584098462920846 3.6356365435371187 -0.5347354643810791 2.2030669701389995
Ni 1.282527272755712 2.1256710721384455 6.994548134322708 -0.2270433215398799 -0.39188034475434447 -0.05940662409309124
Ni 2.648347496771675 1.264288146131598 4.970308594651379 -0.6043573384442753 -1.0579600999090812 0.5040701740867384
Ni 5.545934867102343 1.329558096430978 5.040587022277216 -5.161045052544847 -0.3613520942585003 0.4081502855589616
Ni 1.6540660814063288 4.495977601532011 6.816775379537389 -0.5727697934459813 0.5888469015135019 -0.7489096432677748
Ni 7.481950971361089 7.95767174646279 1.7732856956351404 -0.47226639931258024 0.572977024360781 0.9691871068387309
Ni 3.0604991365760386 5.773627951712805 9.371266078500215 0.548433787803778 -0.9190536805174494 0.2845529857205744
Ni 3.7253392637833134 3.356422153395513 7.225449275517133 -0.21313082522384583 0.8445639368389907 -0.4974138451124853
Ni 1.6810629957757672 7.022853078793164 7.194779164549361 -0.14347321282670777 0.5188684154418355 -2.0663382751249766
Ni 0.5228897312660824 0.29909254665477325 10.614974363107097 -2.283716562771267 0.959535956902212 0.5360891501954961
Ni 5.611655862264142 6.507233626903217 6.508773757173022 1.1965358754341715 -0.7723215944338119 -1.4054935431169342
Ni 1.4319828672722164 7.410432170363596 9.659393536614195 0.029199504382091648 1.939220363727841 0.9708750360641151
P 1.0606507875168754 6.061563715760257 12.567477096764097 -0.21200211093604135 0.5702645105256243 0.5295253809350494
P 5.321446080368655 5.934613380524924 4.185748005482647 0.23574213486545853 3.578435925956411 2.3888191462395763
P 2.3456588070158984 9.015484710053606 6.57011303943177 0.7902879491042454 1.0827506765901997 -0.48653679318866533
P 5.675243791097413 8.935311485758426 7.81025900930233 -1.1330206284893456 -0.9301166231998304 -0.676889444175731
P 0.8932370297384729 5.678683008173367 8.510815311875701 -1.0625420628528088 -2.5490284408740425 1.3870885582471855
P 9.317478038979818 9.000027026747748 8.709314517766023 0.1346730980365745 -0.7723002542775732 -0.11382350828107494
P 6.585574481444812 3.2486224312771017 7.999763628894555 -0.18298746887124612 2.725884342926254 0.6766289914254927
P 7.518053353890634 8.975200765778707 4.344211341772399 0.396904023221181 -0.3049456904443135 -0.5122367690579307
