# total energy = -340861.14539496286 ev
CRYSTAL
PRIMVEC
9.28099002276875 0.00000000000000 0.00000000000000

0.00000000000000 9.28099002276875 0.00000000000000

0.00000000000000 0.00000000000000 13.58366703516994

PRIMCOORD
 96 1
Ni 1.5737403189444528 8.99210972587068 0.7732261763454189 1.368544476696411 0.574610703309462 -0.8021075674469927
Ni 5.150058372218208 5.293124830214084 10.945283823316569 0.12172090875128071 0.43972703192397816 -0.2704926509727664
Ni 7.677401832658624 1.8606899620399118 5.1241254304775605 -0.601793434371841 -1.832545293566089 -0.6364645033914651
Ni 8.883679921863816 5.372384483232883 6.168913368805421 -1.1717771804322528 -1.2678783317329003 0.11687797883668258
Ni 2.0673590432369386 1.9292300718225615 4.755872460406073 1.8526394932128027 -1.006395340457912 0.6589413443377427
Ni 7.096300498371385 2.4978484748088308 7.390982134081594 2.708189753859968 -0.15601813937125386 1.0912008642400821
Ni 4.721564353456508 0.45557130654651806 5.462983649607463 0.4343919928643099 0.05635960973665133 -1.0129753076682748
Ni 9.040556492704185 3.3202648252719236 8.916876166233562 -0.6736274855950076 -1.5931701899337336 -1.4107234240573059
Ni 4.057426003295826 7.297948564078579 9.95051113910092 2.0944774565633537 1.5413892007067003 1.3426172153076879
Ni 1.5219895197368625 2.1358527480705143 10.225430763198375 -0.1583449877322176 -0.8326730989386755 0.5625542863655603
Ni 4.0449059480355976 4.718371692960201 5.050583795283689 1.423430072990697 0.9052928792879311 -2.1356606156698827
Ni 4.319400502799531 8.531382829482014 7.868284878279577 -0.42534993726669973 1.1427774507657933 0.9979713780602748
Ni 4.910070537585878 7.427279157148481 6.017157120045903 0.07730561586069912 -1.7326211689749258 -2.19675774009152
Ni 1.9747440458745742 7.2250463890829515 9.228050120844756 -1.5990315338105172 1.0008579555794506 -0.6123290437958422
Ni 3.4298176290463855 5.033479859153907 9.060890213289534 2.304559210548231 1.082855320488864 1.806981843274688
Ni 4.221764489947333 5.11156082646622 2.472254289196426 -1.3648834829050558 -0.18173739851422896 0.5034466815701265
Ni 7.649586706183526 9.38308070281095 2.041339788291013 0.7373160248929044 -0.4810662569923973 -0.20542342927725912
Ni 8.261111125083836 7.340316282583359 3.136522573214515 -1.8765001018804846 -0.3610487040854686 0.3545587254857506
Ni 5.9941829578582295 4.881902733497816 6.503452215275493 0.2312020809032599 0.5922615836220058 0.3748946088296253
Ni 3.6155952021701907 3.89245640933691 7.069483078301383 0.8954794927419353 0.8631998067726231 -0.08491196745304731
Ni 6.225901430565529 3.741946597509526 3.4287345375349925 -1.6641583482168372 0.7680317088092062 0.07805046444652364
Ni 3.7916370169782203 1.6827362633300234 11.570064279969424 -1.0581753012436808 0.07605477417273354 -0.15168017411753232
Ni 6.113415834009577 1.541813713981377 2.8795198999546248 -2.018073012360686 0.1600077201466212 0.7409055420163756
Ni 0.014720577945329822 4.022251051897554 11.551088368193986 1.0530323235901606 -0.20636933813029623 0.47112200129549187
P 0.47002644818314326 0.8493971159538363 4.00328349301295 -1.2082927588597836 0.9168903543175435 0.834851337536917
P 6.609930227124295 4.4616502336917 0.687519947801227 -0.10139633826131568 -0.40502819499021214 0.5992925223268583
P 4.168426641481404 0.9592181403339468 1.0271030122356684 -1.5346238569584085 0.15730086273841942 1.0269369120546894
P 2.3384103507795637 6.882345840169703 13.530921180784041 1.6863060879584701 2.2942891960807907 0.950428595284305
P 2.5250324939765196 3.5186831065235515 1.9250499140099542 -0.6868735519716364 1.0422704570879662 0.5316514261391166
P 8.6118211682073 0.9961843227664849 9.183020614461078 -0.4420451385341936 0.756713969803542 -0.5433766849958448
P 7.509295264142289 2.5087814808107214 12.833332287132686 0.12173582114961615 0.963978823164914 -0.07933627313748272
P 7.975442258582826 3.8049645183523415 4.579231093656005 1.3461452830656044 1.9058181341183111 0.29155821339381405
Ni 0.8295237324633031 6.0211627952499915 4.360139407591804 0.1359033708992498 0.8983822682110271 1.2817867142838764
Ni 3.6127459382970324 4.918683296134056 13.674269780870288 -2.7363561889918553 0.4532366363746388 -1.116372478409703
Ni 7.404809880806734 3.7538633884317902 10.526812345455921 -1.356182355586632 1.2378684156343713 -0.5099160913445541
Ni 4.663149803561857 3.258369904196705 1.174780265971561 1.3064325378570145 -2.025600173975666 0.3212750237319564
Ni 5.95761585798773 6.568722632346372 2.5820242681325545 0.6162867428920096 0.05020156055505548 -0.4260981282866339
Ni 6.091401326168758 1.2477826756571893 13.88536032561511 1.083104974605825 2.487141473561259 0.23996131515312866
Ni 5.401294766506133 6.307156496394521 0.13129537861370494 0.1772665072270689 -1.693838134669457 -0.9209311000458205
Ni 1.8698502989871664 4.112582925765466 4.863673013303492 -0.0504553284370744 0.20886330819674354 1.6583561397127633
Ni 0.34108008809157625 1.7403897720598567 6.439351202921285 0.442547789202225 0.32141026375824 0.9782445890553088
Ni 5.478336262959183 3.6915972277639773 8.730629903124107 1.5447450045528106 0.6966437439845228 0.2844164601427102
Ni 2.716954082357754 8.471696783982729 4.6613706378143505 0.07151934819622521 -1.2881375962025685 0.5251627330909794
Ni 1.4836961557608013 5.491886508088861 7.663293800041075 1.6192830849707016 0.082569949583432 -3.2221357922995217
Ni 2.4302179020280366 2.243799940607007 0.2544058523096957 0.7983720116639605 -0.9971123724940891 -1.0209197593263322
Ni 7.705940876339281 5.9128629251005345 12.84747280321459 -0.4958747827601395 -0.652352121155999 -0.16244589727446862
Ni 2.5699246417109376 6.313467569468617 11.394917152579547 -0.038140001404831085 -1.0073569330402328 0.8181011146617716
Ni 9.250910126857706 8.621640455431407 5.472194103899716 -3.0569470421725935 2.155605434222926 -0.9595547259552893
Ni 1.9131832404326898 -0.15654245520703494 6.927521058093474 0.041735432065573286 -0.9622021908804655 -0.3555074625522652
Ni 0.1771926575450709 3.117493759797133 0.3390670414007358 0.09823593825546308 1.1048804186097037 -1.1813244578010558
Ni 6.205947302463607 1.947903423330035 10.803756153431994 -0.9360106200867623 -1.7235935115550187 -0.15288447883827863
Ni 2.9790028297799767 0.6667156810322646 2.889314128506234 0.6891037268537358 1.1573648616616647 -0.9152746730909915
Ni 3.618360937135015 2.7289172782290922 9.338974654913851 -1.1267340241496853 -1.5964267491978184 0.5885982758378057
Ni 6.82764368620099 8.907782652412974 9.269942652671014 -0.39698192764696794 -0.10628400537092018 1.55188572936265
Ni 3.1912219428862825 8.760057137530046 12.13157251665854 -0.040559923700233376 -1.5783007290210689 0.5695713411133417
Ni 9.200681409979751 8.556729212666363 8.060425498020441 -0.08229072778011634 1.539193478606962 -0.30698303258931653
P 5.186337761404447 -0.017420417882468998 11.087246771623459 -0.5002659698492997 0.2474823061205222 -0.504073516520848
P 5.3156312305150895 1.4310265385615408 8.019701442811872 1.6600121872589475 -0.2649827768981307 1.3844079260912288
P 1.5051073992636548 0.8033105048302476 12.078772965601871 -1.0638528112444323 0.39330550723664526 0.8661306072661729
P 4.339892928310714 2.4712584389892926 4.240576128203048 -0.20751656436086197 -0.3528006051440633 -0.5646782746870985
P 1.0569562440741072 7.169332607224422 6.1805275994597215 1.810509139701656 -2.1185404110498287 2.0158556929943927
P 2.865060117823092 4.004320179575268 11.594311793959696 0.37370238829373703 -0.3916358328437061 -0.4009848781587739
P 0.3766680435366095 6.155727866575467 10.740224993852415 -0.17754495769943615 -0.6021436186224081 0.5410040709986103
P 0.7287971500027619 6.111160553484569 2.3903588350702103 -0.3505609171802672 0.3737039309556338 -3.1984114520993887
Ni 8.603421872424862 1.5087177043016304 11.279157222816913 1.458341283045585 -0.1928401932956098 -0.8661614605041082
Ni 8.035044775173779 4.944178175155443 2.41028604830167 -2.0309066737902444 1.5518492196977596 -1.2916247834202208
Ni 0.9349483519681202 8.362097575259194 2.9910142867983525 1.5041580842693836 -0.46374730609797554 -0.7859571829393754
Ni 7.099502439857508 7.1303710119816905 6.856749798359335 1.3177150527493693 -1.2724952616796215 -1.3150539609774385
Ni 7.79339564336459 2.556671388255335 1.783467486285472 -0.4364028526467517 0.6767876284905441 -0.20879388841138877
Ni 0.44862355757112315 3.828733133268166 3.024090806399488 2.167390599783312 -0.7095617375977715 0.29867528405456945
Ni -0.10400462806314548 7.6396467660918255 13.560289016855165 -1.1336981141723443 0.2088229418771113 0.3876277401255776
Ni 6.976585010749666 5.867033397394818 4.623417886164494 -0.1238623805743157 0.14268979769346393 0.08219354008061973
Ni 3.412842698675029 7.81441708529522 1.805920984944533 -0.25922607692001165 -1.4023624536871204 0.019747357830256315
Ni 7.4722919577504925 6.181538299250559 10.297723177163167 -0.25280166145090655 0.5366005426142759 0.30340174299596134
Ni 5.7611465845972205 6.422101555251409 8.553553257951723 -0.3007247103844305 -0.6698950151357689 0.3625836526727562
Ni 0.8762488756861536 5.572426937702108 13.063820100590538 -0.834793487715788 -1.4578800271384504 -0.006335198189408445
Ni 3.4943019462799465 1.4361682069189663 7.172746155278323 -2.2580047598274597 1.4058648104134241 -0.26945521084718754
Ni 8.830082205683071 0.6719492311888571 -0.03112194314612855 2.147455294311966 1.9166612474804021 1.1706780338308032
Ni 1.412390311013327 4.589802141055116 9.633794577372301 -0.1938066709739372 -0.3950276321340745 2.903531116310877
Ni 0.7928758879814143 1.7047414901810272 2.1229373226441726 0.39896501951526775 -0.9075863033077982 -0.3740037215842398
Ni 6.791058024350861 -0.034219009447343206 7.040957956105449 -0.14939626317936205 2.5856638327088888 -1.7202302515097405
Ni 5.360551221218952 2.691013715825255 6.09780335294304 -0.47464672661929863 -0.27731147366681275 -1.4174548292438685
Ni 5.1995446099109754 8.763156988128204 3.201588808509467 0.1151746229923307 -1.0632102925644271 0.5636855717565259
Ni 9.215753737439064 8.204014475742895 10.626828932195627 -0.31868540862790923 1.1307346606686461 0.19818603098855544
Ni 5.182959481111842 8.493256523322621 0.33961461979981183 -2.769171692859979 0.8662452784671661 -1.0345401783232442
Ni 8.803612822731125 6.441870063557034 8.262849454476157 -0.5570678093296921 -1.3136470533275826 1.9069028825420582
Ni 7.213027507272724 9.203502830883464 12.385234033585084 -2.2089439977450667 -2.574109809322702 -1.9170597684704018
Ni 4.98123716748613 3.419998341822277 12.285244361715842 1.0839979187337396 0.6570796085386554 0.8325288600513275
P 1.8000386935998827 3.215361797394701 7.517418914527226 -2.7235055582814325 -1.3403746991304142 0.4898923399244595
P 6.909075090836464 8.465998256236412 4.825489165007245 -0.5745137727202815 -0.331851513696222 0.16318740342618346
P 6.020837960606471 7.300389464399884 11.649529042863131 0.20887076439591126 -1.6904095686038823 -0.08708172141085649
P 7.357755262445457 4.68944284770732 8.151952763376507 0.694600745412565 0.30306235737867165 0.7986196088983923
P 6.926495508718933 7.681865988759566 0.7939914629571589 4.397624617255407 -0.5972063292217908 1.1914800581778189
P 4.030000678392952 6.729831334542312 3.9276081582606452 0.08243908043252254 0.775634975077761 0.023448975051559618
P 3.729278046412259 6.3787778947957 7.567324652959624 0.15470199166299164 0.7017478979803075 -0.8032673920830489
P 2.2784922805349073 0.21610970403668997 9.047224883886152 0.14470811367507336 -0.030610782907321474 -0.4982157721884904
