# total energy = -340856.4766451782 ev
CRYSTAL
PRIMVEC
9.34553193725025 0.00000000000000 0.00000000000000
0.00000000000000 9.34553193725025 0.00000000000000
0.00000000000000 0.00000000000000 13.67813065101336
PRIMCOORD
 96 1
Ni 8.19721842149473 4.931655912381687 10.954746598003078 3.629133966531911 -2.3186439707760713 -3.120788562108587
Ni 5.794809245261935 4.326158895953458 2.307993135831944 -1.0114491008317354 -0.1116198157615368 -0.10344987835623473
Ni 2.528396292739493 7.37436302247524 2.9248767484141505 0.7280299716052882 0.33886214068610027 1.1511736452492884
Ni 1.7106996273682264 4.201667064562187 3.7310251399283345 1.8444865250883653 0.5783987095969845 -0.7581116214820169
Ni 0.6459127039918274 7.328925046030203 11.487030716967212 0.5861971225954807 -1.3568151040746246 -0.6146821174090511
Ni 8.006597605873699 7.246581563830031 1.6645738197700914 0.6043401120530947 -0.09740804303752901 1.3409369993917875
Ni 0.6058185027280463 2.5255926331480674 1.8486265955216092 -0.6387885235389514 -0.3035482958761546 -0.8519813123489844
Ni 9.24994587041521 3.059493529143257 4.179777025025532 -1.9370508668803479 -1.2568377576480227 -0.8522813600879063
Ni 5.955374830062883 2.6936626801220642 11.597577145550732 -1.3409683668503551 1.7659179833548426 -0.5938651806636999
Ni 2.7042231312497678 6.056923380464321 9.318992529726447 2.751306125433468 1.0961944607999314 0.5335399014110811
Ni 3.6831676052558957 7.65014032541984 6.178397539582019 0.9131792240145435 0.8317719272806451 0.7401450097012672
Ni 4.2335820562445825 5.512219049510171 -0.17754454728662164 -0.7230368892660709 -0.08670222658425068 -0.08968624891323909
Ni 9.34446658077414 0.1859723480184472 11.619913901515618 0.8232314939098017 1.2142368922583604 -0.10609348662666888
Ni 4.026522449885825 3.08085741522992 6.886309437225437 -1.7433668375272038 0.8224758466906996 -1.086221922968252
Ni 2.3695315947573437 3.2083024347241595 12.726351991782238 1.7777640840601512 -1.1309532044373554 1.3464859542344745
Ni 5.805042602770638 8.206825628361349 2.3084856453668383 -0.17615553355107727 0.4631279273464217 0.7150397299932073
Ni 7.542311577533609 1.4784257757505816 7.924698970995367 0.379014801645586 -1.584781451649406 3.4688593658771487
Ni 0.09896357625814312 5.470706196493128 5.1398995976412225 0.4333321841412279 2.4160293881057813 -2.587183097566893
Ni 5.165873634649388 1.4475668291809565 2.3782163976183828 -0.016068366316772328 -0.5151480291674547 0.3232370325543336
Ni 7.105062173186834 0.46097864457540494 5.826884045541043 -2.706496939538577 -1.701821667095566 -0.6013720305637064
Ni 1.82855613105979 1.3152154054017222 4.700394181876547 0.5839088407819363 -0.10849901074436799 2.108087848257937
Ni 8.561488566676696 2.0766613138370182 13.177072980465812 0.03446332388419226 -1.8192254365287313 0.3665711765655945
Ni 2.916086341041834 2.5365923242784274 10.519207426007071 -0.46812820877449063 0.9683610113930097 -0.22443853692718124
Ni 3.279468660686514 7.489163537212151 11.16618271698405 0.6516736070317357 -1.323538601409682 -0.9515719648601291
P 8.308374178762786 5.894591490120775 12.71813072730698 0.42028280715643745 2.16191106472598 2.9997811344845626
P 1.399876579530806 9.300785564339728 6.639186469858405 -0.827083263555724 -0.6194815956802235 0.24574732570728647
P 0.7181882445991896 5.873975246591825 9.493019418779026 -3.561481043269628 0.6871386327075649 -0.292775887850999
P 0.5249263816430358 6.356101895465353 2.693606606930236 -1.341888050451147 -1.269251557931343 1.0667920963784143
P 8.12733253341246 4.284720807192186 6.771290237040397 1.2522773919708496 2.028157136069565 0.1362054755207009
P 0.8069950967107947 0.29095351231298694 0.2429071978947253 -0.8270801782319304 0.9139091602020324 -0.3135293183482665
P 5.32304679134471 7.742576982149144 11.832855585697187 0.970758822201225 -0.4179243342265899 -0.3463085696618165
P 9.437585461337358 1.0598767808786154 3.52029928137719 -3.0455668253601096 0.9162298379154092 0.6706545190096127
Ni 4.64766388683421 0.15197143360003101 4.791818717493346 1.2677374352796618 -0.4008378110579484 -2.3680232925401477
Ni 3.913749915586714 5.125089733126115 11.205083493815081 0.012282674022094976 -0.8240897281450389 0.7079915648971742
Ni 2.5897964377917146 8.310860090267184 13.208040335206306 -0.7517779659545053 -1.8906779360427632 -2.3343636955041736
Ni 1.6248328796148297 4.511854616225551 10.997600534858018 -1.0809089953957707 1.3252797524705047 -1.2069357306112567
Ni 6.333738037457748 5.489640244267223 11.879715952108276 -4.554563468668717 0.7346914427858637 0.422703243672472
Ni 7.1957512154374825 5.867779158894774 5.628892408854153 0.8441841849020687 0.4038069209886013 1.5757751343857378
Ni 5.846069488125167 7.69519513505405 7.750029109343154 0.08378402449619118 0.11825480457955118 0.8219279446070298
Ni 4.242077144806602 2.891320681317574 0.663285113373498 3.344481479118995 0.20204885637807138 -1.402273750628056
Ni 7.965449228603541 2.421305841879004 6.042095759438467 1.0086957064563145 0.594067526482493 -2.532892711654444
Ni 1.0303168632530175 7.628299817202634 0.9490612009743189 -2.529820243376708 1.4024113046471849 0.1111233357410925
Ni 7.348924484449038 2.5923477680199123 1.9932047787790506 0.7419373257149997 1.5448211092063846 -0.8698301676049472
Ni 9.272823732681243 8.307439625565644 3.4051025160846926 -1.4622588729324364 -0.2142456555545794 -0.784104703111669
Ni 4.9310951804634024 8.399222095056949 13.928577111989913 0.6212116909974527 -0.5070431406721332 -1.6567026632697404
Ni 8.52350832474485 8.337485510853757 6.864506311136118 0.7672963733050786 -0.2236525506907761 0.2067318636760375
Ni 1.6986065089972104 0.503599877684258 2.484468554261036 1.4443832782035964 -1.1545852420339986 -2.3058018247060805
Ni 2.879208871882615 0.23096267348205485 10.590155901074493 -0.5249436751016379 0.8614658548006519 0.16712967590338312
Ni 9.117267353016976 4.679102256386063 1.3407903881947072 -0.9348158284477127 0.9684862241169643 1.9244056673125116
Ni 4.387998281008336 1.8020989300487031 8.841831161989333 -0.3209155835100086 -0.8827738722498086 1.4563383936829435
Ni 0.8393876450769298 1.2438248866720532 9.405328423184809 -1.785030021593945 -0.014132325636324047 4.117841285009334
Ni 7.2759545708162 0.493431004346157 3.4389828731406777 -0.26036173318635164 -0.012607147241049256 1.1876208323327289
Ni 4.605786558070283 5.544339642895938 7.4672604139307355 -0.27581586295789273 1.4114525889138465 -2.1330126365240747
Ni 1.6406548652424418 1.8482097847956838 7.659287732113465 0.6455947478275075 -1.6259890362359672 -5.573339442179169
Ni 5.994588682214957 6.403268795325104 3.8205478597889506 -0.30251111286089194 0.33001574603906386 -0.6196996252283005
Ni 7.554171057605339 7.252216919608795 11.01516265853871 -0.30689664352309726 2.3720817788802373 -1.0541749218350362
P 7.822331751993233 9.394782924908261 9.974954484247142 0.2648364811282536 -1.7337817649419303 -1.8631457920607655
P 5.521228142330618 1.509695925726949 7.169720170684292 1.9943203900257784 -0.6655444514765569 -1.1502261937343545
P 6.3311493251016655 1.7158583610164495 13.59063146126504 0.545528441231525 0.7626033387047834 2.0170026621146424
P 6.7873795048823915 3.8094350877217362 9.732947261081264 -0.936166428938336 0.10805266723556875 -0.5243214681366067
P 0.5429071851560456 2.6221506694767673 11.538624595321822 1.2463368581166987 -1.0964618555287051 -1.2033557265694823
P 3.555788004485456 8.99385960333439 1.9958168549650623 3.3452006166732065 -0.9941998268329847 1.899532815330232
P 2.7454462727756965 5.961141023289248 5.49417656548615 -0.8750137686884156 -1.354712455909325 -2.0605525216811356
P 2.160920630091331 6.189050511476241 12.58884557256757 0.8446654954138615 -1.2529728753759777 0.9571679708906677
Ni 3.236899762556701 0.7393708273656078 0.360619780393929 -0.3295130953710325 4.876862048569182 -0.5571410857697888
Ni 6.798136212181495 0.628494501503497 11.72133722178864 -0.9908239683822162 -2.7771410842187008 1.303418433621039
Ni 1.3752137206582313 8.020513102979141 4.9903841698432805 1.2657157768639429 -0.9637438243359723 1.4523560119964278
Ni 6.256086012307229 3.5773481467435198 7.431683842821938 -0.020822078951673817 0.7146710337998788 1.4244947668097854
Ni 5.061203676569496 8.982448708797287 9.807589090383788 0.6124509140856872 -0.4804846734573144 0.3793333613272693
Ni 5.574264036268421 4.2894776829656385 5.166462403163586 -0.7423705565976763 -1.3261485282287033 -0.8231453619538984
Ni 4.458407518881007 4.161920517087743 9.0882560181181 0.1070260257432673 -1.1962538254173785 2.1980546045260727
Ni 7.671270573207218 6.021120647481815 8.824432585118142 -2.1088092998049937 -0.44368421679951325 1.4181181738594804
Ni 9.191779279425099 6.093576556856226 7.362431581807329 1.1135517211314563 0.630305939989237 -0.5009732803289695
Ni 6.380390933059071 6.16098587896607 0.6370839799384281 1.127604856790413 -0.12681092167967836 -1.2747611748956624
Ni 0.8790715774871658 3.7168115203530037 6.070641686845167 1.168698541506929 -2.4415596711664014 1.7267441413688585
Ni 7.817406656644295 4.679943354263491 3.333853114887792 -0.02282136876988973 0.9288536973270067 0.9393697663669821
Ni 7.884330011091627 0.5654626265690652 1.2685559679280192 0.7062969508035708 -2.3881560587342805 -1.330951091823669
Ni 1.9452724798508405 5.308505143597182 7.363731545304554 1.2792824598047838 -0.8067499513150107 -0.6663633478334265
Ni 9.34768144377231 3.6196647155101047 8.562468912980497 -0.7641048629509745 0.6741964707246002 0.4416874980844587
Ni 3.9420014587363132 5.249394653877958 3.6093304262561094 -1.0591428073632725 0.07424420332655601 0.5335481289411973
Ni 1.6136649689089841 8.623926065777745 8.741747991001015 -0.5542485947133422 -1.823753920526704 -0.5227600371867578
Ni 8.335962189142416 8.066764140705695 13.206345055706691 0.03971814452522837 0.003743011982200005 0.10830000735968445
Ni 7.294449378587638 4.023681408166514 13.284091470730122 -0.9979587796547845 -1.0545438751386806 1.788067008648056
Ni 2.0640168090796887 5.767202543818364 1.3154686693181477 2.266568847347387 -3.76668772855039 -1.1468151111702765
Ni 5.394960659864779 6.4294643214409914 9.821226090636483 -0.40674492057100275 0.3766858964020932 -0.3681182093377402
Ni 0.2895956065175398 4.10130539672112 13.032837778231723 0.5412077023689841 1.8401161639348116 -0.8191771213347699
Ni 8.200545430876556 2.0519423817726157 10.359515648445452 -1.154661860908205 2.628719526247782 -0.03817471129750845
Ni 3.679317246083671 0.640179220127362 6.653302895901233 -1.9657706034125435 0.3186167601735029 1.3341405452952444
P 3.506181920781165 2.6240384669349934 4.762998965999885 0.8088747109674972 0.9876458277645508 -0.18431981452942447
P 3.5703203067010127 7.963953943488115 8.425906392494943 1.957088245147197 -0.3046831808115463 0.41338530870565576
P 2.477780891582288 3.410829458076778 1.3041203898452536 -2.2995872112549365 1.2224834485378686 1.1563693305176148
P 4.7040080990898945 6.246525533100467 1.7788136025887158 -1.518180623800721 0.13547039712688924 1.8259313877939976
P 6.084838484462948 7.687728055008886 5.705189331868817 -0.25229746812097836 1.1900852347128212 -1.8371768788008294
P 4.1009689575701485 1.4886124055994283 12.027152933595774 -0.6412614105594763 0.0816870327578464 0.09744635247463217
P 6.6505982989487045 2.5576478078100338 4.031273718340095 -0.14728821569742376 0.5643748845140667 0.28331062867304113
P 2.15762165730542 3.442043534861317 8.605226590856134 2.842873907640136 3.1798861396016913 1.5963509016545605
