# total energy = -340896.7044900242 ev
CRYSTAL
PRIMVEC
9.01999865896812 0.00000000000000 0.00000000000000
0.00000000000000 9.01999865896812 0.00000000000000
0.00000000000000 0.00000000000000 13.20167979284379
PRIMCOORD
 96 1
Ni 6.511852658488375 1.7473992205193827 11.548341134947837 -0.6336910544113861 0.884349958487677 -0.9957725706367432
Ni 4.588734846073583 0.13924893372839914 5.929719089595347 -0.12512427800587483 0.020821564731041558 -0.031173083168694698
Ni 2.612344922179182 1.672406952513714 4.727072759947692 1.2697462381795745 -0.8632460866295262 0.6373247945092314
Ni 3.7082567068980565 4.371352880841853 5.178530903741067 -0.7168245898077719 -0.3767704856960995 -0.6150788386268375
Ni 5.109306022812957 4.7189295052501326 2.6475048765556672 -0.5798364704847756 0.0603335067827348 0.14079515177391236
Ni 7.203181427916625 6.19098424980836 2.6661059175805994 0.3414478991354055 -0.21577854725933804 -1.47917724595433
Ni 5.0270255959729635 4.465611865765985 11.376903434367739 -0.06020829405878019 0.17228833728618714 0.390503776121792
Ni 5.581692367259056 7.90730957529773 12.434543365207848 -0.2637604744552554 0.2184447812375915 -0.5333326704962814
Ni 1.8951828768827303 6.48403498293756 0.12043953073679213 -0.7457947517878769 0.2463191390503564 1.7485545523757304
Ni 2.6435360771904404 1.5442868930053526 0.37090234067754296 0.5818499013703785 -0.1761380500495805 0.38670111454625017
Ni 0.47942645332009787 0.07710475166779604 4.617274121508986 0.6957855097492855 -0.1804032530838377 0.539607961982032
Ni 8.449781308534309 2.299179592267129 1.311787410191531 0.3952533749916354 0.6873882868245258 0.8977436061857635
Ni 6.967570045600523 0.6599436844480081 4.763865334063055 -0.19879641087904473 0.1407378161734157 0.30762066617331535
Ni 0.8323095428796563 7.392330797663902 2.4115110463007348 -0.5869350292027699 0.28067190549861337 -0.15346709081462603
Ni 7.7134878462977525 3.8765608599793375 3.6489177443887844 0.41516142676947204 0.01815893029721389 -0.4656131556621207
Ni 7.585872906708603 3.7717755367387973 12.563378710601805 0.3374506050505543 0.012620259867171814 -0.07065340065150413
Ni 8.001415220246386 8.824408908616029 6.8012277422054614 -0.5207543196106387 0.5252912882490437 0.561034250176608
Ni 6.735341162743421 0.724497108123275 0.45094941587474113 0.3580063177147189 0.005318069778803744 0.46577204983748816
Ni 2.039818553749569 6.639828398019819 9.327528192146675 -0.739540800458365 -1.2382191141055707 -0.7640156456712778
Ni 0.19149907937146343 4.841222645690456 1.2889063798511438 -0.9988800059174734 -0.3419063268290628 0.05546846538094963
Ni 6.381757219295959 1.856676503041475 6.7190348093514745 0.625265292241536 0.9190056008883334 0.9875201008199639
Ni 3.3101320105744816 4.348117364558163 0.4315825769722909 0.41416795250795124 -0.3939739940585796 0.3334052313365871
Ni 6.166540053717987 5.66915027327096 4.74765369065596 -1.4490644857293495 -0.055815564307723234 -0.1429854745570118
Ni 5.2526879198803265 2.7634569580101855 9.434593771022508 -0.44993842523934124 -0.45128311219269374 -0.47211881799112243
P 0.09998758600789474 5.496669860857634 12.400667858625928 0.5500993484316591 -0.38765216560560983 -0.021435029945324376
P 3.985242822596646 6.111518062518254 12.58197975162674 0.06767349208757378 0.4681459493863034 -0.10657762535193903
P 2.351594803883793 8.548090272810683 1.3952061608494601 0.4905407721417358 0.07065082954834284 -1.4834930997208644
P 6.304275431688466 7.574390448545116 5.731747259259142 0.3068367368194393 0.8384945907164593 0.623219722566417
P 4.648357036537557 1.2149577256785586 12.606402299720575 -0.1514361764275263 -1.807188045748223 -0.29007365842848754
P 4.129652999499551 6.097374704780355 8.22459343655106 -1.5154107743650675 0.38147766136378175 -0.2933250754862497
P 4.706788587191961 1.0463288526492136 3.9419558495200038 -0.20349818723008822 0.40043029120688456 -1.2410817803653464
P 0.15959805047374295 5.6017708840476805 3.3693591251016435 0.22505765856841886 -0.6006073844835398 1.760096491577059
Ni 1.4533833475445481 1.2153455856165238 2.5789348475228193 -0.6565479044049015 0.14724630671589478 -0.4699714326308164
Ni 1.7889994538658036 6.371663840910302 4.702028733953256 0.180441819631257 0.9905334337249907 1.0070319456006462
Ni 5.976046704185666 5.711995266418293 9.182758117301331 0.4802242207070762 -0.6662934138274396 0.425622474201796
Ni 8.488107282404417 2.307820750885054 10.187920598534733 0.8635916428944029 0.4247683537316168 0.07595141582564983
Ni 2.237275342168151 5.358276022992469 6.997933164744218 0.21358153960801926 -0.24104272114276548 0.5456744798910861
Ni 0.4956146447309439 0.061817658112827654 9.240014362143716 0.4550999148356226 0.23688730421349524 -0.186898116779562
Ni 1.450722447970135 0.978696903466329 11.450965740522145 -0.5965792371607532 0.9622189030510139 -0.09881135114295886
Ni 3.8999677562356174 6.831250807403546 1.672072310567237 0.7988492084106952 0.4970204663288086 -0.24902959600298402
Ni 5.7791040556848525 7.785828234727565 7.8949079792812515 -0.6669873545706707 0.7124146336655344 0.005255334861668369
Ni 5.586761606448278 2.969356465078432 4.604864407493807 -0.889788613004745 0.6225378660080441 1.018086146532279
Ni 0.7953979047833372 7.463688006250965 7.160248038783429 0.37386128246910455 -0.4564844538879751 -0.7392957743270945
Ni 5.220874384968612 4.413377054120468 7.177700833992014 -0.22468176328623887 -0.05680312503197314 -0.4131752495773788
Ni 8.035140994852256 7.278390175887669 9.188012266460978 0.791214831793889 -0.7653168809812044 -0.6272298721670747
Ni 4.500275720221817 0.38331476069228926 10.482067261488648 0.6421774946158424 -0.3338459184184315 -0.09213856710847358
Ni 8.217128485745011 7.093714725424828 4.790942467732313 0.5493187615118927 0.30504313525412624 -0.16361163544779567
Ni 7.507489119245376 6.0356237946568525 6.959358238913927 -0.5398815273583928 0.6451576602900889 0.7788123443644781
Ni 2.245555700843783 5.345188005085779 2.5723601705743793 0.40697554852457 -0.9204168794135632 -0.4606928355423679
Ni 2.2973755925556625 5.142914537437581 11.405604167777318 0.09104302005144965 -0.4989624205465278 -0.7982881937009026
Ni 1.2575862388605155 3.32400476835566 3.776010426061465 -1.1760508681069424 1.1494823735897943 0.5218606653009399
Ni 3.6875828702046487 2.7784481956124734 2.600810148024064 0.10221214929439172 -0.5191885177854155 0.30784795169277307
Ni 1.1701102928514977 3.3775745397876626 8.173754018682363 -1.1854140544893972 -0.3395581383118603 -0.23202149148076168
Ni 3.641328317602644 2.504673199400295 7.062040098490897 0.07434499057047841 0.7205753150994558 -0.5155910302421444
Ni 4.143110837347092 6.631629219331204 6.073657520573704 0.24002482140121245 0.95620483564645 -0.17173066501050424
Ni 0.7063434590267861 7.274195876558508 11.32028219742379 0.07506901322069652 0.319580666748669 -0.31632616436711325
P 0.36304321593453853 5.5701106891114405 8.207563679274816 -0.610119180628717 0.29397659302731954 -0.6324381558408915
P 8.563207790392774 1.6539881154596396 8.016931421764712 -0.5155378084067057 -0.2611718877924728 -0.6572364458314939
P 1.673787012292986 3.242689481361301 10.335093600995748 0.48578937349967954 -0.7068011441334989 0.13661402381302923
P 3.829259987544682 6.199697568414744 3.9029840437531895 0.9242331678358598 -0.32737985107811357 -0.9677645154595913
P 6.835255686763002 3.919081133178606 10.30574613368961 0.6048682166424227 0.044389324748652585 1.0126513486699529
P 6.245392881106193 7.622178400901868 10.246364777187118 -0.9082722736312293 1.1448209635583833 0.18211689334083475
P 2.4319178910368455 8.41229419453003 5.68084109340112 -0.9385544695545385 -0.15421373917266343 0.9033601810415927
P 6.784094254945807 4.016830857544427 1.491050861519972 1.456638955642498 0.049109355932141226 0.6637811889285472
Ni 5.303524631749457 2.912485374174446 0.4333622226876528 -0.5607892240453375 0.5729076045754262 0.15768087178565748
Ni 1.513149857985438 1.0245365361346965 6.918023193525092 -0.6276271076054933 0.472803759873289 0.30220129492995695
Ni 6.811524070558658 0.7289872634051154 9.288939736318547 -0.38931001292400697 -0.40881028774046374 -1.0953524245146102
Ni 2.793259033243615 1.532768354847638 9.163642034358775 -0.30258953150731116 0.03221335150775097 0.20242680854278045
Ni 6.353488543817275 1.9901454216943348 2.712192698209438 0.17849086655247326 -0.4871415166521998 -1.5603935097233448
Ni 4.100752924121855 6.80492143161469 10.471809719129249 0.680246533573422 0.5093699890330969 -0.0001972036124706281
Ni 7.971108025093748 7.105070903608511 0.17931666931992915 0.3928974731649491 0.21437266805074692 0.45998012574605945
Ni 7.37681640014529 3.9105752745390414 8.192117833745238 1.5809291677828514 -1.079767939812792 -0.008561773527082029
Ni 3.1373449182102062 8.264916438101762 12.385194953100678 0.219875343036531 0.6313762902352803 0.41460863958979566
Ni 9.056078551562576 4.7981160725849605 10.275976530450986 -0.17159516787390447 -0.1857701738227059 -0.36254354346344014
Ni 8.736960022602684 2.502129559807127 5.774758220379929 -0.1880286308395794 -0.8157619250056338 0.3233861565376882
Ni 3.4702279649685894 2.697962748485389 11.441512782034062 0.007559814625128915 -0.09485236649521082 -0.004108365741418731
Ni 1.1580325147832284 3.2023700878100216 12.66468772639835 -0.9690446677235957 0.6375703348611342 -0.40601447016288134
Ni 3.0113174983671462 8.334749266932638 7.909522180943844 1.229805950341211 0.12093826494898526 0.01640132417615885
Ni 5.813506330182521 8.02620217628194 3.5669881954926703 -2.1889212747662365 -0.5099099206969671 -0.03715526889405859
Ni 2.8448353849944463 8.442592369684114 3.47565890609996 1.3690815801468035 -0.5153534603100415 1.1450348793414022
Ni 3.3683110012692814 4.211734986371283 9.073289610809825 0.015455929543754026 0.19356421594582793 0.5526030886901192
Ni 7.149061436572626 5.98110692337633 11.418911371648951 -0.0666843887014271 -0.20902297370305936 -0.4969343343729055
Ni 0.43384930260974874 -0.15499965520921447 0.3497459340613179 0.654151379148267 0.3244387661719187 0.3309711679737977
Ni 4.505110439448547 0.34606938264934883 1.6699066089136212 0.1626760110074037 0.055841018229019955 -0.10161256803717984
Ni 5.937531310345854 5.7464246009116335 0.380487893144421 -0.5679847133525122 -0.5331346955528625 0.2879026189190977
Ni 7.857167403317514 8.706246927514965 11.27140913924059 0.3943702010557337 0.4714536736032977 0.6912372282569708
Ni 0.1145864536729386 4.871674160820014 5.721040520971586 0.4395843356985268 -0.12580382057140269 -0.5497285953558017
Ni 7.890144518043125 8.714861026137218 2.618143879251692 0.5500566681191817 0.9309257493646872 -0.527315260657608
P 8.473494884741537 1.7157119655874709 3.6029626557388825 0.23314609200350814 0.10195015388225667 -0.5202670955615749
P 1.7714555566717904 3.302104211858455 1.6595696905669175 0.3877449824297322 -0.7631640963042599 -0.8812924026082758
P 4.879990599489874 1.0257542359399365 8.013340560339039 -0.36935439573768647 -1.0546294928739515 1.409054006774683
P 8.571091269131882 1.511165458302825 12.497251297178286 -0.7336807421331623 0.3616917369861061 -0.9040520649022946
P 6.285910714625735 7.848021124780378 1.3495415161531048 -0.6443243657555161 -0.8309995678909947 1.01029853216706
P 1.8517876638234003 3.3457970848701777 6.026131148175114 0.2286255784253353 -0.11284006132188308 -0.45264091177216886
P 7.0096122588762535 4.0996344443007455 5.874813456377004 0.3796812315849913 -1.204802229208022 0.8183571965366359
P 2.3942684170585364 8.510612178804964 10.280952863655067 0.639561397149234 0.06389191355795447 -0.6823828631901344
