# total energy = -340874.1049674159 ev
CRYSTAL
PRIMVEC
9.18583326122475 0.00000000000000 0.00000000000000
0.00000000000000 9.18583326122475 0.00000000000000
0.00000000000000 0.00000000000000 13.44439549605545
PRIMCOORD
 96 1
Ni 8.921299545633678 8.016798110957977 10.839100341624896 0.29685442879574686 0.23858088986583428 -0.3334445692149548
Ni 6.656817138585433 6.013174994249852 6.929926656040054 -0.17381145879893292 2.6555487306254846 0.7467571157011462
Ni 0.5087270568289817 3.762930628613932 4.706264254429286 1.668677319133113 -1.0189585218349033 -1.4755303932303623
Ni 2.077964064546795 0.7297216683812273 2.2067632243293147 0.366094236929176 0.15157887265297765 -0.46772917356385896
Ni 1.1069847552252925 6.26157829481248 4.723835834698727 0.1801044908964963 0.8171217814676379 1.2139093337156128
Ni 2.561019473417698 1.1960322219679194 7.623119940240476 -0.4623301140354747 0.5774381454559281 1.2116030541799392
Ni 7.983977129044275 5.323906816562647 11.015826585967933 -0.7479380233831249 0.26670952978125034 -1.4541763530346181
Ni 4.02478198893633 7.1557272955064475 12.768303512329092 0.30700360141460675 -0.007694540430780297 0.33411408447815366
Ni 5.185549797367532 4.716916146572339 8.68946197660846 1.683848370446597 0.8206693896095802 -0.18220662484116362
Ni 6.5939401105419755 1.3737046071273886 1.1307567728839725 1.536776384525037 -1.5386746299890146 3.4099343094061663
Ni 0.36919700673815414 3.493822460087833 12.037372069719476 0.7511601298648483 -1.6818231124864518 -1.9847317178960788
Ni 1.8766381589765295 3.6241235035935238 7.332748405094217 -0.0183515059239942 -1.090968693624618 1.5337311699408103
Ni 3.3822237729147187 2.6854691411945817 12.216962456844684 -0.7960703601139775 0.2688350607646854 0.6171519191057823
Ni 6.921534478856635 -0.2526177608206765 2.9625662288279697 0.1485711961749054 -0.058632722041544176 0.48358516675950913
Ni 2.9233271052789207 5.0798300434227315 11.663308408568259 -0.12261385287919528 1.3318260382294547 -0.13355903903678934
Ni 8.015071174322157 2.1061553865431972 5.02490978407047 -0.7589266611841445 -1.125595796780184 -0.8696751300843215
Ni 3.9498164044421498 6.35495228897782 3.9868417421974116 -0.19350945144849255 -0.1426921116863091 -0.6701734656081362
Ni 0.05935609818968776 2.1383333601350505 2.516508600212821 0.11797943943097747 -1.0102028871294602 0.465499770012708
Ni 3.9576151768028365 3.9663876474794617 2.61832253789406 -0.8362633873930952 0.11909349843076263 0.23636588449238646
Ni 0.9572832320661638 1.001871266269662 4.303712568870298 -0.23267326613214767 -1.3041442560434702 1.621441783184917
Ni 6.373213725318272 2.411602711086816 12.771960392513767 -1.9744210799986899 0.5425097090098593 -2.127942163979703
Ni 6.566768416027359 8.685774783174326 6.552193254537724 -1.6174439748794338 1.417317532335056 0.9858586539571408
Ni 5.83371137162238 6.968960935509429 11.249167875882955 -0.09940810418669331 -0.35146337438987857 -1.0940465612189931
Ni 4.412111830350566 3.1238171000307857 7.200428315457927 -0.14911447027288513 -0.4587123147772294 -1.106494557174359
P 2.0486980000695922 7.514691284094066 12.184494210924681 -0.3247264726156665 -0.30053779118460494 -0.672970311626983
P 4.190687321806001 6.024381710716327 9.977381924934935 -1.2969845050702373 0.7264364018659231 1.100522398751324
P 6.441988058256383 2.526903289027135 3.1365100843040437 0.15592172300270565 -0.12727346313839372 0.41720956754775246
P 5.506181304139906 7.223399328464249 2.5211603061297247 -1.019271682199948 -0.40857528891152217 1.1772605721443274
P 4.924607834528888 4.958384143092189 5.74052844278696 -1.4274687618364448 0.47030799003462875 1.4968870045292673
P 8.503665640594113 0.9313056958635489 10.067001669084007 0.8688433782116456 0.009958139653976399 -0.32367617697428125
P 7.365237778430506 4.236533815153685 12.755249524812283 0.056882572119656874 0.4917047105428499 -0.6660838689197948
P 4.1563506774193755 4.26383411133267 0.17987422937013617 1.136818919189513 -0.3212179452417758 -0.3561540949973286
Ni 4.331634745954842 7.237517954045374 6.193295403948923 0.6232526326868814 -0.5661075509344572 1.310828610042181
Ni 2.193044182491053 8.420350133749093 5.741267902357085 -0.07830063278411677 0.22385155407545962 0.041738517389366826
Ni 1.461741632221399 1.1633122842190813 11.806599138758573 -0.31750218695308546 -0.181069683023243 -0.6085160978076553
Ni 4.306465563071121 8.916807673213919 10.830522610611457 -0.18990142238226004 -1.09465179890316 0.8032743340615843
Ni 7.4438409528597065 2.801614815786471 10.775414041679227 0.22155401629053453 -0.23278485200934748 -1.4577134196535992
Ni 4.306777881398874 2.0944801925850913 0.9567688254086864 -0.8100790156882436 1.0979579804582575 -0.22845434295479364
Ni 4.282720184328631 9.005248874967377 1.7396103298410035 0.8481791649940748 -1.0415104389934902 1.0794835758031538
Ni 0.15072574355749904 7.65499569992106 3.068467862269521 0.12014250852056729 1.4609404112313291 -0.6405700409194065
Ni 2.9097780013542898 1.869234377442121 5.479074829040791 0.05240268197143233 0.8256732705820748 -0.9815361153223869
Ni 4.314190848766453 1.7597208743984236 3.3556004726403055 -1.0377897956087934 -0.2745742772413078 -1.869589233693264
Ni 7.4893751278796366 8.604847592953309 8.667844036827965 1.2895321625572502 -0.16951848785053386 0.7916532048828882
Ni 6.068960559086656 5.770990502742799 13.563378709376204 -0.293115787688921 -0.30188762034428007 -0.8126056387648393
Ni 3.0389675590465024 8.20011059768336 8.18240674141628 1.1626950156253266 -1.2674888096039656 -0.2781231709348307
Ni 3.187621897224337 3.4261320554636923 9.832141960946107 -1.1963558982128815 0.9664159718514969 -1.3887929425328018
Ni 0.4127929709593743 8.39906655829596 13.237889734023938 -0.7732261085259522 -0.5048882991126595 -0.3587185132903951
Ni 1.7083445094828562 5.10164639719968 2.8993511621238834 1.4327708907756487 -0.6363310631373945 -0.048933235365593145
Ni 6.4670929403079205 7.2614654211175855 4.893679134248052 -0.17501859173315665 -1.7435483574103907 -2.9072800418303477
Ni 8.070195359170777 4.157250889069961 3.066263262308903 0.31412735694358157 -1.219472172515371 -0.6139660651786331
Ni 7.333555839829794 1.5691515794693398 7.464650539321306 -1.3010257650191464 1.7400526855523066 0.657028700696062
Ni 8.691442442239747 7.332609699013361 6.370277014454065 -0.5356003834845356 -0.49935862754368193 -1.0849839367960925
Ni 4.859370047360935 2.1481346441266314 10.496980415319715 1.2778102461346315 -1.5401944090676507 2.9473026049698725
Ni 0.4565055952618438 5.6463203749698545 12.494898211046422 0.8969475926470295 3.040099117377319 1.5572997012893697
Ni 1.0474146271227613 8.935087481220709 9.016779851344724 -1.3829382835242376 1.7773012854911197 -0.2033755456092949
Ni 5.183354383240083 0.7600238948399212 8.675385605859914 -0.4052477672001859 -1.7377042399247877 -1.7379009293166263
P 0.14208830462846128 5.126291987592754 1.5393968286675328 -0.5647937172190401 0.9298286596457664 -0.8111223693510934
P 8.45975735804514 0.16180110260965352 1.3999108705759176 0.190067258536163 0.11620306425684503 0.5801689141235298
P 1.53972016999509 6.579793927461344 6.996745325096434 0.2099395719800578 0.8369061631834166 -0.6546936248049822
P 5.256133739439983 0.4933830411030806 13.079043713944827 -0.24876451526705545 -0.3067878858593749 -1.2063387204572062
P 2.359013816192908 8.07149056164764 3.484773495832813 -0.13855494958948397 -0.43396930350459456 0.32925829904774906
P 7.24265283478698 5.959217410213727 9.12428073834104 -1.8865081209357897 0.1539067494552059 -0.8484169920364937
P 8.018001455103146 8.840969434568661 4.913025417485792 0.8310702732279301 0.9490360858121526 -1.2676070803493846
P 1.389586912677007 1.9458717835731028 0.5333790773052751 0.1773688371328881 0.6065543460955941 -1.998714662438732
Ni 3.1394605739180044 5.544173910127888 7.842317802824818 0.6471998875310983 0.5219766220535139 0.50104629965875
Ni 0.9305157142109941 2.351288530497576 9.55939528390167 0.16781873155060775 0.010782435327484656 0.2921166570004453
Ni 2.0341108969968364 4.568408781725211 0.476618895569215 -0.24812456769021138 -0.8021569326276895 0.3885417672994147
Ni 5.623107774551181 1.7458502663128692 5.03913404673304 1.7393803420756304 0.1616200589390636 2.483433685692368
Ni 6.1695454322898495 7.949346537996235 0.5981318524818922 1.162477757408198 1.1009993383877426 -0.5910948170074143
Ni 3.1741830232977373 0.21676453537781 13.166997147956998 -1.3446514721288971 0.2916127207808333 -0.5088817365427688
Ni 3.899909772833661 6.002161180279931 1.4514167557391717 0.35519018842216243 0.7220763251250144 0.5194335439166861
Ni 6.74297106787975 0.1668900541854133 10.975359316524157 -1.588174279381039 -0.23735498787853312 0.1486519288141698
Ni 8.263851094044727 0.9640164477792178 12.52118255407689 0.697106028332922 0.9927335267001032 0.464174109222749
Ni 7.481677399683812 6.316794337992791 2.424549224355545 -0.35993387375473496 0.15162489539956464 -0.5914262322049041
Ni 6.878416177960216 3.971687873218114 6.448053463898033 -0.8182967756123456 -3.1828112836682863 -1.4463771687051734
Ni 8.357261831542742 3.6957362589809306 8.27394999903099 -0.8898703740852739 0.15979046192949256 2.9674451413560186
Ni 9.04492248842533 0.35044320973983073 6.646842242346954 1.8292275420467659 1.540249173564986 0.3449409998903285
Ni 9.120531081241356 4.976388376103902 6.544018781600416 0.28828674173139385 1.7718322919567486 0.3887716239220337
Ni 9.136183740961744 6.622048760039855 8.546225442833844 0.5518734096129464 -0.2448078446121526 0.8365819470747786
Ni 8.646101169716372 3.1691491867209924 0.6372414557832548 -0.6074208078609474 0.130267255659395 0.5326729254250955
Ni 6.140426341143354 3.9225895949285183 1.5131933209689543 0.04688560880794506 -0.5075537617599646 -0.29474072488685366
Ni 2.7027844367186016 4.5206057059124785 5.459513597306891 1.6075521696870188 0.3139214115803626 -0.6944444223403589
Ni 2.1084794023350155 7.676141487876655 1.149160589638548 0.7194504574663932 -1.18597172676508 1.1772744561013984
Ni 1.7621826776877807 7.015753569673546 9.96327799668688 1.9431328114083697 -1.8842563487871353 1.4185390634469828
Ni 5.282533823968383 4.301202080665145 11.439217252654661 0.3422454553360364 0.850741269294296 0.14576226597120057
Ni 6.017510707505733 4.839216329387619 3.949250557118925 -0.9460003843096224 -0.1877388675133025 -0.6124108048763711
Ni 4.480537101628246 8.816167685011708 4.347675047834971 -0.5016296829660458 -0.5440374585082952 -0.23901154964534968
Ni 5.453766940076214 7.313503166021339 8.609696794283352 -0.5656234122091872 -0.09332384566582637 0.6453350664082176
P 4.368166804468915 0.6099328923544167 6.438789551146853 0.22951620856040475 -1.373775128967731 0.8551283426183983
P 0.09556940829278851 2.814768928884825 6.630843276716087 -0.5126262911868655 -2.480805246930586 -0.1415633973985046
P 1.2981235718108695 4.608073209349996 10.261596196107853 -0.8129326830869549 -0.30258593196288536 -0.3686671398626748
P 5.898149991304609 2.7510743616893043 8.91547572740438 2.938892012308674 0.47778501513796423 -1.8787701288615835
P 7.6504487125022855 7.211733320339313 12.285219627375366 0.43368931037033054 -0.03937233115003542 2.062165631804526
P 3.03463184579062 1.0608902443820387 9.858936117717468 -1.8103013945662243 0.8259823171820613 -0.882536816538338
P 2.3183848760853527 2.596862594444078 3.471504559819844 -0.677153239360079 1.304480042116334 0.29397505036542276
P 7.978061452483284 5.510333300732403 4.75131617320783 0.6454685066622884 0.8067280969381396 0.5606131034787895
