# total energy = -340888.4104158674 ev
CRYSTAL
PRIMVEC
9.04579943077860 0.00000000000000 0.00000000000000

0.00000000000000 9.04579943077860 0.00000000000000

0.00000000000000 0.00000000000000 13.23944183036889

PRIMCOORD
 96 1
Ni 6.812219846583833 2.457788994033922 11.437143627762214 -2.2338353616701077 -0.43923003768290164 -0.09702597710776194
Ni 5.027664491536954 0.5133238019257718 6.10098661242505 -1.0584362682145514 -0.477374667073423 -0.31541522251706966
Ni 2.8920416520549104 2.04432358360974 4.617176053777745 1.9999300229030716 -1.393636129557716 0.14161456235141417
Ni 3.77133860707991 4.558630733859868 4.4654788982191445 0.0615817773675391 -0.19914016737170864 0.1799281132196321
Ni 3.7170547633773734 2.7651743119569154 2.4960852914341984 0.206550858013483 -0.30360665991791586 -0.09723577912572287
Ni 5.036493191995824 4.743897756501367 2.2762443179485956 2.1824076420174348 0.2700877022248639 2.367596232305058
Ni 5.4587692112795745 3.0556982593314115 0.46443849145464267 0.04003259044185364 -0.32923541622961366 -0.36042058358316637
Ni 5.4726545137430636 8.311416405856642 12.588061522632103 0.7397112645979583 -1.6273897732382363 -0.6121881473426037
Ni 2.158155926411392 6.75289749247598 0.30014867820260793 -0.12284833748750454 -1.451082801710959 -1.2720298920074284
Ni 1.0751566090572127 9.171264891633106 0.05156739006749667 -0.44431105175023483 -0.8629900047546621 -0.3502019911789517
Ni 8.467375037630582 0.0812312808613188 6.650383254197009 -0.9441810717126965 -0.7075881588111685 -0.24238380855169223
Ni 8.63358256040852 2.457490482645457 1.4996578950549817 1.5767858350384394 0.8117664306929956 -1.4276153147166382
Ni 6.980806414669846 0.7386003964213489 4.6510290543897055 0.800862382185982 -0.36270192341817536 -0.6935679332726765
Ni 1.0712216862092534 7.547869503159196 2.3278379408350784 -0.3240487298223516 0.4876151138545086 0.19034416634663348
Ni 7.933320072065839 3.896966672625789 3.4716467417596513 0.40705011051624734 0.21504552574805544 0.11724281837526905
Ni 8.063082068051987 4.113260788068438 12.468270711600676 -0.02288281813544446 0.3405163884600716 0.6712998659030954
Ni 8.234897986613223 7.5059693591781675 8.770058348895255 0.20146984394614978 0.15177736181702892 0.5793147936533507
Ni 6.775846686189249 0.9927493742413313 0.225592292903379 1.7284600956187008 -0.3595163266013421 0.15495678798627505
Ni 1.8701105281411277 6.7196903619590636 9.151512483516317 0.8070188887056811 -0.3725322792450359 0.6806298850547697
Ni 0.3920847583703058 4.963991107797219 1.3445712783673465 -1.2071684154473532 -0.538630428560111 -1.3917455974032225
Ni 6.791622560779689 2.1535516143892974 6.4052683164879625 -0.4487590602192594 -0.5028062197726502 2.1846002787933796
Ni 3.678203053878558 4.461677853206012 13.88764532559771 -2.39053767159258 0.5608303616959179 -2.72018240744547
Ni 6.323574795264503 5.595767846986109 4.6807779757002415 -0.054208367721603416 1.5120475143197896 -1.0956429591718357
Ni 5.331639542991716 3.321518127860444 9.493063786719176 0.20959504415644548 -1.5165104351871497 -1.7582131585114171
P 0.3416698031782805 5.814386732938932 12.369439018359417 0.6190355092817403 0.526939622485744 0.7036073197865496
P 4.180552491668366 6.318011628479458 12.438032412529049 -0.36886768590925506 -0.0926263053781695 -0.2407760977449402
P 2.8181012857118795 8.417188941169714 1.3559970279058688 -0.15962411155495734 1.834312155658525 0.28497721774218665
P 6.72787681064275 7.851374173032132 5.777838084031128 -1.4316912845582246 0.7581129070335976 0.4025216265182745
P 4.919069666732931 1.4107738676893562 12.34286698188613 -0.44022119795157727 0.3626595002160141 0.16507022227119314
P 4.305447847442557 6.032236725921464 8.259359638028053 -0.7465969359741981 0.6379917386692691 -0.44255987338708297
P 4.96608068751648 1.243580352749517 3.6974715117140473 -0.2807793776107551 -0.5472209984425995 -0.006116140200066886
P 0.20521753377063573 5.840094895545599 3.3243974058891923 1.5993194973645812 -0.9300829417484175 1.4784732779087697
Ni 1.3978202825898676 0.37266161736079323 4.502906798852975 -1.8124788618335173 -1.477695776312797 0.059493013159310444
Ni 1.9364071937795024 6.628852441868934 4.596244073386532 0.8745885082255388 1.2352890849429694 -0.07674177293742912
Ni 6.265356028714008 5.821605281060015 9.0730555494078 0.2430345547618137 0.28878656418594784 -2.013714221171358
Ni 8.866674725802111 2.301957003455087 10.496428406850345 0.5732765578790707 0.8320043550064251 -1.187152891557375
Ni 2.7761016379346963 5.624515398275337 6.6289890334436565 -0.9812874896466907 -1.4398846190022943 1.458000868987031
Ni 0.7364312136651636 0.2780289843172869 9.123219935949507 -0.17057623969108687 0.3101999968647174 0.08465228603375745
Ni 2.0051462253235073 1.493732896283917 11.243940725087349 -0.40591753957370086 -1.6226476305675603 -1.0136710481837188
Ni 4.446679917385516 6.964062639516806 1.4911448930039142 -0.2229871491926353 -0.04432170473551077 -0.19677423824269336
Ni 5.618590399504272 7.892442103445315 7.9310079656751755 0.663207061592632 0.47338302941552673 0.10080601297548446
Ni 5.714349234604263 3.1901369337368592 4.3803751105274555 -0.4806165710494884 -0.6493557575318366 0.11635784466715444
Ni 1.294680074975084 7.57881518376349 7.090489449171823 -0.7807743531868554 0.35808293658892526 -1.3685033390458303
Ni 5.398089987224149 4.678614220423846 6.764362138952999 -0.030866864782185546 0.26607369596946434 0.47355683598922954
Ni 0.8133729763322244 7.715108247097287 11.40648108068698 0.5576365373489687 -0.4778572631367964 -1.3367265608548655
Ni 4.78099458086799 0.745953726957225 10.219657693264441 -0.5273237452980403 -0.20341282660513357 0.9744632676360055
Ni 8.354926702175455 7.407542013181285 4.526949629743989 0.725806481591408 0.6385159866038551 -0.059679418138503665
Ni 7.268309064961082 6.175639787780538 7.018161948906473 1.2032269143011018 -0.05219133729157463 -1.4227998956058658
Ni 2.3551553511995658 5.5307647306977525 2.435660254348951 1.7180589548900345 -0.2869664802580735 0.6098165617866336
Ni 2.330740737942918 5.479764512268341 11.353748591624502 0.46298625956223494 0.32280483011292144 -0.1695963922763208
Ni 1.4291368409798324 3.546052966784682 3.530522233364771 -1.0971102877459815 0.14115819154028594 -0.6905718267588301
Ni 1.4563918353267316 0.9632148383825109 2.1289289477406883 0.4789070445575494 1.2287839368346 1.5870743614486407
Ni 1.3029660274549244 3.497549389058803 7.73405829278508 -0.5324142724470701 0.7406772280556535 -0.3095741903552604
Ni 3.994507530256925 2.9680082775196492 6.716871690787974 -0.8180208962431397 -1.2443108288256053 0.6124532280785324
Ni 4.492695900207512 6.908810895251668 5.878669803575109 0.9259740617863664 1.302419045822247 -0.4799244300784702
Ni 8.242677374312636 7.544377824494109 -0.06539841773308203 -0.21286703003949792 -0.16048131734893006 0.8059619081960766
P 0.29829067095439915 5.747303082730966 7.7995010349364495 0.10769888344057582 -0.3055606983204931 0.16443798800383294
P 8.780450163533729 1.9019517429108206 7.761291577212818 -0.26302308206859865 -0.1092194338501603 0.5261983734443454
P 1.5407801002660684 3.5625705969464603 10.22368216952894 1.5309587494019956 -0.2787320081634232 -0.7163479072816695
P 4.34483325912075 6.419071302174631 3.6793600116538543 -0.5286859157528894 0.04656833467784238 -0.5539542034013751
P 7.17629519091639 4.407692520891942 10.304879980931553 0.49740073248636274 -2.069312270151636 0.8417984582787116
P 6.558611807582951 8.428903251717088 9.967248222717245 0.00684453372565918 -0.6887288600128202 0.1198278054936259
P 2.9125575256622014 8.55986833905675 5.91252280418707 -0.430627126505239 -0.46683777209784116 -0.7188398204655878
P 7.08563818681927 4.126910899741015 1.4158259467941499 0.2025705332094963 -0.053810875172868616 2.802502445801625e-05
Ni 2.9833409079272144 1.707928386207655 0.34738041649762913 1.172538998298942 -0.3321011678131829 -0.6887591990301235
Ni 1.5867327624905114 1.0603395892297247 6.8258066376588555 1.1560068049718737 0.8714221946824154 0.46320043245557
Ni 7.028595374223338 1.30250469167275 9.043028922047993 0.0458481686823662 0.23256245158589625 -0.46608341043031987
Ni 2.917722677262626 1.9644310810966923 8.979611534438366 -0.1719450950141555 -0.16641156679043598 -0.15960662805346063
Ni 6.72488265095844 1.7759075705810192 2.438401131643047 -1.6634932038290127 0.6743571646721804 1.0958689591397126
Ni 4.590037750246338 7.339327638017008 10.312942502160025 -0.7132350726843006 -0.3271962743123978 -0.25755074610011774
Ni 7.099532535082409 6.643687553295724 11.063857850225538 1.1428599831772706 0.5786442499488873 1.3838158010331845
Ni 7.665736272604962 3.882285339793058 7.881029922606269 0.7259080401662789 0.19907151891730232 1.5257463519631207
Ni 3.1993365119813983 8.681308199364457 12.180207221731113 0.6179957551633163 -0.42748395289056695 0.6815325993746972
Ni 0.10802584400600838 5.290996765162105 10.205570669468747 -0.24663847006298814 -0.24959729558099597 -0.72881750050359
Ni 9.135443525017202 2.561897102211308 5.505251052783572 0.17347181607132703 0.0881880671011578 -0.004163130238754121
Ni 3.630368865326815 3.2734035195195363 11.466932350591215 1.5582155282354198 -0.5306767209306731 -0.2864820844224873
Ni 1.5103952592401029 3.337447781044941 12.371199330971402 -2.1682182378909305 1.3391084308234809 2.131201294346949
Ni 3.2630098957211335 8.652750609867889 8.130115966361876 0.738522900716812 0.1605905892332847 0.15381547529298029
Ni 5.935039608677046 7.9749126588587504 3.3518296979092406 -0.35385758565366804 0.18440954602975337 1.0870174222863538
Ni 3.399402462851085 8.46188423724274 3.5887364770154413 0.7556701019200598 0.3388533989353519 0.18665720441334951
Ni 3.1291139692947145 4.364878751146216 9.072751610539543 0.9258845873963537 0.8582092955365671 -0.2856454474538048
Ni 5.267740014260719 5.036692199588135 10.927240042684291 -2.3202701935255843 0.29881515206654347 2.854722065227974
Ni 8.195802040523844 8.864440413288444 2.338826778250483 -0.30262809805473045 0.18492093844853313 -0.23539272194583974
Ni 4.782532366808572 0.40229113411594347 1.5511194492665679 -0.21209467064984763 0.3037257019942834 0.192252696223256
Ni 6.121482585273109 5.71352606683607 0.16773535833890293 0.4691083132995727 0.17067754115564154 -0.4668516560549121
Ni 8.042729018838406 0.19136117786602902 11.387813263948283 -0.570501823347411 -1.3112718682271869 -1.1707371692035127
Ni 0.38722987769789274 5.131763553914689 5.512109578078565 -0.7791812976681226 -0.7019898387877846 0.748936125630336
Ni 7.417781858385629 6.324027085247027 2.3887261228624306 0.18108305275968167 -2.281623941908296 0.233187743874721
P 8.834589274441857 1.5747380321539735 3.55645835012263 -0.8138168854641209 0.19196653244140488 -0.0725228497600751
P 1.841227289857142 3.2474692119216075 1.290790381125377 0.5124380864354594 0.5591984825194498 1.3536693593567912
P 4.894618870277681 1.323499992661516 8.190223495879392 0.26131715512108544 1.3110816065932516 -1.757618976570844
P 8.808302180657558 1.6292118376491698 12.640821149093531 -0.3411046568633738 2.1194924905504533 0.2573954514691761
P 6.51816803734565 7.744814653149466 1.2561730104429516 -0.6162330068359387 2.4106609247050157 -1.6078506747640438
P 2.195587445365082 3.6958061799983937 5.617243479936315 -1.1781141783938742 0.6131793076112795 1.593034692797134
P 7.314388368380632 4.040586833676475 5.72012769142099 0.31579934532936577 0.7091655306006174 -0.5024884314219152
P 2.5299202004468575 8.639317597386924 10.191510783072005 -0.27874949166491997 -0.07917043698357978 -0.6506932453963374
