# total energy = -340898.482524976 ev
CRYSTAL
PRIMVEC
8.99605918255747 0.00000000000000 0.00000000000000
0.00000000000000 8.99605918255747 0.00000000000000
0.00000000000000 0.00000000000000 13.16664194927378
PRIMCOORD
 96 1
Ni 6.560529038683972 2.0190215302049848 11.400205528715338 -0.7502409604846886 0.07152166218907037 -0.08380870708653952
Ni 4.554866656256751 0.3205691687352919 6.067741113566233 -0.39280954143683317 -0.5429586236218198 -0.5414427011979256
Ni 2.6469554521144913 1.5919786042720574 4.879675667650399 0.4194657105717807 -0.7855167529678472 0.05833833072957695
Ni 3.565642004446416 4.212116804180818 4.805481569749847 -0.8868601265040404 0.2877635222380721 0.34961989342323657
Ni 4.969000237367395 4.68589425718814 2.4677449585920592 -0.438063013957994 -0.6221678842631351 0.40364082772438226
Ni 7.098358432551679 6.058791833963999 2.576488421503048 1.0611115010538694 -0.12511193671070064 0.31648762964564203
Ni 5.354535346568607 4.42817515581619 11.70248480967489 -1.38960129736671 -0.03816854064992137 -0.16362809050802787
Ni 5.528087318911098 7.888176438138519 12.414602953126165 0.026265618564748315 0.05693553684477936 -0.11537568325954323
Ni 1.895316721388813 6.506732605208537 0.19272257430505801 0.20356375036070104 -0.5158969915183372 0.5379280031764478
Ni 2.5882381743061025 1.4946952210607938 0.30308982588533034 0.41894249107845916 -0.09752168579725785 0.7546300906913197
Ni 0.6177197963964612 -0.16164478850501818 4.63609297356328 -0.19523363322845086 0.10229519592650124 0.46451272350909034
Ni 8.729218004295449 2.225409118297532 1.4812605063865103 -0.22148819604960568 0.43351344691409854 -0.6110640610404896
Ni 6.750876653384095 0.6322475322525617 4.7533161217909825 0.15263019673562747 0.7298305151491365 -0.5419301823573054
Ni 0.8920060402246598 7.244085594068164 2.3496662851430337 -0.6384589081136746 0.018625071300355022 0.24399666156476688
Ni 7.598899161410076 3.7529489511674923 3.7011829282330946 1.1429551139942382 0.06470335371565632 0.59730068870781
Ni 7.563193802804055 3.833661593498864 12.668693044253303 0.9695462899503626 0.2334520532797012 0.29648650393336684
Ni 7.839534746532888 8.985821594337809 6.817068756706654 0.610876884730348 -0.6980869041889526 0.5468970394442775
Ni 6.861375247427367 0.7096757134030169 0.3211332216414642 -0.3613248405649906 -0.100057307734918 0.38695771064174644
Ni 1.7591973510013865 6.490359777629057 9.117148764037548 0.593921487822932 -0.028185461295280493 -0.3318458572692672
Ni 0.1330517142310511 4.7098237744196885 1.403564242674589 -0.7628830747287313 0.5749259205570356 -0.020545428251519456
Ni 6.2383531737917055 1.9093505735997958 6.895172541896241 0.6040441780792307 1.0495186540099475 0.3467160895128803
Ni 3.4960754793518443 4.218998789399665 0.36929272447882106 -0.4307482254641356 0.7186595861339816 0.12915062555644855
Ni 5.849795388729666 5.5596185060902625 4.668364536407165 0.17005199175650068 0.04526375693380592 0.6504829291577443
Ni 5.239178880606148 3.018942496296639 9.484432668517194 -0.15282457213462067 -0.5024182403056121 -0.7868053898722837
P 0.18986362672002569 5.607054725775207 12.428071852825065 -0.013330912780951235 -0.18624505657659537 -0.2872860683810214
P 4.078480346107642 6.135987017183515 12.513260034563466 -0.6394171582618858 0.03489758320813345 0.09337912438379402
P 2.3740150187290894 8.471139060559112 1.2871750291263473 0.16413331227922057 0.5898416613266035 0.21881476298250058
P 6.298167970811466 7.802147124873371 5.83507423760271 -0.7921936507673906 -1.1519110376359452 0.05175322131289151
P 4.789079055175304 1.012047653771401 12.387440252250627 0.12690245295222016 0.05630844478374173 1.6488286598383022
P 4.05986749980987 6.101361185670648 8.18855845023186 -0.8324270443661405 0.47871241204824005 0.108393081294123
P 4.627060030611327 1.0853385473373491 3.875271965304429 0.09516732663246835 -0.7245877786929585 -0.40996137062577137
P 0.13542037659460998 5.4876050529178775 3.571332911439152 0.11186921276818151 -0.08152968124437572 -0.22262410942626176
Ni 1.467581098904446 0.9445232340947093 2.704533828839604 0.22272463955986802 0.7702801385237508 -0.9662858740315359
Ni 1.7629037273545436 6.533765762832899 4.624954053173768 0.4637084824402401 -0.47232759156781884 0.6958395029156726
Ni 5.999921623150747 5.678546407519233 9.139334845013654 -0.08299083917093449 0.02136612438060191 1.0294666204550786
Ni 8.64021999152413 2.322008801016466 10.14924233632288 0.5566399777636543 1.0056988286115194 0.3609687427771525
Ni 2.3289537586490803 5.160454367337999 6.899254053914269 -0.5782660406738621 -0.1328260175255067 0.3206754424747445
Ni 0.5468155573122913 9.091147454393058 9.19679357415261 -1.059523330631143 0.10225740071003035 -0.7241452918389012
Ni 1.5604294249746744 1.0284204813508813 11.266366659312194 -0.425980371761847 1.133473399756048 0.4662721294023583
Ni 3.9125300437127675 6.941827004044561 1.6556266220784206 0.8999537264632049 -0.17893463895811118 -0.7258787295902401
Ni 5.589494418393258 7.862537669676147 7.975969878595061 0.09200615529566734 0.2712873789599199 0.3306554365055918
Ni 5.47913976129574 2.8709843121209726 4.656382685279082 -0.13976439651655284 0.5211356142094573 0.36118394411175214
Ni 0.5823337978888319 7.340685276787097 6.760609489734776 0.17970854100965825 -0.6448172462315347 0.7913454438344824
Ni 5.0847165456942385 4.543747527197279 7.05934792182879 -0.17552869860035578 -0.6731577450474407 -0.29279002891838607
Ni 8.090902630173458 7.222414087673125 9.02772073964079 0.051368584279963145 0.0009122274016242353 0.20418698576699673
Ni 4.544701109462897 0.39599752594568216 10.316695880194969 0.1945255514178327 -0.4490452240011105 -0.16179386551276653
Ni 8.05059128930332 6.993005584319101 4.830393456636163 0.066776177084285 0.1385384945292517 -0.5698513342476057
Ni 7.138759734012914 6.047573748254322 7.030776438096686 0.46638500083113876 -0.24989888598181478 -0.821382613626521
Ni 2.3106647704792542 5.114610450115454 2.483439483314675 0.32121537413861456 0.4445699618385763 0.25034934325567204
Ni 2.473448460067549 5.196042777175594 11.323746223130986 -0.17988774689999987 -0.05305342818155379 -0.233727675538591
Ni 1.2919420408485267 3.3620791789142848 3.8223814349813314 -1.3858914526152906 0.01826254575461371 -0.19155001372927655
Ni 3.5400212281022627 2.6765165023486515 2.6936315048046744 0.43964527084344934 -0.07913572709090241 -0.15298526608220106
Ni 1.121763590672138 3.3071042616954918 8.218367791697444 -1.0622427864448352 0.3356233220338284 -0.553624330865782
Ni 3.6350376044179056 2.6052047417868165 7.13421312573892 -0.23922366565615574 0.29526831525554953 -0.8717047589198406
Ni 3.9578162052705164 6.6321826494919724 6.024264959101337 0.7021528467282101 1.2624378774436193 -0.3899797852975219
Ni 0.7647963667793859 7.526633818582623 11.209407211453822 0.1566280050411109 -1.732688017657119 0.18700481756075535
P 0.14957207717992888 5.472860512037236 8.028543747637501 -0.011201268032458129 0.300817784318869 -0.4274757253604509
P 8.438744251705428 1.7026391273793027 8.003593177697013 0.26156269547298827 0.2923668253380384 -0.32973112491910955
P 1.8763890130222047 3.173800657809371 10.348809112398525 -0.6571523707581198 0.029864134549284053 0.5019744678999742
P 3.863060714669052 6.150731558064157 3.7702024929338025 0.07074518903436203 -0.05811567319580959 -0.04716483061126071
P 6.95073310256307 4.0954739017656845 10.397670307846433 0.9130360135684598 -0.4221262881230795 -0.41952253195164524
P 6.3084414703146345 7.773179814540445 10.219618506737318 -0.3040913128638183 0.1728861187711861 -0.41054166860927366
P 2.370776437449632 8.331331305936748 5.9551536345977105 -0.017731098731175916 0.18731334994010965 -1.7477536537409901
P 6.866053198164362 3.897101802339795 1.6697936159642257 0.01419917431851748 0.46490713073403156 -0.9625742295079035
Ni 5.267894301284007 2.741522025474654 0.6129599815215696 -0.0003224163364252512 -0.24364699153483196 -0.7153132953695681
Ni 1.3199827570931641 0.9542299818739726 6.972526955361997 0.14850409038239584 0.734092118638968 0.04182696333811506
Ni 6.919462801098084 0.8139175483355595 9.202390022524694 -1.2046569618794092 -0.6847307945970208 0.17886187673864679
Ni 2.6710468984100117 1.5850876229941002 9.073172428686156 0.5094707762770193 -0.4511998084502681 0.47343342303748787
Ni 6.441349247599931 1.8969540041467607 2.532248501619746 -0.057770116930932765 -0.4531875283042582 0.6313526360861965
Ni 4.05509958848178 6.936069526214414 10.34281863663744 0.3565397604715214 -0.25500766796328983 -0.47011747129037745
Ni 7.930772778022497 7.103234296589085 0.4136217053473084 0.6746502704325672 0.3580482266962479 0.26670721578840517
Ni 7.478190040277402 3.79645389302154 8.161026910932826 0.6824427698937924 -0.20663544730748928 0.2084480750361958
Ni 3.0928631140002594 8.302795806441083 12.256721216146694 0.3655149673869382 0.11962365990261979 0.005085899163339628
Ni 0.12973396763142897 4.916454256108195 10.266991754008496 -0.2728020158322334 -0.49551559964850794 0.03676266144133023
Ni 8.556025874317342 2.2772624030052926 5.78149910718137 -0.045869765948921 0.45627645164222713 -0.32410529409189986
Ni 3.6868728970074467 2.604512045235377 11.504076726012563 -0.15155059051820352 0.8035144750968484 -0.4629741753773769
Ni 1.269397916719858 3.403838885301069 12.514563563528448 -1.340660091581317 0.018024718712194764 -0.1751062663509565
Ni 3.1247811317211363 8.38250988621129 7.931295449056765 0.5251791881512116 -0.5906536157049376 0.9243696934137241
Ni 5.637263492265259 7.830790577078353 3.5833543452273164 -0.8948925098902136 -0.0026124979221825973 0.5299259588075776
Ni 3.1009775593171227 8.336836894111826 3.573531548285539 0.21173317354537083 0.16301153996995152 0.6475220467572074
Ni 3.2002220834142796 4.292613541093559 9.070051695781034 0.8586864922833017 0.16358772418839568 0.050847421669170494
Ni 7.199159274874798 6.235195557044234 11.482838829666608 0.44015177816622264 -0.9715473795407913 -0.810877857440455
Ni 0.5524434918912599 8.792280378653775 0.06061364706869346 0.27544279588919013 0.8160475745668527 1.0577788371362105
Ni 4.51937720306936 0.4946663022598247 1.6890163950696286 0.06342782943734238 -0.5850828064853796 -0.38218857138787726
Ni 5.947663515783053 5.709034051841684 0.480442633201629 -0.43338900552109233 -0.14918646116140113 -0.0778504326205756
Ni 7.903064915964915 8.850206003260519 11.365735329025064 -0.5509105314790447 0.0038296581587353397 -0.49865671638065096
Ni 0.14862929018524235 4.747913088689755 5.779563155260983 -0.9541749497006148 0.46613071872848755 0.047628914731872814
Ni 8.042557808518444 8.829614023958634 2.344004165539449 -0.32814449715828004 -0.7467841122843397 0.2507141827942585
P 8.481115690111665 1.4998769511079262 3.62526338619532 0.059638794708555355 0.6484694982721413 0.3974802074396251
P 1.7792045864611472 3.197892104104892 1.5358620871522553 0.5360125313212897 -0.6203382872535639 -0.07822041436548464
P 4.812198927086988 1.0685429049797173 8.266044206160617 -0.4716627042903103 0.5248935385899928 -0.518435955890107
P 8.588690564944315 1.6808326800976214 12.410310033719062 0.043488667311254135 0.02965536097258763 -0.029917356384722673
P 6.150830514714363 7.8566272588411366 1.503591423914282 0.41434458729513163 -0.23846416178231186 -0.5298863638188939
P 1.6914300377287355 3.2201933346376017 5.992599730641439 1.369902276275886 -0.687654396001719 0.25623768371564903
P 6.904151508493538 3.9947360318563336 5.950808538047772 0.12933780186659016 0.03642713247878243 -0.175663167295691
P 2.338120742881767 8.418755008363885 10.027174810264656 1.315289474027012 0.07107069069458083 0.6568728918444882
