# total energy = -340873.46231942857 ev
CRYSTAL
PRIMVEC
9.22084887698836 0.00000000000000 0.00000000000000
0.00000000000000 9.22084887698836 0.00000000000000
0.00000000000000 0.00000000000000 13.49564438915823
PRIMCOORD
 96 1
Ni 8.798036023091276 6.522607158516846 7.5535395509847785 -0.4553559967104867 0.6799508567098741 1.7919455177668557
Ni 7.4400539540696355 4.206855522030174 7.508530743699611 0.4084266791487999 -1.0398019409428156 1.2153182982479973
Ni 6.341472804196223 8.664555015498864 4.839038761650045 0.5706470906760237 1.0272163909683212 1.660030956312025
Ni 5.34669997039599 7.7456328841340545 3.048908703250884 -0.025559079416026947 0.10018380601045328 -0.23188548012352966
Ni 3.1110037434089954 8.987662779179832 3.021756069715558 0.8221922540120098 0.39962116504202794 -1.420105379492838
Ni 7.048444504466865 3.633530804630796 0.034604923555786274 1.0929877809371757 -0.10432225365885905 0.16801130717738808
Ni 2.705719774998573 4.624679844842757 3.4605126414460425 -0.026948503564385846 0.3147091975889806 0.44304041256792726
Ni 5.289669020412634 1.1998537325196867 3.1363739868664253 1.5387247665006596 0.8125128219407168 2.2411753469749467
Ni 4.256002646268054 0.2967038630702424 11.770860736431462 -0.2766694692074396 -0.5848845744316443 -0.36830255743440443
Ni 6.905051084387449 8.844297021646893 1.4712140925940917 0.08790087487804217 0.3981859752573981 1.4304777238660977
Ni 7.073728071945338 8.824121804417535 7.418609948041941 0.712105844175864 0.3843346711966026 0.1391272771531862
Ni -0.13907621865949352 3.175392930754796 5.24844260531553 0.9718497412725586 0.3248699401720663 -0.1488524748607501
Ni 4.441065082188177 7.0917363897007935 12.902308679857125 -1.2277112725957116 0.7590223062217444 0.2955567930302458
Ni 8.45178392885926 4.851743247161294 2.03858490790709 0.9708706651887408 -0.22578476654243052 -0.6077211127101857
Ni 6.915396876769233 3.927104189524911 5.339133341850099 -0.9379212068459136 -0.6534152723131909 -1.5185760594669264
Ni 6.099185780467416 6.113404329355748 8.896571857806254 -0.013656157330853902 0.09049408952651512 0.4727022012984181
Ni 1.2934822314899377 2.1162309096087633 11.417963176451183 -0.4943174655753486 -2.2713379866012557 1.2214115556299288
Ni 8.977990108762283 0.3869169596356693 9.496480282368447 -0.032720887271788804 -1.4581417654402695 1.5433218989530388
Ni 1.09131512099922 1.8708549015235416 7.967612832495304 -0.5447362843475329 0.602641127084117 -0.748950266697723
Ni 0.8367855762853035 8.64348537593347 7.793937222789319 1.033024513009666 -0.6942392483080883 -1.597103977770501
Ni 4.517957740540838 0.413757928480706 1.28919545887114 0.23776456461212597 -1.4138396010887846 -2.963998834678631
Ni 2.318794516598961 2.8155493053545566 5.714771359202883 -0.6757651007633007 1.0129750505579587 0.11666560571556037
Ni 0.8031654393840398 0.14226202192857187 1.8251508422369607 0.17160390962465283 1.0402071468010343 -1.3315714990164873
Ni 3.7105156714717085 6.0371479095720195 7.4549668328745 0.3037436997164124 -0.0394872594613449 -0.0397166018633316
P 8.154144149633268 8.556412900477877 3.5916902810019393 -0.21644034921305308 0.2103054399599088 -0.5642031348228929
P -0.4262125289887932 5.928249684947374 -0.04975293400569053 1.1095037763143278 -0.27015635067927024 -0.14289959971142485
P 2.4686886351000834 4.976316914788641 6.098532944370597 -0.759815234436685 -0.4887751956008808 -0.22781516670889798
P 6.074621439197301 2.1991263405465764 1.2963794221907896 -0.5154637606356606 -0.4026627800818291 0.1233468743904779
P 0.8062046311567987 3.5217833377191883 3.2483879363090797 -1.0707986464346462 1.1334800846242672 -0.47350361415379094
P 1.7688630926689088 0.5860292029106251 5.988840804662108 -1.5543115651953232 -0.6067785462912583 1.146771916637167
P 6.160107928654972 8.845071572948203 13.055861631172055 -0.7807722963043263 -0.3806006580754671 -1.9404575785690517
P 7.924000983807142 1.7975307116662014 8.18926451863838 -1.0194110359912896 -0.1907293176001941 -1.5457829588990217
Ni 8.95548201678017 2.821367660963206 9.74033300622776 -0.47323133432901077 1.3084382554331337 0.5460809713008853
Ni 1.8886142563607196 7.229956913589317 5.93624784921828 0.4382787295132258 -0.2544255702075747 0.9231646173620295
Ni 0.06405723678809647 3.785813122977624 12.596632008795162 -0.6391762458956735 0.695862385733808 1.013137544277752
Ni 3.130966881115376 3.404337386233657 7.825246614975008 0.06102899018786263 2.0434235753103325 0.18550072221140312
Ni 5.12517829822135 4.66862641034327 13.28323669818088 -1.7634939472943822 0.6075622185348182 -0.14884321888936947
Ni 6.667881631756583 0.79772882691675 9.850578396865755 -1.0984043239670567 0.26172364653088476 -0.7882740039980101
Ni 4.608875309956504 3.5978645613752387 5.703137414240231 -0.8401760921839402 0.4585786174128425 -0.024852540267305587
Ni 5.720669936196312 2.135594692141512 11.689076417777075 1.3002202383987156 0.6674982327688181 -0.07254341858536538
Ni 2.3828240908405824 0.5354214962188462 13.510084332636909 -0.7140688814395058 -0.03558458197282904 -1.2775086557338127
Ni 5.223223583778832 5.197810924416807 3.9568423490708 -1.8143225999104755 1.62147546463633 1.7045164403189097
Ni 3.9932730006939594 6.2974616927539335 1.9343708744856039 -1.4667575321337385 0.14722162412554646 -0.801020247920085
Ni 8.567090643417364 1.6909653617943097 3.2144469138687017 -1.3103156749615048 -0.0970293195418716 -0.34768950916974317
Ni 8.566214662778977 6.859684508167868 11.375613661967181 -0.01742359479308612 0.041824906455586036 0.5122768782672468
Ni 8.186702966834762 1.5122837532611684 0.7628389791322676 0.7955563965920364 0.6973153161302507 -0.18869300389645566
Ni 1.5136207763408105 1.5669265033988191 3.8954499375931624 0.06973294571976377 -0.9235459119608482 0.26510747540145313
Ni 1.6765716167783005 7.248527703123105 12.389703251971152 0.7169300050373847 -0.581008893526322 0.1845789817280821
Ni 7.451782873775186 6.397535565052942 3.7597651471315476 -0.06871118932346876 -0.14204907878567147 0.4971060840640793
Ni 0.5538419859167849 4.4267451039627685 7.433333799445889 2.0072247567922723 -0.8604230153584344 -0.13427329149499456
Ni 5.911301764806806 3.6815253227655367 9.698347715272348 0.503875541577429 -0.5706730588179526 0.012197313397140284
Ni 3.7997273838547274 4.88380413852623 9.567372934390605 -0.2567552467820159 0.3634208038620709 1.2602087310027845
Ni 1.0841781840085785 8.313277558657159 3.747362183376881 -1.3347478398619401 1.189198461232494 2.1387359121610974
Ni 8.451737824615135 5.226570751902351 9.451053770631503 -0.02869788215532477 -0.642298850685055 1.7247607923902426
Ni 8.771793487334989 8.364739115950144 13.29916110410186 -0.8031833170096748 0.8668733989694682 -0.5513273073014892
Ni 6.577793938735178 3.8538445456093466 2.890686314090915 1.369600942985383 -3.2126815888651574 -0.23754370685057158
P 8.615500099749235 5.375957723718091 5.690641319912431 -0.07936789770636654 -0.9577755225676795 -0.34480421720214816
P 7.00948641818074 1.7160921748427571 4.795568914033791 -0.19754839740455654 0.8835156355118396 -0.19955565764257246
P 7.737656849900327 7.334189388708453 9.416208182921379 0.5369162740824818 1.6615823599595447 -0.18899485140759062
P 2.54719494199714 7.8557113774083165 1.0881957078416824 0.3333167853878388 0.22520626833114119 -0.6093959293094473
P 2.8377070050813153 7.759851433022387 8.404128737961283 -0.595905093911864 -0.032178127394441355 0.28542793212636003
P 6.167724349784519 5.790619295383658 2.1020547766250264 -0.048214869142329864 0.6210880209353948 -1.6713648932676055
P 5.356575499487692 4.612028840254695 7.687064818651551 -1.0448276762921813 -1.6273648335375717 -1.2320201843837104
P 4.9997470916532665 0.3965177074323824 6.514563812086695 1.0622836669850995 -1.5221612057150238 0.8411166017203384
Ni 5.607142845461456 2.29881293719493 7.524199732108135 1.1619727927473213 -0.37443695246691644 0.6118855285005204
Ni 6.6170286504860565 6.246534944692805 6.118601199753584 -0.8504347937974709 0.13348242016258302 0.8420625105733756
Ni 3.231280495483838 3.241349662400867 11.421526112437208 1.926248376948205 -0.546992170261245 -0.4900172955380981
Ni 2.6989424511121114 4.3392484694612214 0.42692622268785735 -0.5798269574030789 -0.4810181773632813 -1.2698789071026968
Ni 8.255674916046646 1.3643905589550969 11.75611014456592 -0.7546653148046293 -0.38897731217493653 0.38461569277213115
Ni 1.3568755671626256 6.071375700410859 1.3986884282450067 0.7992955519194944 -0.7317850677723462 -0.24127077799317156
Ni 3.3900450705547236 1.2187380309135292 7.839970466378957 0.6548787442325947 -2.1756880639054144 -0.10772870823724673
Ni 2.722907437208593 2.1421230531096955 1.9217124932184815 -0.3497764736057589 -0.14647548998814128 -0.8555728863549845
Ni 1.351997738134138 4.838778733713178 11.000974262542156 0.669857219919298 0.5754979910104218 -0.4552595803419385
Ni 1.1274700692425086 6.818338222036038 9.691141621915518 0.36726511730882555 1.1920125336425211 -0.8312371378230975
Ni 3.562244422363807 0.9193868621455952 4.98561521874389 1.8693879163157354 -0.5880987104935678 0.7217603365464924
Ni 6.693995075629319 6.5372222039046575 13.409340104628315 0.45324820633886453 0.2614099719452078 0.8574613616269491
Ni 8.753803611277183 0.8665670738206702 5.870564976782316 0.13422881141030432 -0.29091389494159575 0.37620612855219726
Ni 4.1091882912745215 2.2086330356852732 13.239010740960966 -0.10422995105536888 0.6509197595848467 2.3532546188714054
Ni 5.982062558690764 7.926776459303503 10.993254567905767 1.0906781589673926 0.32297555136283085 -0.10726796655074429
Ni 0.755572028173192 6.084948789881434 3.8935071047457104 -0.39961525150475696 -2.137845539136344 0.0011508257749915664
Ni 2.3475082398403795 0.051308491202487976 9.849458985818387 -0.6471389523861758 0.7238912668465662 0.9813936762072517
Ni 4.451715162581189 7.17526805920754 5.5122151288917465 -0.23104987159611176 0.9276928442496861 -0.9761355131321059
Ni 5.083048239939385 8.03263180381586 8.354397933992773 -1.675207149831831 1.4693142371173211 -0.35785256574567403
Ni 8.748224997737987 7.292096213821788 1.7991987632186652 -0.9392083010884535 0.1244737889060695 1.4285740790854817
Ni 5.660762081379518 5.623325435149538 11.216944983724074 0.12456763417145643 -0.7064620156265252 -0.09122839658937835
Ni 3.6931804756804865 7.243262598443962 10.449339747834104 -0.046466518992655456 -0.35309782466950806 0.10432842430644612
Ni 8.731830328526927 7.530344505765194 5.60241992669323 -0.10574047416262435 1.6806712582701957 -1.535692407432239
Ni 4.473033765064861 3.9275467902685164 1.8456644646182012 0.20055478833104814 -1.1641849699072917 0.7608375050536123
P 4.427353679985226 1.9092412951825088 9.891457185962153 0.6028630132869358 -0.9055826426142082 -0.2736268257263739
P 2.809279128153476 7.097388770030592 3.907434274811169 1.8300788343034677 -1.9983071425876684 0.5513990410796891
P 1.9513068075226985 3.1666146826732833 9.682733129871893 -0.3666688784857233 0.6292810982691486 -2.0755515661931287
P 1.1930579669355748 2.5629902560345674 0.4411917979051978 0.060313195067760644 -1.1831327146543882 -0.5545496708935288
P 3.4615527531935157 5.251494706276645 11.913010264004367 0.01575777705488899 2.3599400013113807 -0.08710717533215322
P 0.6982469331123142 9.033342864259469 11.62868354631208 0.652197854966322 0.7611318963655794 -1.075019626494529
P 7.475176167244511 3.4861908612542316 11.365329649272526 -0.36404069683425694 0.20783512404254528 -0.8761594522570846
P 3.732793242233194 2.674156809470193 3.7196692081004037 0.7980678501599803 0.7841072742148303 0.8735564674165989
