# total energy = -340862.18706251984 ev
CRYSTAL
PRIMVEC
9.32829463644021 0.00000000000000 0.00000000000000

0.00000000000000 9.32829463644021 0.00000000000000

0.00000000000000 0.00000000000000 13.65290211890431

PRIMCOORD
 96 1
Ni 5.099862586794652 8.961673920510634 11.309012379975714 1.0918433829200873 1.17912924992195 -0.5866370383463768
Ni 7.391096951499963 0.6216431459909159 11.702134697324224 -0.7678915836869162 0.003107949501362389 -0.5101706305575213
Ni 7.8378383059393135 8.095830948392573 9.925441597528623 -0.7795026855632833 1.2040753783443263 0.5088580823936849
Ni 8.578150418257195 2.654506139484113 3.4553448910093567 1.3310104843066948 -1.489692543663357 1.0282211780837518
Ni 8.98050774721321 6.402092506398194 8.706523609407682 -0.5801853691837622 0.10977556346394643 -1.1108932004626868
Ni 1.6403992537401308 9.292371290710241 11.931571564491737 1.4252355016305518 0.17647923543908317 -1.0647493549167728
Ni 1.275877487491222 1.9159197616585422 5.153820240977766 -0.3967410152807554 -0.23261798741418002 0.14338579531922402
Ni 1.139675058722373 4.133357988154802 1.1719901367129932 -0.6093149395598667 1.0222163666505686 0.2399170921787546
Ni 6.82926309886528 1.7633834891273308 0.9941275444702945 1.658683698255511 1.1843593879726377 0.7499761368590762
Ni 4.911356410466941 3.6550869981261966 6.8967495786386595 0.3256901220805165 0.7074804295887106 -0.19432320559903954
Ni 3.060081730060924 4.332675657869478 8.031018890667548 -0.748050380591273 -0.6581386459307891 0.8262044604951965
Ni 2.5269043982931616 4.082835944855569 5.696332397104751 0.33604369740069867 0.11961440393123916 -0.6701721800565555
Ni 1.3582090152163 8.064096090323153 1.2902318671494306 0.08867529115022148 2.2629114531004575 -1.5249937900678125
Ni 7.894199861628745 2.1422894855770176 9.271589716104993 0.8006474379616986 -1.6433115866748151 0.8939466010371765
Ni 5.253854073276137 7.556394330979725 13.420461590930946 0.16608220847547528 0.6833321144772811 -0.6253395971228973
Ni 4.045084336799441 2.417511488069732 1.2627255250008993 1.7719855297051612 0.31082374649164535 0.8448742689905578
Ni 3.2245209064418074 1.294076990164191 3.3016948201085126 3.527242690912048 0.37987894941809414 3.2718832960362945
Ni 8.619810581731045 7.1112481149089435 -0.014245238611938184 -0.8793869580554468 -1.0266576902513738 -0.8442692884167073
Ni 2.261327852368284 5.037213760576475 11.963928619807845 -1.8006926678318664 0.07796356115967218 -0.8776206101836433
Ni 2.081431691913024 8.819006983616532 4.203550606178016 -0.0878355688577455 -0.06876441115890738 0.25587310128737867
Ni 9.068436251670107 4.808036219997537 12.817918128037366 1.4602927503450012 0.8172094560854378 -0.00730219008836807
Ni 8.94425799458012 3.805067317949877 10.544695767284509 0.37003393830321435 1.2691471711429947 -0.49520989548263095
Ni 6.079118964088499 3.5757405246580896 9.43969864356304 -1.13572465768407 0.3224461612219221 -0.9012050823718027
Ni -0.05933541599293851 7.8232861664365805 3.737509010308439 -0.047862628009233694 0.2972634913087074 0.043852992629208346
P 4.38716222635375 5.383106922602975 11.504563284349874 -0.041180073782735534 -0.4803301501573211 0.5870263033649955
P 7.287235719946483 6.964252849342235 4.076415279714716 0.048055460746330145 0.12361478333988388 0.12506128597842334
P 4.29274122888794 5.4666418003253945 4.934855317275489 -0.47093739608851154 0.5303473626157125 0.9005934169297328
P 5.583879806267926 1.4448875282030915 9.703321844608512 1.1711619154457573 -0.8156212856627114 2.228587225897291
P 1.3018101463486567 6.763685188157451 12.980619443143018 -0.7189434359229876 0.36932688493386073 -0.9395381736240465
P 7.178542431814531 8.837411708769668 13.612885650970929 -2.5187007364247784 0.44428714049083484 -0.7505165827435785
P 6.519899538308461 2.040778984250902 3.3251237647079126 -0.9991042061131374 -0.257955180627388 -1.3264285213629672
P 7.5619353379442265 3.485386663617403 13.261431892561367 -0.1381497437312653 -2.7374825892868144 2.2795380059135453
Ni 0.6911687909535887 3.7649183381936187 8.387032319454635 -1.3570650153019015 0.6174455390868011 -0.9537712865042929
Ni 3.842119303914528 3.712875782882242 10.365515087021466 -0.1478281473612938 -0.40229074145439103 -0.28124808971705756
Ni 4.28456031456493 7.213197046079052 1.8708846212154047 -1.9257647524435675 1.8481063812291396 -0.44880919673090447
Ni 6.56386379053691 4.78498600415699 4.83550245047949 1.1254608138642166 0.8271246583166207 0.15575100175279627
Ni 5.895062384262586 8.639362687114204 5.984954494722897 -0.11882121860598246 1.0619103428060808 -0.9381466925931585
Ni 1.536995108619749 5.999940399922347 7.294349477372626 -0.1861375844644536 0.20936338776161362 -1.5796392453268342
Ni 3.8100486272411973 1.4694862409394422 11.599341555497064 -1.109008067624832 0.843180940448535 -0.5748768124866551
Ni 5.675586270018803 6.446914961725523 6.528517016816553 -0.5526989908380352 -1.0877463300325783 -0.6333969202097349
Ni 2.8081991205399013 5.801033175168003 0.5369086495889765 0.24259206790775642 0.5892392518559142 0.9113753380365851
Ni 4.891617739192721 5.645054761946723 8.58247314995307 -0.15996246873098258 0.6499316846399646 1.0425062272478562
Ni 7.3127486055490305 9.475961455808504 3.9441326003170523 -0.27662807444654297 -1.2182195310551922 -0.3794621735956497
Ni 2.027085047847048 9.218621793973956 8.106150840656595 0.19854572832081935 -1.512776422066014 -0.9442636041241739
Ni 9.313966292600515 1.9130839601144198 11.963724330157135 0.946307631137396 0.9307627414242616 -0.2853248308895925
Ni 8.418879117058694 9.130777244168033 1.5793269093014173 -0.5907510605147503 -0.856435491465596 3.458079501652825
Ni 2.2812437612390117 1.9901823145952457 8.945449217794543 0.6518543555839741 0.4973991898244659 0.9698609929773039
Ni 0.35971582889518555 1.34947773151466 7.530762976036353 -0.20454899709210578 0.6629062425227615 0.5218598939699916
Ni 6.7475192536970425 5.367332776513795 0.3886382061568674 -0.5644250210257117 -0.09278879909796278 -0.3415602563435537
Ni 8.048555151597798 1.15805179899185 5.952774677003297 -0.4762539232054186 0.5135359474853285 -2.0052200676574174
Ni 2.291952643385895 1.0852724448890787 1.4821316770355348 -1.2133048673623943 -0.5101140662879731 -4.649520479062593
Ni 7.025390491842819 4.40066026857199 11.463808898277124 -1.3948604888831204 1.4344577915597683 -1.306626913256008
Ni 3.2110042076344607 7.336013372164297 11.951586353284727 0.23585012119823254 -0.5436373948563993 1.0229301048881414
Ni 6.9682080462327205 0.4893296832212268 7.792994395534512 -1.1213807302575718 -0.2668265149750889 1.6936771836115603
Ni 0.03247179333911127 1.7755848984026992 1.291994914819954 -0.07930413434796664 2.5872777141632284 -1.820620517104045
Ni 3.65239112100037 3.627867034620443 13.01206232559293 -1.0229391037492062 0.2130608912178589 0.11740402654348167
P 1.6210337142480322 2.832312761959494 13.223408831133746 -0.30010456030192834 -0.6384342255233263 0.15113252914417843
P 1.0119147365240198 8.305521681650225 6.138003823454527 2.294856895658803 -0.6768516489592601 -1.1476828584872105
P 6.8821918421591946 7.448083502924447 8.033736222870848 -0.2858375088599529 0.27938403992512534 0.484472711570785
P 1.6643263292686628 3.539304206133939 10.368068241240632 0.7524266552820977 0.07803863737198173 -0.3313432066012358
P 6.3245090806006115 2.8166039139321843 5.573251147454199 0.01931258428568287 -1.6049885227249003 -0.7377428280176779
P 2.8731333789235705 7.189008778303035 8.482766740793513 2.09931987225732 0.5828289774541963 -0.12355050576085172
P 7.769499220043786 4.687169507473876 8.712872446680478 0.09074271520221146 -1.1688134698182386 0.5666269137730371
P 0.33821970692717407 3.7912894268950454 6.138672662173979 -0.0912952452715718 0.4275947674368184 -0.6757391326213718
Ni 8.501471837031255 6.086283094305229 2.1439154073176114 1.3382630521040502 -1.4011121262197872 0.4221483996102665
Ni 8.399765441519527 8.262592870117162 6.702823663175636 -0.7951375638870629 -0.3112081264142576 -0.16761715706276292
Ni 5.622666855019441 3.034848693294968 12.453412219889197 0.36746823445856713 -1.1797496571147683 -0.48149588833064816
Ni 7.597410842129415 3.121965636125752 7.127224684989925 1.5736357194452317 1.3199616826917009 1.1201869670597868
Ni 3.333680609301411 8.00419911099812 6.186949384974296 0.07308437869049993 -0.38497873253850473 0.39565420997447986
Ni 0.2326383378581143 4.745545974786762 3.9244993387712817 0.5028229319431986 -0.40511818360085716 -0.425494433264364
Ni 1.7172830574462368 2.8769859645739735 2.9654107343010936 -0.14741779929675256 2.257048566561777 0.6868817795017526
Ni 5.325168885134081 0.9462808560488726 13.279317964537354 -1.518868393896365 -2.329681716647472 -0.03863956674906894
Ni 5.511128437048813 9.40627909549734 2.1092915764251154 -0.6786766179831409 0.3212305436472661 0.7886560699277773
Ni 5.636864519329159 6.878982908832951 10.874263481013744 0.7788005172899362 -0.46258928123413234 -0.4769735749802624
Ni 7.1061921792612 3.9304302684481005 2.334127728719072 -0.7305933614570901 0.4705414462016735 -0.6177777256152392
Ni 5.57688358535315 5.893131427290108 2.9568361659479443 0.6471646634177887 -1.9123083698283454 1.1141605583600491
Ni 3.1066019349969047 8.727561712113141 10.198840851265675 -0.6527686398681274 0.4906122488096196 -1.4402671991526939
Ni 8.691200019945414 5.930267367905736 5.802387643537104 -0.13774942296905307 0.08786153699967449 0.19335235704533799
Ni 0.4554987573657384 7.097358284319476 10.872543343498164 -0.7160766558981538 1.1288621262362817 2.3336604987895613
Ni 9.275599017103886 9.279199738801358 13.20226065455256 -0.49538524471823076 0.5281261865946776 -0.280123232083995
Ni 4.664240559462518 3.4790807364995517 4.049819379114561 0.5493365021237054 -1.4040244147705754 -0.4218781766680154
Ni 4.537898138036226 1.331819269925767 7.9460978283745485 -0.06705874132171032 -0.03398047071050277 -0.5644155079440151
Ni 3.2792406822899047 5.058454287273734 3.019762975343801 -1.4403713288307258 0.5538798985200138 -0.9856439668431735
Ni 4.88199093921399 8.38760134542237 8.675668409514612 0.6342086174777529 -1.1016847944905412 -0.6652019805354737
Ni 6.769813877678794 7.3193063966198135 1.6799484241566287 -0.7877554124903787 2.047327795460745 -0.18488571433522352
Ni 1.7567230868164643 6.413874142418677 4.702414739261899 0.6314539375507512 -0.05817583700978368 0.2283368435403229
Ni 1.7757061662318885 5.848392926613757 9.689041158477272 1.060031380615813 -1.7187510958610526 -0.24191818176918334
Ni 4.580873591042053 1.4700179537289653 5.5255751668230975 0.09998737372893102 -0.2881317042107683 -0.6402537952305682
P 0.3047357936290586 0.5659756154162304 9.921823152071502 -0.3446507223434193 -0.20832466208445413 0.09016421699092214
P 4.5342414465714365 4.557273005822878 1.1554809210130337 1.2916108994631499 0.6987823875940804 1.0543037341034165
P 0.8923642463617915 0.9289638100406202 2.993876957959132 -1.7851297803966033 -1.8581596517000833 2.5380099782763517
P 4.409167673204357 9.026589522305198 4.176026540269834 0.1981358944769104 -1.1472270018967146 0.2221415133628884
P 7.644042986600033 6.350702931705531 11.49368182875376 1.6449802326264895 1.9141829611432388 0.24744888177942542
P 2.8149714623854036 1.6628804436129425 6.728723673002135 -1.5207671535809744 0.7554029643016023 0.5239892816081686
P 3.1254730748776924 8.988240903397676 0.19278693069809785 2.0149213541055815 -0.8949732425294781 -1.2624358205610904
P 1.4215761201150596 6.445618328782651 2.3710724392963627 0.08167109191824644 -3.9314854138864876 3.500364635574281
