# total energy = -381173.92328081495 ev
CRYSTAL
PRIMVEC
9.20507836272873 0.00000000000000 0.00000000000000

0.00000000000000 9.20507836272873 0.00000000000000

0.00000000000000 0.00000000000000 13.47256264743027

PRIMCOORD
 96 1
Ni 0.8058760681926644 4.788398878649162 12.968782577936816 -0.9434202822872719 -0.8891018713503657 1.71405060506159
Ni 3.7259303327276765 7.389284543267432 5.90323235341596 -3.3086487856911018 -0.17917837953780108 -1.3398152270825185
Ni 3.062345444171474 7.1450277909496185 3.4582319280468505 0.4237203720830767 -1.2113140621846106 0.4044892917676066
Ni 7.7814761087188264 8.412069996698165 3.979255928172812 1.4478851207092676 -0.5698508200269734 0.7452363081812455
Ni 4.705682045171572 4.412822479503917 11.033907340003097 0.363984903895657 -0.07417195532772387 0.16079319216239404
Ni 5.773434306029196 6.2031733858089995 12.558395334237574 -1.5447491183178685 0.1457165003349297 0.27159539711864195
Ni 1.622864506892134 6.6096512327601955 11.943817361967966 0.6566998566017336 0.923095454686991 -0.3077394511393668
Ni 9.075139400870354 5.552733349045141 10.643660807593523 2.049091572229387 -2.252876694572275 -0.3493800094982886
Ni 0.2736863081058395 1.2117657106413882 3.638830961478143 -0.7601422787588006 -1.0537681733149205 -0.011212580886367784
Ni 4.070688129771545 4.446513066030511 2.3244617662301867 0.27713098222489047 -0.7631347857282212 -0.9417871175592232
Ni 6.351872220440315 4.282303674487362 3.289339913179636 1.1617467927794445 0.1562989038364663 -0.5252987444482115
Ni 1.9828843237341156 7.066075834490983 1.2068630859462888 -0.12787895793287654 0.31012594909367236 -0.1613079270152835
Ni 4.8587072665972855 1.9605343936558173 1.2609953898225035 -0.06526256865323599 0.07154608766910259 2.400785317462517
Ni 6.821874312642885 7.224688538436272 7.917380805040493 1.2817661454585858 -0.9314669665801377 -0.42482877465590707
Ni 0.16394244427285665 0.5538336606605907 11.040482527422753 0.5536675253988916 0.5116431013379898 -0.12448407331871464
Ni 7.98916108500654 6.328666218081422 12.416974034499134 1.1050208008423097 0.44908070522473625 2.3020693542468416
Ni 6.495664748345217 2.255271795293807 12.318301118320669 0.7501026351346114 0.3239039767143712 -1.0051501551969013
Ni 3.5369592805953087 4.225038882470437 8.714134640651775 0.1633846070386541 0.032457863418389264 -0.003708816310154903
Ni 6.001977989712883 8.762194354382746 9.73655373196673 -0.4308572402381741 -0.023516337954385305 -0.251774762848289
Ni 8.984303688344552 7.846344295399949 6.001608866073616 -2.5177077763838898 -1.5269596555449316 -0.8677236627849056
Ni 5.072430774240586 1.7889885547187616 10.363849440396212 -0.8036774830372739 -0.038857339186829855 -0.45307954197148426
Ni 6.033772330112572 3.0034789685327925 8.039913284136151 -0.9262414565151402 -0.516714088102994 -0.33921155360571903
Ni 4.767540171253188 5.697989484397509 4.472904025476344 0.47854040524675 -0.3763537098736551 -0.8331055584904039
Ni 7.860087477280881 3.448682579833001 0.6806805599488778 0.28456147036100665 0.01571483963209552 -0.282800521805842
P 0.31493150238171763 1.8783514547188116 9.07161569690249 -0.03062903773976661 0.18819986631012106 -0.19927695005988905
Ni 7.204750338868894 8.983180668793665 11.872493653884904 0.10305264291781606 -0.20079647202820902 0.3423984359741329
P 2.871634632243061 2.793152134777009 4.857222487469761 -1.5230358950104932 -1.1860486027496024 -2.622266314423271
Ni 7.143637824128439 6.6600858566889425 10.291919117654102 -0.7556461906606599 1.3037267088900772 -0.5519986223369009
P 3.45594538660062 3.0269887384751213 12.034339181324219 0.9653232530079503 -1.4452016603398337 0.48504272514164204
P 1.7310057665955318 6.267102654504956 5.252668968603069 -1.7945539019239805 3.5864896494988234 -0.8070872800497713
P 7.015825312127955 4.503695012342863 11.390054580410178 -0.4943128375896584 0.03199763595251909 0.5530648588178861
Ni 1.8264808385774558 2.3950877293791755 7.404062375947704 0.5222113637721393 0.28164763914832136 -0.5418448217323507
Ni 7.089447528259023 6.629635457719004 2.8518851367805444 -1.328583620032757 -0.6602240677049082 0.13426429263393005
Ni 9.015057854897927 8.846135463272368 1.8738989583518955 -1.031080759019734 -0.6257466027533288 -0.12955017498771237
Ni 7.6573364229544385 3.9885788314608277 9.42350466809449 1.602476554936324 -0.3129197097887256 -0.29010348322515844
Ni 5.96131915892382 7.673463720111431 5.5889985959683175 1.788102746981998 0.5452314788163964 -1.944961637086992
Ni 0.5219997384242729 6.98775902843408 3.4052714306364376 -0.07909973164664441 -0.73520772030065 1.3084459687426173
Ni 1.847321135816858 8.835963851766389 2.9020841107051707 0.268390259917783 1.5196116998202926 -1.9345388990917716
Ni 8.579611626580832 8.638984381525239 8.990334855637508 -0.4330935857678606 0.183049175347117 -1.2546798307647553
Ni 0.23613142971480072 8.297190619689449 13.0945092191977 -0.3305821600654952 -0.06424184069820549 -0.740522447645344
Ni 8.50899947104927 2.7958216074799362 7.143798912998443 -1.3541115891005324 -0.2207502894423166 1.4723383686556257
Ni 3.0296029807083324 0.41863683485911407 6.5323874876592045 0.47366636498390036 1.1371554765933254 1.0748586754366325
Ni 2.5247504621151364 3.1279592421937608 0.6167034248458341 1.0243089875135392 0.6198189244149841 1.8250302161359664
Ni 2.3861219831286555 4.808797332130838 3.8674068629358316 -0.9261733222813662 -1.1642983555567046 -0.3550197242825692
Ni 7.654786616269228 0.9452694891847081 5.473241974998949 -0.3193515814569984 0.5715382350317253 0.42275183752222034
Ni 5.719685853917505 5.1832323015686255 9.159402687499986 -0.5969816148054944 1.1089193645657676 -1.0214800027051762
Ni 1.4771573227037538 7.978832987169698 7.3155205689307605 1.8544521209415095 -1.1828159547449177 1.488716810013649
Ni 2.339857259663446 4.865003540144879 6.498288195656714 0.5645376353441762 -1.1027710855761848 1.8554599933807334
Ni 7.00097752085271 7.961656311088107 0.6413205657059633 0.5468337903065098 -0.7268701469692321 -0.022976149180199138
Ni 4.050206830585296 3.2935033700883736 6.3357283541424065 2.274368288787148 0.2849355658709738 1.828580138270754
Ni 1.6518881187277497 8.814948658039553 5.051699096924959 -0.9979587796547845 -0.7169210061763202 0.2728210419956269
Ni 1.1923982259277393 4.079322493203771 8.914821916426506 -1.3227045355441607 0.33424263963621786 0.043028182735067824
Ni 6.462066212601481 3.3741306507950526 5.592298616533832 0.8562048635120287 0.09673749933306565 -0.14500636164178254
Ni 9.207379555526384 4.6218790124562386 6.098113065807911 -0.028673456675292558 3.0958930844184875 0.9770600818289045
Ni 3.89577323218183 6.830803238580262 10.561707995613668 1.0491170476961544 0.0945561754110307 0.18574651967362205
Ni 9.124911259162513 6.135341163919798 8.341577507184324 -1.2631171628988311 0.02706780275106951 -1.3737946693517566
P 0.15356187748978534 7.696172648242882 10.60549379149647 -0.02201635637009112 -0.8136777887830954 2.2787481630223985
Ni 6.362016216711438 0.5225566456605732 2.935132182767406 -1.7024526158113453 0.6939602836150888 -0.9185152915154762
P 5.041492506121492 7.962576818916703 3.5568100319189697 1.2400579670865224 -1.057161772377502 -0.5507369820156579
Ni 4.71303690272205 6.655216370275673 1.5278690194889077 0.8037031940688869 -0.5183135713796299 0.49317255333762805
P 7.361595667783279 5.056386322788168 7.412402176874778 -0.49821088709248396 -0.5258649013643267 -0.04209924316289524
P 0.22987565851166578 1.4829657271021912 0.8390226345925594 0.1271528784001294 0.9566354954259655 0.23131340967014358
P 3.985044081399021 1.7689122789770941 7.968670580742004 0.5075596752972356 0.22729220432589245 1.5136577962297029
Ni 8.833009021636597 6.319534780421756 1.3428764021917294 0.008502381044056326 -1.1170635909394566 -1.0833525718402568
Ni 5.295101617977835 1.151371192007238 6.239049257920681 0.2830874569186415 0.6200906900191321 -0.8442692884167073
Ni 2.585025314731569 1.8813891305531771 9.770100719272063 -1.033715882649736 1.4420492307537809 0.9827630457509525
Ni 3.5347316516501075 7.6373798132304875 12.976947482376456 0.4133688536454236 0.0016506482295455443 -0.6257941681618127
Ni 2.549926351227223 1.7944931915337627 2.74760816894159 0.734393966150103 1.06901455795103 0.2820011658329982
Ni 6.9359068224492955 0.6768779421089498 7.837906000135215 0.3377146573452184 0.19657240664453243 -0.09411625966013468
Ni 2.0768037374857133 4.26232865460684 11.123096264023543 0.8223256942660805 1.0319490205573 -1.0544500298732937
Ni 4.900240579823514 8.838835836191606 0.9285503054939281 0.7520142503350273 0.1895008445097317 2.2628777716490447
Ni 4.169136442039833 0.9651156379692267 12.859318548483724 -1.1012451358499613 1.1159377048651298 -2.7954218848057595
Ni 2.3390288026177104 9.04736767968163 11.356952198386056 0.5446833196224102 -0.540637688798127 0.21552452226700303
Ni 4.887381085458035 2.6516884916784544 3.853988620318395 -0.9814620675513419 -1.0213002825942024 0.39794480578086944
Ni 3.871361364567478 0.39594447586857806 4.238575870597762 0.3130770613021963 0.19452092343214242 0.10314520263162236
Ni 7.552048737519685 1.7267898407405646 10.230835138656333 -1.131226255593084 -0.6940646704034369 -1.3070663147862716
Ni 0.1623389196354433 2.9092097618063284 11.125520881644062 -1.344196901089982 1.803377156642565 -1.11777398674292
Ni 5.149228742380308 3.701739386992187 13.418577682286056 0.6708823187497026 1.2079132640331776 0.36211211235297636
Ni 4.84115318230597 5.628960602331134 6.807159995002787 1.0790907112401091 -0.7850799225407447 1.658037322920764
Ni 0.1876712950783912 0.6955670125529241 7.025523782610037 0.4933018798266407 -0.0363620835688019 0.2233987828087572
Ni 2.111019013474608 0.23807462174096583 0.6365164353485234 0.5786969575636937 0.4576285947947473 0.21335862496393576
Ni 1.511575110414939 1.977085124413964 12.540234635287213 -0.06873818590666227 -1.658999429723717 -0.7749484905336976
Ni 1.7763775974670035 6.865469563405169 9.438647942382714 -0.4533844748064127 -0.5229582692404929 1.3929840977960137
Ni 7.198187118051008 1.16035534841433 0.7492050037251832 0.27493680278704913 -0.5289476540547083 0.15206069738540265
Ni 3.461634124981339 5.270275521840615 -0.04467960898436787 -1.3938086505798382 0.7377613399604391 -0.6238604414742095
Ni 3.3058473800698387 9.034839568134444 9.074646929182057 0.7038420615051749 -0.8892857052263975 -0.33977462519804064
Ni 0.7211534481565642 2.8598705421936104 5.105885710763061 1.0938208183614324 -1.0595140746597624 -0.2800386427899887
Ni 7.261867849633243 5.730492615825216 5.3389877492139535 -0.7246574555886293 0.6140195441243876 0.1398299596471656
P 1.7665097535444598 5.048525185931961 1.6161420382199008 -0.12548886043414517 -1.4175314481180747 0.07795687629145284
Ni 0.5747807368081097 3.226416759540334 2.4753946733615035 0.3529970374255856 0.013781370054808523 -1.6615103690710287
P 7.50755138908538 2.1927969289670313 3.720084187508266 -0.4990837766157405 1.5133718895581678 0.09331356125318123
Ni 5.002536614815331 8.352743267145186 7.416551826166088 -1.0643266655570571 0.869985976456521 2.6203333590666165
P 5.1034426829859685 8.50854842221326 11.692553704058884 -0.5147009143277071 -0.3122795051015654 -0.02798851479312599
P 3.4568750995075006 6.7876590366539915 8.297899410717468 2.1736949447347853 -0.1585524757573334 -1.466752904148048
P 6.6134897504054395 5.090951391751927 1.2177232373080582 -0.49912028628063076 1.290441561745397 -0.08231438192920017
Ni 8.675381261067905 4.7299282213767775 3.7654330056840233 -0.003144459166252649 0.21181776283937714 -0.11486146262728604
