# total energy = -381173.5915254733 ev
CRYSTAL
PRIMVEC
9.17550921068497 0.00000000000000 0.00000000000000

0.00000000000000 9.17550921068497 0.00000000000000

0.00000000000000 0.00000000000000 13.42928520452488

PRIMCOORD
 96 1
Ni 0.9768430308440116 6.258165035695261 11.089473287920715 1.330552827943986 -1.512210779370531 0.15795957936834085
Ni 3.5721907824588013 3.6796635184610924 6.647871838380936 -0.7715754602964067 0.6961400648752268 0.4758186354402128
Ni 8.918741480235884 7.792897360009033 10.049066919020195 1.035403554764804 0.4278374795752438 -1.8501205834456913
Ni 4.449965843472988 0.0656727875576537 11.934162381313397 1.5616618349128073 0.15863577949975904 -1.6627133882401945
Ni 0.6174722957559443 7.96667232348102 7.517001734888902 -2.52616207779883 -0.8492867962359566 -1.9317086287318281
Ni 5.0325923089962075 2.169108660156544 12.991879265345986 -0.6177383877368716 -0.49641034354863545 2.735168082221025
Ni 4.078247626028711 1.0818383794373878 2.9167199516045654 1.1640271041731889 0.1532115231603942 -0.2893195538712824
Ni 2.7255849252523303 1.8133925302720724 12.012388182627111 -0.38635684383295393 -1.3464113922427972 0.6657907631594082
Ni 1.46657664404185 6.274992919058038 8.74074578265982 0.0718222241486247 -0.7270562948381092 0.7345574883111607
Ni 4.266070293660137 3.6207475756735303 3.5631116163805747 -1.4178610635433515 -0.17437375906030617 0.23405883362576466
Ni 7.027201140475934 6.9363085490955285 2.6784980485668908 3.0371413203005755 -0.8298831948983643 -1.895178137905962
Ni 1.7842969914807068 2.4746806337827967 3.140196811804736 0.5863930406563708 2.356143510383426 -0.9234523238057772
Ni 6.558681303905543 1.7618720476755674 11.454588809144788 -0.5564818549192352 -1.1552853534248169 -1.314875269307729
Ni 7.91127977611947 5.335062960606856 10.153506231772903 -0.42689825559042605 0.9777172557969293 0.9907751174221519
Ni 2.2597076352514494 6.025721868176603 6.311723398823322 -0.3210829623258083 -0.2796676326038151 -0.4371189048771698
Ni 8.752738172820752 3.0996979505252247 3.841809441925455 1.7347384724282446 -1.6455859845312886 -0.8156768214909953
Ni 0.9447287496173387 5.0995276465815165 3.8058322714426596 0.6329793730563421 0.37565436981378525 -1.224525675778878
Ni 1.6955422936791051 5.458253343392372 13.300873703800109 0.0965194697849886 0.5793788141220667 0.39758716533113464
Ni 0.8426759867352178 1.4422615453987977 5.346453437382511 0.3695120043614733 1.4905615765318714 1.872444700864188
Ni 5.057577219790559 4.941112485044799 5.419239997007319 0.8601756752343186 0.13452963048017477 -0.07762340421143406
Ni 4.914310823483911 7.062306637611148 6.699050992045546 -0.42792129753830177 0.09389128813352217 0.37537052002477933
Ni 7.401093953534703 4.881187236275829 3.820000174768976 -1.0386364598798048 1.4037701326679244 1.4648348611897288
Ni 8.78897225755336 0.935571591713276 7.49198287471154 0.27540808599651273 0.7871298630912379 -0.25864577893650936
Ni 4.953196630294951 2.16913618668331 7.994936561164061 0.45744064715365734 -0.8207259538791284 0.6374245533118893
P 0.8024652364358548 4.304763414783817 9.792996816027628 0.1553231701867583 1.3509948978484219 1.112409379996897
Ni 2.5882183811824686 1.3052069686322798 1.209057728190514 -1.830867905863666 -0.41428673747400263 -1.426211492390576
P 1.1236970511391253 0.4391031549667583 12.802110472272224 -0.30357554956966426 0.33502734032104237 0.19484848197489021
Ni 6.23077614156337 4.203052898384484 12.114880452386592 1.2042075330468163 0.2328586426700764 -1.153993888306903
P 1.9608246076292664 3.8128552059714873 5.204169738081399 0.4489269532556914 -0.5998404244105282 0.13179680493004398
P 7.788447238181908 2.234906234635536 5.592786490307151 0.12371814168696758 -1.0531421096951474 0.6774219196404333
P 0.4090689616126817 7.358216800342634 3.1248067306900222 0.3750254779805348 1.2566513526688294 1.0311460650400306
Ni 5.415522998343055 5.048475114940028 8.076036131872117 0.05451381477716418 0.2570907757445637 -0.28567167270604993
Ni 1.372169832744354 3.9247964148187466 7.730849816026425 1.214831588419566 0.1795262497955231 -0.2674212111362943
Ni 6.181375201527826 7.7805654760179905 13.336838028570414 -0.11808639732248695 1.077500226824538 0.0016629895247197166
Ni 7.204169181052745 1.2689820594085932 9.189646546053389 -0.7448902376957365 -0.22617171756820403 -0.38992836323429625
Ni 8.945634896885993 1.9767716421355397 1.526211029177997 0.6087359271279452 -0.6930979356147934 0.760894840654109
Ni 2.447998253837893 8.327012909862134 11.358086311609528 -1.3270903233166822 -0.5599482162012808 0.32430301192500277
Ni 7.188414832233831 7.776886096940307 8.175614259998 0.292511835556335 -1.4704789468493837 0.03691332808658159
Ni 4.346218364092991 2.9736448089560734 11.002639941687358 2.512152136672983 -2.438428067515955 0.19907614690299263
Ni 2.807779134174769 8.284521128044783 7.855970725889111 0.6708815474187543 -2.0994345434583135 1.2157199045617901
Ni 2.7201163219348743 8.165597356907954 2.582558927279436 -0.15494341824983637 0.40664310488581584 1.5254416762385083
Ni 7.5642620286929665 0.557951686930429 13.206640309621237 -0.21669540264665263 -0.1771595493355594 0.15087876126215952
Ni 3.351437213306652 3.468966307087353 9.13919225759361 -0.1669972640905769 1.2195662748910738 -1.7062470498567712
Ni 7.689425145896693 4.085331118916423 1.819171265791089 1.3479090598342462 -1.2850299038115225 -0.8530722314203179
Ni 4.189041896260733 4.585855130606423 12.919280803654077 0.6805805198740731 0.15836195701308212 1.0541510105756362
Ni 6.824743536114067 3.4631215079040985 7.147763657506218 0.9528744857216362 -0.1967238446207322 -0.6327011796942911
Ni 4.196942009442494 0.18395060286638185 6.6674918291086485 0.4479360500973318 1.6921211519783503 -1.2814992649504446
Ni 6.835900954963106 8.504669113608088 10.442611837087902 -1.2097860555758584 -0.6354378618991637 2.1846730410128443
Ni 8.235257820643069 3.1756436378718456 11.047588007243101 2.238571847913829 0.1522974959865571 -0.7804930745010107
Ni 6.520538713317178 0.24284085422896223 6.870408208916611 -0.5896426579419201 1.7346029752916448 0.6956518123848986
Ni 8.674461906207968 5.116768427845779 12.62492405458307 -1.4396704461089591 -0.27786631772901826 0.25221930658487535
Ni 8.715733345338704 8.419327705125434 1.2867467622322963 0.33218884243098273 0.4667691236434348 1.1848381273812691
Ni 6.440858593839342 3.4968782052277922 9.61880620200148 -1.0700332290235315 -0.10118422225050962 -0.3005349629711276
Ni 4.750876658566912 5.043795605389856 10.344054025554136 -0.41197043063600014 1.9341390925501913 0.279355500680035
Ni 8.788504306598343 7.586457584775058 12.47019194232761 0.8024469530642825 1.10333390005819 0.6227561526664371
Ni 1.5604145737861879 8.088247816696281 4.963450261515181 -0.6105953489341871 -0.265703200003923 0.36195218973634435
P 5.225076135159963 5.352982729531339 2.8640094055008887 0.4201169710025345 1.8092323298717616 -0.14301838467747627
Ni 8.879048228639718 6.464513055840017 5.28055584985627 -0.41079903603571827 1.5405255671548244 0.45169268892628667
P 1.290397697232323 0.2924977909634281 8.781100588449258 -0.6139184997701492 0.4561460967119499 1.9261185362385604
Ni 8.283465944518765 9.032572843921058 5.4387260253047724 0.02354847674390138 -0.7037075928098396 -0.8206462496811285
P 5.322776954160424 9.176518227887927 9.086159651126774 0.2553285416378183 0.1462924274430577 -1.2110253272995983
P 3.458634684041286 5.882308663727205 8.134561197979606 0.731696621823598 0.14352437777961732 0.12242179147304724
P 0.9284513967898765 4.102324161439794 1.5458319374566019 -0.6438852213355685 -0.43694381275188626 0.35194777022546486
Ni 3.5827609687368374 6.626928739266685 4.191346784101915 0.6079761661437852 -0.9174415988353233 0.6552099023197684
Ni 4.189445618653296 6.773168000464031 0.8885810578715162 0.22093540886992918 -0.32551580128618135 -1.0522399095958526
Ni 8.645751738791322 3.01698991310316 8.712517329461575 -0.5584844871715607 0.02634480854211592 -0.6085865460342745
Ni 1.8847596386666614 8.027900494516903 0.6493773753791977 -0.5417057250513252 -0.644190154170497 -2.5448473129131592
Ni 0.8788366673964514 3.071052011671033 12.83730864204755 0.6625681424570524 -0.27374458225116083 0.6521214932024317
Ni 8.893141810343765 6.077306579335563 1.590590987528554 1.4013309270988124 -0.9243586376701306 -1.0434493078874159
Ni 8.92146660638569 0.8130601965879802 11.038885954581566 0.34890101297934106 -0.09304950895851717 0.5079188584088672
Ni 6.467880467614356 6.814430264085844 4.797450624303617 -1.173998613563604 2.6781590118258327 -0.6218035589451807
Ni 5.497185027748022 3.4290253167502938 1.6036982020234976 -0.7129375960485399 0.6928534237041551 -0.981192358829723
Ni 4.371322556503327 9.125263835050156 0.6939152956861319 0.2903469666945322 0.16658125959908082 1.3073121122484903
Ni 8.505898631803623 5.353377276414982 7.950042631110957 -0.40933504989568215 0.9635473920544503 -1.2417397256643194
Ni 7.262773156536962 0.2063801344259823 3.168196794830826 0.35453070046129265 0.23234185093465792 -1.0213992700659118
Ni 2.520503125338798 4.187436182199399 11.381587542611205 -2.07119148945222 0.36748520373943167 -1.2554614461257863
Ni 9.144303016063112 4.216449141410467 5.897564782411659 -1.0488817917568967 -0.8787477818095513 0.22980262945257196
Ni 4.19716222165662 7.377503720096481 9.898403227420706 -0.008097946516786053 0.439284802180237 -0.3271350820571592
Ni 1.4975623376711282 2.2275107744444793 9.906058354514252 -0.7888908116464026 -0.39678112449007147 0.560316655284293
Ni 5.601427984609803 0.1614072949961497 4.764925280277243 0.14762194488775865 -0.4455168991328779 -0.44657233698058574
Ni 6.552597941490319 5.627229515698204 0.5095582177745096 -0.44317719525610777 -0.16268603830973272 0.5723777002138852
Ni 5.229929979379651 2.452191461415204 5.586219578571742 0.965030661468196 -0.4343919928643099 1.2337214833455332
Ni 5.188218115820664 7.8456748873278395 2.762054820564232 -2.484507635482837 1.6750449132223542 0.26706459912782393
Ni 2.684919069710441 5.586104884710218 2.0659612590600402 -0.6281019903593829 1.0025111749121576 1.4655167177481019
Ni 2.386944417471527 1.6403516075138374 7.525824904268208 -0.21992702221007288 0.4951281344021021 -0.7700230282076224
Ni 0.6162079106265057 0.619189033475233 3.355387269897533 -0.860312457922499 -2.6666852068582787 -1.5754349774374998
Ni 3.1799836535919073 1.9580444284259286 4.847810405021502 -0.6126463179259449 -1.1580678012659604 1.9890426865666064
Ni 7.836903100798496 2.803255608276269 13.191989774525629 -1.9294524857077997 0.9911448420567446 0.8266371771572408
P 7.055544287535704 6.637104378661079 11.789031521593817 -0.4120555341506388 -1.2439709289876832 -0.5536256164173627
Ni 3.44156823744654 0.9098021749061015 9.61993387204798 0.35972921394309665 -0.48018025484301824 0.6709972470610122
P 6.930647260090711 5.848074839939571 6.443196513512643 0.6831665354336943 -1.3229814433546312 2.8656991330647674
Ni 3.0044286413890697 3.6017267456784183 1.1505308269812409 0.20765668948315205 -1.9396728778842272 -0.08558328248845908
P 6.535522319386652 1.5982176705444429 1.6383054690242522 0.700918974321109 -0.799518723673894 -0.5795906730225565
P 3.294530706972988 6.2002125213445 11.9477797541044 -0.2880617702047813 2.1294889396415324 -1.0542821368368618
P 3.513898774277929 8.827160725686335 4.5765254731346285 0.5686866245155432 0.34069405168851646 0.008424476618269363
Ni 6.5689578738980785 2.6556124942138717 3.835296665692686 -1.0812738349343571 -0.9094326124879177 -1.7078545035532071
