# total energy = -340869.7302401715 ev
CRYSTAL
PRIMVEC
9.23263314249942 0.00000000000000 0.00000000000000

0.00000000000000 9.23263314249942 0.00000000000000

0.00000000000000 0.00000000000000 13.51289185290518

PRIMCOORD
 96 1
Ni 7.97810289049729 8.318667026637842 3.5176756706855112 -0.15449450363787587 -0.8133651426386831 -1.4939639173452013
Ni 8.275209022766191 4.3508875679879395 10.292742467006862 0.5352980217527684 1.9019393678891958 2.043151552595868
Ni 0.9186959236562051 3.0413770561681885 9.95379865797051 0.38243822550483814 -0.653259720571933 -0.7707647914696533
Ni 0.8145527458631666 6.234778648506039 3.5283513643070936 -1.4107625048253574 -0.3456205424558564 -0.45488625616291983
Ni 8.271100501048986 -0.08324695936034099 7.286529740421414 0.6933861562791735 0.9256195066604251 0.34695057412118957
Ni 7.160580929838048 6.967074173274224 6.9677740068611085 0.34910233035686977 -1.1600010137329313 0.09116643300319137
Ni 1.530382792810084 8.692791783996462 0.09651148329541652 -0.008482583549714422 -0.5337327341481776 0.6239329465833577
Ni 4.264285469769098 8.061076563918688 1.1541400694246615 -1.3407670494728263 -0.14603094625155497 -0.5246726808284383
Ni 0.005764856090388497 2.084617756144519 6.046559420902761 2.5439607965431477 0.29973277878480636 0.33962267300120863
Ni 7.006229770134149 2.7859008664226086 9.428038981557883 0.014717765826148844 0.2509214137090582 -0.9843195916047951
Ni 0.6343428274501702 7.3099741655820845 7.518572584166007 -1.2494316949919386 -0.6693175453657441 1.5407834488019012
Ni 2.5902798368852107 1.3705936122265578 11.309493570208184 -0.252152715012998 -0.3697048370985697 -0.21034374939701195
Ni 2.442742360388721 7.6993235348770455 8.975654733224616 1.2244099761366203 0.22042015979640744 0.8942494769895761
Ni 4.869816942453627 4.854518469452709 2.8799887835365277 -1.7512876350361775 -2.687348648744901 -0.9847404811922976
Ni 5.863488309500636 4.729785596644976 6.936775441320623 0.1229118437355883 0.10470534802989065 3.132570128124547
Ni 5.856388414667983 1.869709756118938 0.4849680569722787 -1.640524253737665 -0.7930837666818277 1.1601030865284343
Ni 1.9146542139152403 1.0677724800858592 7.813424107438636 -0.5405029629924756 -0.08243470955714836 0.2551647623664445
Ni 7.657739755519086 0.8143080810867488 5.1659924253088345 -2.4096327405508178 -1.4060568718195718 -2.207576942194211
Ni 8.061833639830622 3.1915366004572316 4.347610906510555 -1.5757023721662733 0.528974907748218 1.128276686046457
Ni 7.746003727690953 8.184193725938757 11.261711924268742 0.3270288954965981 1.1381227256026012 -1.6397817191446857
Ni 9.085815741254226 3.1479216418233507 2.406416565565477 1.5971335454568558 0.35430084383867366 -1.4412575880904213
Ni 6.840337819089785 6.357424946239417 4.208833352273131 0.9779535401774512 -0.9872807311156482 0.5598489716192552
Ni 7.950949716631446 0.9061081517253344 2.0786608612862256 -0.9158611417220808 1.3449980568350386 0.4811194788278359
Ni 4.225305292937548 0.7733198065619574 2.661391423335227 2.6626452324609495 -0.2383312357488734 0.8040058129109703
P 4.020590119823864 3.116161384054394 1.3919625414725607 2.0297563622358847 2.2613888458083444 1.832328806679909
P 6.699180092046304 1.3926965358018142 11.391340862394753 -0.7768937871855266 -0.33774268236967636 -0.8781962801814553
P 3.0339540191780023 6.252006741819083 1.7035565215586264 -0.2746506390051979 -0.5661381470620765 0.018813790272393407
P 0.5133076241879216 8.976095129822168 1.9446270339213856 -0.6820784445758383 0.6857340390505544 0.7974060482062654
P 3.433237701658834 5.225467201034434 4.729296267092141 0.07767122673023397 -0.4240726132161729 0.3861735241775543
P 7.776332927333692 4.89973067360811 5.895445222354034 0.153699004319774 0.20368999152592016 -0.9105294450965222
P 8.181959428735242 5.846509497280547 2.3604048153860084 0.10544171197528293 0.0035728049529228792 -0.05195273891820731
P 8.860244050030056 2.239070474812215 8.157340612647765 0.42531471315339003 -0.7331217843058987 1.0529572473778512
Ni 3.0811327741778185 1.5015123491927795 0.7090209800560436 -0.659356063277658 -3.5342306921941065 -1.5348251743359373
Ni 6.992316192094086 2.2368915734071355 6.840861309384989 0.44823584072593775 1.0410805505449232 0.6404049760964519
Ni 7.9306471565053025 7.7040691082762445 0.6686882224793905 2.2613664772108413 -1.2271317459431574 1.0081573174543412
Ni 6.684001643275326 3.573841470717973 1.876372947407268 0.5149040314774487 0.23267172347025092 0.6322481513172724
Ni 2.6061599657696886 5.830952510553601 10.685008425089386 -2.621696300852414 -0.9904092494423007 -2.753791353749167
Ni 4.896249970939826 2.108364088406658 10.13783088647547 0.6878060910882348 -0.41053112708631234 1.6143712494913809
Ni 0.7314673575815922 4.802640304219056 12.038891894718256 -0.2853873086964117 -0.3331872017885101 0.17522659397890467
Ni 7.658829206221626 5.372321462683567 13.67801940964465 0.523318223683073 -0.7488736478235167 -0.599226187865297
Ni 5.637556545586644 8.678850508057183 4.346273097978369 0.8729180625016515 0.7539094104752113 0.44615967492319936
Ni 2.8629287241454002 0.5574811571226811 4.877586203184028 0.7848914606790225 -0.10691109743195781 -0.04694294440844174
Ni 6.337953323089786 3.331494085201305 12.315622529059743 1.1758469796262523 0.9005893031646748 -0.44395881061713866
Ni 6.588416193077069 5.551360683222988 9.479469364087526 -1.438807840998348 1.5038739773700616 -1.547622840321238
Ni 6.6579009895797325 0.5747351018083281 8.966749858626315 0.8007757360094467 0.12063770298943094 0.14412087371303564
Ni 0.5009220469213359 0.2041372102833533 9.678271035718357 -0.6507076435740407 0.24766202623149608 -0.21540342330810647
Ni 2.11912010593597 7.994213835208577 2.918555338406436 1.455923417632712 0.7844862548208037 -0.8053674691451872
Ni 2.114309904105265 3.5966553070398017 0.45143328712681247 -1.1694025095524891 1.3775435948712276 0.5974806659291001
Ni 6.090491058851024 6.453028861703819 1.9139119102162216 1.7621916835431908 1.2783424644890178 -1.5425305133999951
Ni 4.037291953051784 2.9907914595646674 12.705064224685428 -0.17213252843461324 0.7412572689288395 -1.6780888422550002
Ni 5.994203928539266 7.655533156214789 12.61825716201238 0.1988666019953478 -1.847987082042456 1.934277675010585
Ni 3.487682538886606 3.5583675776886787 6.340303028206705 1.29352688553894 -0.2825796640442875 0.27304704196350393
Ni 1.5163399579070076 3.4946162463239565 7.476669355703744 -1.0517727401514465 0.012370862860527082 -0.005018536260513937
Ni 5.459985313705731 7.961336428837863 9.194265942375525 -1.5361359227275608 -1.7211157394384875 -0.6530805146815913
Ni 5.063268303219019 6.587631419265917 5.698886157296484 -1.0598578311524263 0.3748447294282964 0.5965314146419534
Ni 0.627305714522409 0.3898636269570915 4.339394786339452 -0.8559891479567967 -0.21564022190926088 -0.39182532314669294
P 1.2873983556114221 8.851122208554553 6.324195776548645 0.2573077768513762 1.5819977182566818 -1.1428964928421608
P 6.402951059919279 5.441187672770384 11.60197969288767 1.5524547144922425 1.1141024514286038 1.0677385194520836
P 1.2244964264893579 5.406713020878151 8.310076984827308 0.027820107536061768 -0.006371450743982575 1.1382839337708137
P 8.275762980750534 3.1913057846304222 0.2782327837423601 -0.4739458438975322 0.3014443621592744 -0.19538995630065706
P 4.147271078209868 6.109491817713963 8.784338880488864 1.221883867280657 0.07125889544598696 1.3814205613281305
P 5.2137325243994495 2.6507443508761686 7.842626002583239 -0.19398690530554333 0.5945436947879632 -0.13043926246088505
P 6.057595187214166 1.995559777528428 3.678709410207192 -0.08793069967471308 -0.17145015765560795 0.8080187907251052
P 5.696008345567826 8.497309243955149 6.757445392839424 -0.0668715650115687 0.29797183022964163 -0.07592081969803054
Ni 1.5882621695407784 7.991444045286866 11.375557676157534 -0.3206528167669252 0.4495908120919354 -0.27305784059678134
Ni 5.589260641985071 3.8639954302833788 4.985122373631163 0.8476934836069078 -0.9437789511782714 -1.7527572776031686
Ni 8.98657416835931 7.393409470657103 5.326119520262809 -0.5167626819527423 0.7731407479009975 0.04622123575106879
Ni 2.9401781650619294 5.849925571517324 7.021365748792994 0.6817352023038066 -0.1033128385577382 0.5415406602283706
Ni 4.571806012143634 6.939062364532649 3.470583702436575 -3.027952454712456 1.1928252593518038 -0.06778996306078003
Ni 3.6199030771160325 2.9014565019564054 4.114337352777413 -0.12794606372538608 -0.5900877158991386 -0.63907751553428
Ni 3.5269304620772557 8.75894359996 6.909965721405072 0.1606173287061621 -1.0065030696803698 1.044111881172079
Ni 0.08659563537568998 6.553627631660374 10.189017527492004 0.8837030689322973 -0.6750889006318825 -1.4855921483417383
Ni 2.1343631831384546 1.4809051121752475 2.813451966773871 -2.232541839669665 0.07053615834734948 -1.2201938811727435
Ni 3.807085480025284 7.3237400214929895 11.691664567289374 1.901168551161442 0.06252100135235684 0.09818760151603091
Ni 0.9166268905846867 5.9805396315921575 0.822878734367831 -0.97016078360591 0.20903634343949806 0.7872116241717669
Ni 8.463951740664672 4.487622863789755 7.994766869929612 -0.3564862815257667 0.1761856154580643 -0.9079938231588621
Ni 4.556332119114341 4.771166258075343 11.01266903324799 0.21766008055276706 -0.374796135578548 -0.8655485095104576
Ni 5.23631554489447 5.216317661659715 -0.018252915584077607 -0.9463477403467121 0.11057980453279666 0.22637174939415208
Ni 0.8517916480972682 5.4486014771274975 5.921011306594738 -1.1072514899450414 -1.6562640330704252 0.055730975013716925
Ni 2.0608160280839467 4.3773113638410655 2.8874081274734853 0.6702847943750199 0.18872154314154593 -0.19611192206834613
Ni 7.579262374403932 0.5190087751101108 13.303590898657948 1.0253880795103307 1.0418835060621927 -2.551659707849302
Ni 2.801762530040942 5.747360250716353 13.01957664008567 0.7995943141068357 -0.35996961208867684 0.9694989816521948
Ni 0.6509717228768178 1.7643746453962563 0.3820288145318774 -0.5839978009513168 -0.7588950366152607 -0.05347406065874016
Ni 5.18382802587804 9.202820900180384 11.28065636406994 -0.6450517308398439 0.9690480101577054 -1.1597477600715447
Ni 8.478742418846611 2.4635896458661346 11.518766894269698 1.1071093079402223 -0.6358754636572146 1.6502741340355773
Ni 2.2809589310615626 7.224544611763435 5.200274115169854 1.0206518503769262 0.15271812846374347 -0.479242059299465
Ni 4.997919726332777 1.1111289249937135 5.911809141211505 0.3186514700661802 1.9013097047249965 -0.03667524393384652
Ni 3.319620919070236 2.734752079201673 8.77581254384653 -1.6883534574058021 0.47832211858835677 -1.0120826206506763
P -0.18187456215594497 6.872245798987899 12.315811798037727 1.1656466420544827 -0.8884213003435733 1.589587871899114
P 7.962231994245884 7.637908059679633 8.90915761678417 -0.905298535714886 0.8090120078763099 0.7425178808088181
P 3.5445647912454845 9.106302954041817 12.736710921067594 0.024923759824873208 0.19707531442287995 0.4731508588000626
P 0.487753542370213 0.6803878151086993 11.885006982984514 -0.03307004308109143 -0.5524814755105905 -0.07337979844373169
P 6.219951039791811 8.80746108675531 1.2765315464852414 -0.033675537875574264 0.6199137981216356 0.3777595890822462
P 1.2331289384120248 2.699548049296722 4.306653099674902 -0.1557422600020479 0.39625224856979496 -0.018585219201355092
P 3.59555662370419 0.39548353070824377 9.412310267855792 -0.24789316840569564 -0.4876356826797989 -0.48434595618493365
P 2.7898247354783665 3.5651166324645827 10.77561194648179 0.3186542982796577 0.22279148824206146 1.0443504795454464
