# total energy = -340895.9722588958 ev
CRYSTAL
PRIMVEC
9.04321897162653 0.00000000000000 0.00000000000000
0.00000000000000 9.04321897162653 0.00000000000000
0.00000000000000 0.00000000000000 13.23566506756326
PRIMCOORD
 96 1
Ni 6.413496026809093 1.9401231295543546 11.347398461452405 0.38734106212309416 -1.0060004190123384 1.1049004732143617
Ni 4.637272195750784 0.4236015532013858 5.89949303201945 0.43178463714844995 -1.1202057361128643 1.2070750844025988
Ni 2.7989214511707448 1.3863525798576073 4.764865683516743 -1.0668864558644338 0.998687687401009 0.84020000344334
Ni 3.5598178854820053 4.436024403390875 4.932548664780984 -1.1938747836622405 -0.2734298792242194 0.22388677818876926
Ni 4.990916312225424 4.440075765437124 2.6596802975218177 0.20910936276927855 -0.4080878077521423 -0.6585441088993239
Ni 7.232612704097485 6.179141010227487 2.634307738385294 -0.28986282796926205 -0.6454695351035529 -0.27113645520435237
Ni 5.105403462907388 4.699525714336459 11.671368159582038 0.970175181783613 -0.2586344660825997 -0.7800475023231599
Ni 5.767050570304385 7.991664321762685 12.321861360845451 -1.725012246279416 0.3614932478220549 1.2357408277684072
Ni 1.7610673962602856 6.709444407000087 0.5575469978898585 0.23535672650158174 -0.43688904825455077 -0.9087651541072479
Ni 2.767776605440201 1.8426281870976193 0.1497068708277773 0.4093944423787078 -0.9726979482054668 0.5624972078753796
Ni 0.4978581361709609 9.193245854010978 4.810449836790249 -0.01269765007232652 -0.46544243441221134 0.02642965494643835
Ni 8.718187481212794 2.3537237870259466 1.388897341642908 -0.20638142231515422 0.47456650820066654 -0.08747792840801064
Ni 6.912021552531423 0.5705231126223665 4.807510790662947 0.03950500007315778 0.55524361163676 -0.5000155444013905
Ni 0.833679876929643 7.523288887697044 2.701333363559822 0.8628246828213914 0.6207452928839954 -0.2118984954786415
Ni 7.5270327803022825 3.809455941925579 3.7977883809611344 0.8756526878239951 0.18626999627725985 -0.4484574698184406
Ni 7.497407195339083 3.9659488441808244 12.524592241097292 0.21514014234439074 0.1037265290563891 0.8254850658306686
Ni 8.093780349053423 8.737060678959498 6.813256942147693 -0.9433866008358591 0.5527401284886159 0.699867136017827
Ni 6.830831533667071 0.8188309115726297 0.42586145359280947 -0.10711832834675744 0.008982920224900659 -0.46638525794145486
Ni 2.168383016628879 6.513242730760283 9.30681692662311 -1.2680405683423772 -0.007460570043103281 -0.7954476389283139
Ni 0.0990015427176842 4.91760293698224 1.4454536323510445 -0.5477295626479018 -1.000598788380793 -0.7206329078102686
Ni 6.629891210748172 1.8246773976739463 6.979205434035882 -0.4824019450846853 0.19500840459152224 0.17990728728402564
Ni 3.248360384957711 4.403722025647117 0.45674404597660967 0.025333079448149918 0.10181054298059886 -0.42031623149753417
Ni 5.920315043429025 5.39849418594076 4.678171961658313 0.25583144941616587 0.6971934458404058 0.7591367203124215
Ni 5.348141543365943 2.7779773563066508 9.3779979108607 -0.7313934887608823 0.4345884251458322 -1.0250438087970346
P 0.13107331838068495 5.640011431854129 12.524883432744367 0.04481381388058089 -0.6917972145254989 -0.24443477754345
P 3.966807949971882 6.1810129565301075 12.674975544695291 -0.46026397553506543 1.0820346243597816 -0.14690434999544377
P 2.5499164200468973 8.712924327840213 1.3832064440185667 -0.43057493311106493 -0.3491570948542051 0.180505840099973
P 6.324953871017061 7.729998784244307 5.865146886814861 0.11476016116273138 -0.1753086121697497 0.04541853734411533
P 4.743204461397588 1.1770111066240518 12.421314160183915 -0.22155478762148295 -0.4705751276530863 0.7320308652345651
P 4.094868972152554 6.098511670932037 8.16534657441416 -0.8153348647705442 0.9109379933888505 -0.09432709011936014
P 4.7496703628776515 1.0430448625322166 3.769583485679777 0.7400948731896221 -0.18840761144555296 -0.09235685376686675
P 0.22009295612816748 5.680895824289608 3.4592735696279586 -0.18094884117466256 -1.4640537600493302 1.5204611923047815
Ni 1.4329522866083315 1.0557053689267468 2.733535361574309 0.13703131385610592 -0.1641723930472721 -0.9712007948346499
Ni 1.9228324951069677 6.405709815376457 4.728732598266754 0.04232704290298517 0.7827433039877681 0.29371819715961023
Ni 6.097761083767218 5.407076200632481 9.1654858850972 0.0025106822369956763 0.1981127545484588 0.6286077263512078
Ni 8.579310769283653 2.4170172757797443 10.19823866025255 0.5250408628011345 -0.2319227611193683 0.4584793728308168
Ni 2.1370482633024173 5.283835214100583 6.967584897809474 1.2926213430055353 -0.563311733356875 0.8330253400717719
Ni 0.5771165234882608 8.90200899084252 9.251293371508014 0.06217518797716389 -0.03710487527209738 -0.01629770871875903
Ni 1.3721004669449077 1.1305470481561262 11.600438576828566 -0.030133329050270684 -0.4171319202322816 -1.0792372641203027
Ni 3.9798844444336607 6.86903009010314 1.5575461386806728 0.961857148836221 0.6724620045319967 -0.040306412928530586
Ni 5.533871172173701 7.9457338132071 8.018390650761537 0.18720433516607113 -0.5663361220054957 -0.5058012978452321
Ni 5.1303084876291996 2.866157783344553 5.137278096399388 0.581746800133611 -1.4586341316956557 -0.8185351168753968
Ni 0.8641292991303732 7.369129135905933 6.883286724625266 0.5451962547030869 -0.08695830845911476 0.11832525280617041
Ni 5.161869321426992 4.550158868537563 7.104574289963946 -0.07400457651192417 -0.49388320625140747 -0.40605252248966844
Ni 7.917401408539913 7.157960932464023 8.91989828637799 0.30442529916446925 0.817637544761792 0.6651348747429643
Ni 4.442146662554515 0.15239994140227092 10.369984759747547 1.0224755338492262 0.590734348344202 -0.2136401607600966
Ni 8.174283083284928 7.1392957287509455 4.676385021612915 -0.039144274299629356 0.38487614552236943 0.6708681776823157
Ni 7.293925727922423 6.007762969739816 6.879805989688656 -0.4084081672060386 0.1115596519475627 -0.35958986015175487
Ni 2.2927363190797245 5.15839672538735 2.594600773044506 0.17024276761106807 0.11966865420794227 -0.18855313588448172
Ni 2.170245919712646 5.399072951947367 11.47610245649354 1.4258371397702927 -0.7276916144292629 0.7626930702051123
Ni 1.0761792164104726 3.3394075123720888 3.666252954097049 -0.318936862517083 0.20292611677670214 0.07554132487142474
Ni 3.4250377516933788 2.5052338756930594 2.739398984678747 0.9100591903283228 1.0649532433974627 -0.45379970796696034
Ni 1.1368411284779782 3.110261389849947 8.278087479535566 0.4781853359001764 0.288934916838354 -0.5792019222245703
Ni 3.5932777952389774 2.7044379005921377 7.145392666901796 -0.9414963257916817 0.06738115765813556 -0.7053027052111014
Ni 4.228437314614847 6.716181605045748 5.916805370192085 -0.18125325978895881 1.1797933658685102 0.506242756258025
Ni 0.6104281244560401 7.288002419573553 11.258574157232152 -0.034365107743431135 0.7420730799619156 -0.1482436376321576
P 0.18474934388406603 5.659599043890238 8.11677182866589 0.956936828716468 -0.6247029919801628 -0.7401948891025961
P 8.52645315508649 1.4906480228919758 8.178489084373568 0.2244156541090458 0.4516039858672222 -0.9281057634173888
P 1.9447261279506514 3.2424732494842545 10.3398075384343 -1.7350459763663346 0.5006488071100152 0.9433097248513367
P 3.9495354019622018 6.085796905224387 3.667324575531157 0.4633166463184601 1.1700974787369849 0.061467620387178006
P 6.871254721941036 3.7949687053226957 10.47377830413556 0.5897233905811844 1.9763236963380415 -1.2996545957032326
P 6.233346064033783 7.69996625443271 10.16461958984376 0.24310526009874905 0.28926118982952115 -0.1759004801174777
P 2.4821646243984548 8.46807013417 5.727641126863869 -0.23817131313224144 -0.5825962926180999 0.5818393598474172
P 6.889205511364708 3.907430174981536 1.554952543513565 -0.1437228669436686 0.4119218367862519 0.11432435917689343
Ni 5.140192725835786 2.9909361170815005 0.4982117260281224 0.7180276089769376 -0.3507293244373314 -0.10691058321132556
Ni 1.3538602945179312 0.9343905880105886 7.03993064863536 0.36735227770599316 0.4047592575995416 -0.12789875542721846
Ni 6.768134897357588 0.6620838948676083 9.181342265034464 0.08037319904242933 -0.2282517400256843 0.35972175774392884
Ni 2.73359323817497 1.498443277543465 9.350904427176406 -0.24296899163120095 -0.10278653374062299 -0.41689049364543684
Ni 6.426726255991377 1.8880432321785694 2.6659933686032615 -0.0960139909034798 0.5486389618360487 -0.44670114924896615
Ni 4.255512711861435 6.738283231923057 10.42546852469969 0.15263122517689195 0.030553961527457055 0.45325514831740005
Ni 8.214832876622838 7.18181694379886 0.5651261196107554 -0.7489006444067102 -0.6281179311989828 -0.6040737457655854
Ni 7.948817550836053 3.837101061959921 7.923371741626819 -0.8752991611393184 -0.1420745327069682 0.6624766111845106
Ni 3.1858355698064384 8.473930139986896 12.422452701437535 0.38763931008980335 -0.4658993194439718 1.279996455152673
Ni 0.3017170494974738 4.898603134171592 10.160464230780699 -1.1375696813126086 -0.5498196124077112 -0.13765043549734357
Ni 8.776543372472727 2.4742065918076075 5.672832890360063 -0.21465548939848839 -1.0943566362602444 0.304470807690424
Ni 3.7709589592673542 2.91466560927331 11.37203038096485 -0.32111073023995024 -0.8310563892708592 -0.0025675036168600943
Ni 0.823004357073398 3.4140140679112845 12.458334385203404 0.8072479739973517 0.28308000071947376 0.18397502959549605
Ni 3.182118806857759 8.448862337325727 8.09998851879617 -0.4433790268542687 -0.2621869593205485 -0.5927675767241469
Ni 5.574818867141152 7.783254300071013 3.746513330063287 0.28066316374786504 -0.07359602821959584 -0.49729171771232417
Ni 3.281069707549865 8.356042739016114 3.4891460344658527 -0.9098625009364846 -0.16962261752856592 0.18919848277796447
Ni 3.40360532301121 4.235355377037572 9.07412043637919 0.2935739582722621 0.25199279239636596 0.3323374521937051
Ni 7.201983321841575 6.349632815267541 11.540507356844401 1.1580282062772764 -1.5976863326365323 -0.4345022931899291
Ni 0.5798014551657865 -0.12342185090896216 0.5710168723717531 0.2701172699112187 1.792439940904771 -0.8933552473100808
Ni 4.623001996400378 0.5841313483527159 1.4307357936674032 -0.39267815806529144 -0.9710573272782503 0.3570159287769916
Ni 6.042217633570644 5.705167823691693 0.43333476965312356 -0.35367349466731995 0.526195545230868 0.677341444111485
Ni 7.807345435096033 8.8234234190079 11.381612575661737 0.951582249272774 0.5584253517988512 -0.033293986166439436
Ni 0.14735111231650938 4.808586933706483 5.793330164291888 -0.547065960921974 0.5985147636205692 -0.887305184461259
Ni 7.960980680193656 8.791437553924005 2.4720651575831614 -0.38890300729357535 0.485804285898015 0.7757835848404834
P 8.499667140843206 1.6711958872968282 3.498106960027524 -0.4309253744719482 -0.27870912534528774 1.353292692743663
P 1.7873741199043485 3.161572613623207 1.4964772817647716 -1.041338689302316 0.766355606658364 0.28162861298492786
P 4.666120063892606 1.1540594171745395 8.143454750214246 0.6009560260722102 -1.4655023195703987 -0.020804081229544816
P 8.52153364403033 1.6011380708408105 12.533314425681239 -0.36414996871861155 -0.1847553594049463 -0.722013333097563
P 6.275894408738257 7.906305379006992 1.437114880246476 -0.4761245967164058 -0.7455386699130128 -0.16791591925010435
P 1.8690434293679212 3.2613554904498105 5.781735853400154 -0.2266005775755065 -0.09405223919141865 0.8131856796380252
P 6.878145654707201 3.8150989104899984 5.945712019256453 1.236430140525948 0.5089874088826976 0.218425755074198
P 2.3540583861235165 8.43792004251331 10.47184667258851 -0.20880828658909198 0.060970883256417585 -1.5054737177570137
