# total energy = -340870.35419870017 ev
CRYSTAL
PRIMVEC
9.24691541484447 0.00000000000000 0.00000000000000

0.00000000000000 9.24691541484447 0.00000000000000

0.00000000000000 0.00000000000000 13.53379540215969

PRIMCOORD
 96 1
Ni 8.190936301507023 6.066152302183033 9.810201598487307 -0.22948149866772738 -0.517004108539587 0.4177507847632031
Ni 3.359876017539899 5.677125317438472 9.491548264651888 -0.7074516332333042 0.7513444779615125 -0.3026854336552271
Ni 7.4542807730034095 1.4823545404300145 4.784833103673452 1.3289273765254208 -0.92176593724229 -1.1958789585764629
Ni 7.745974724508418 2.9449206815504483 11.588312260430133 0.8068808204659201 -0.3522737861063159 -0.1311368027485419
Ni 1.7808357279598972 8.288740927440402 4.460779571147941 1.5824751721137325 -0.7606300170284964 -0.4715135803069557
Ni 7.102981203764965 2.414693296124909 8.844565624533598 -1.1726935215989351 0.007026310719162093 -0.7047064663879993
Ni 5.291325506226174 1.2368396852577377 5.285718176627422 -1.7636644114339755 -0.0344538108024955 0.6206447627503892
Ni 9.31506533294024 8.015309634176713 2.557305700812697 -1.9080652782812753 1.371050016727084 0.5392878596384519
Ni 3.766074524489083 3.730584862549751 13.398335877371661 -1.0355783897797712 1.9379813491144169 -2.0545024588323137
Ni 1.2773781630956824 8.334957011435394 12.298471677073152 -1.4437045069690169 -1.4462506704296383 0.057835165840913305
Ni 2.6897335526969472 2.7874734502213707 1.9305959983796042 -0.7487255522814267 1.537117827024856 -1.7411266353427757
Ni 8.973798667090062 4.149063273369553 7.6976845573521455 -1.6856651119403614 0.1883883281718433 1.5374685254960554
Ni 8.497758206876737 0.13258320006574587 0.48096814151803235 -0.45468391034412664 -0.4213814395372549 1.31689281395839
Ni 1.9997194663043272 5.363904546497621 -0.004579997279455711 0.8851886523388883 0.5491992052148928 -3.398723785402327
Ni 2.5220499858371657 5.5308391131966195 4.1051653911067625 -1.853627825268001 0.534231528161467 -0.8239308339696714
Ni 5.82552906534476 4.592582331539982 6.456540432898795 1.0584372966558158 -1.7501699764919665 0.06901946459250693
Ni 6.161996582016585 -0.01824231502707496 3.571500927165628 0.6076663482128501 -1.29325923369985 -1.6134034862614728
Ni 8.229819581458791 3.542909464237954 5.2712911389625585 0.33196978444164116 1.750600893381798 0.3287435641948596
Ni 0.7919345144440813 6.102908791554801 8.622638726276652 1.6817855743802972 -0.8301210219407833 -0.45683618080043903
Ni 6.258414170615183 4.396751153699657 10.626939114551991 -1.1654612655165542 1.0761539972092886 0.8122197161803302
Ni 0.9077216170771533 3.4140906834988107 3.8434628855460033 0.2102614740958508 0.34125120974356715 -0.10798350456053017
Ni 2.417522852287867 9.21605860798338 7.899608527858397 0.015872191145566213 0.111196355070873 -2.955716797175497
Ni 3.448553937810403 7.168874724082754 5.957387307230193 0.02994306741633553 0.5771337268416319 -1.46637289510081
Ni 1.6692809385810283 8.067009139101883 9.799686006106533 -0.937591848530953 -0.8311456065505557 0.9091209947847697
P 4.393505486336263 5.152122439307283 4.994390402978796 0.9456856812826808 1.4555380092688353 -0.427141996170116
P 8.907858912194445 2.678239636649373 9.791525603120224 2.1963797879268108 -0.7691311125209722 -0.7557971144162274
P 2.3964121440524595 1.812460179192965 3.7031168998632515 -2.558749010595916 -2.240882755435192 -0.004490431671185815
P 0.9266056680444549 6.114227016206636 11.547819092478457 0.14160504926971743 1.2291032678472318 0.5295379793405396
P 6.088326405708442 7.840006608891186 8.057074253018605 0.4248763400643909 2.8789310583740098 -3.842233681407505
P 7.8658702317271185 1.2018955913367544 2.3639480728860693 -0.432212725824804 -0.18392026509816067 0.6401792332388909
P 5.47278697727814 6.700352006223958 11.988384685817357 0.575020537153371 -1.4761559426295028 0.28159056065814086
P 6.7620289330440055 2.476407210607217 6.58163363135671 -0.7169955681679975 0.7414819833451358 0.0271261667928307
Ni 8.402810877853012 8.119827520810446 5.557694005381145 -0.3696243615696215 0.21707721146610354 -0.5327968525974696
Ni 3.532774844778468 5.305898645156968 1.8066531162180042 -0.055795509703065196 -0.2653640714969494 0.49895162191325043
Ni 0.17806138019863318 6.956140184589199 0.5170736480340081 -0.3756687679914885 -0.0423758938630496 -0.9446125028231603
Ni 7.235507997645763 7.90624226508489 12.468049936932246 1.0036812839608587 1.043013505901578 0.022772517809825296
Ni 4.728854126224696 6.869320894347306 3.3483155237002555 0.5628831304598887 -0.9068787357178124 0.5858695640527329
Ni 5.05068377555677 0.9916114844679833 7.646174614196062 -0.06208339959430598 0.40326930331757643 1.0121967776310374
Ni 8.57030950640149 5.8683792720740104 3.67897320332245 0.6069214996270257 -0.718022466770615 0.45367423813268964
Ni 3.895448120162139 8.760111695293288 2.1327640874567777 -2.255125638507452 -0.0941460844568056 0.38364510132874574
Ni 0.16762531129172079 0.5486213498678846 4.111120404730767 0.3830971992450757 2.4591753273656356 -1.1777560237235072
Ni 5.751673950725311 7.798312266607589 5.631520454562341 0.12032942772039275 0.5152716992295127 2.203164672059128
Ni 7.132978197858553 2.6853042801412044 0.40094163545035316 -1.2056375806251234 -1.1185625440824865 1.1571285772811426
Ni 4.085934580805764 1.5867984517392257 0.18761899212684927 -0.5849244265306442 -2.0407686541859884 -0.012796894654352155
Ni 6.040159222529187 4.556352916355432 13.088547561488621 -0.31198768489275946 1.4071660457233508 0.3457426698560174
Ni 8.336547480912614 7.80227919338507 8.145369350984708 -0.09025729092536068 0.8940638433413313 0.28289745239502245
Ni 4.442319953605083 3.4708482512381593 9.091989967770091 0.22073691970587794 -0.8541011869054645 -0.2518891769389662
Ni 1.1061992621522456 6.9918147848398355 6.407683429818375 -0.41549284196696185 0.33083027152055927 0.21760171651100588
Ni 7.936359469080825 5.733586983879733 12.043440821092704 0.5866907744024478 -0.5790003477367254 0.7734073712988229
Ni 2.8712782459890005 1.1510375557280195 5.8126971206148985 -0.14378328786795883 -0.9253474839459612 -0.648076890819413
Ni 8.985949114142766 3.994362375963346 13.428935770360104 1.3598520911287355 -0.5907055519887955 -1.6513822794980915
Ni 4.329479842962648 8.479837684511333 9.36632006122672 -0.7333033041890855 -1.0768939606991066 -0.7249112234706483
Ni 2.8598675521815133 2.68326071180129 11.193734352271768 -0.1884567195159335 -0.09339326545118108 1.333697801330871
Ni 5.719485437642765 0.31625190986313123 1.2061898589252444 2.7106055623903123 0.6638770910764631 -1.2357590826008524
Ni 0.2519923195257164 1.2158214461779824 12.13430656158594 0.3086611916226878 0.8036330029525838 -0.9028169069436128
Ni 7.624544229305889 0.6309410909957396 7.07370916785169 -0.7676894949784392 -1.08645846445909 0.0728501511925068
P 2.67173905500702 7.169993600866147 7.9934388294818435 0.38818412684967984 -1.518213019700553 0.6706159524621934
P 3.4073219413050664 2.6760666114915455 7.189423219851797 -0.6035587538023799 0.9055649020023953 0.6871676861732875
P 1.5646428420449476 2.66742074543806 13.231937631775446 1.5775864765628638 0.2493080464753513 -0.5231117640992217
P 4.085610938760982 8.66503490945165 4.334523110711921 -0.5662538467043345 1.4599677629054146 1.275185664027591
P 1.8186278718749698 7.062082096219977 2.3883220176244446 1.7726514454239342 -1.7268001914177744 -0.1249080482300107
P 8.62038155418718 8.39307387576283 10.301695503993235 0.3745842766780581 -0.4608746125358708 0.3373647302049674
P 3.4094579788006336 8.638607224766238 13.381026576125118 -0.596137007417012 0.5767169510191874 -0.030753479132772845
P 3.9226063111772036 4.515093179103401 11.134212881469974 0.8500439861169553 -0.02640805767988355 1.1127197121484642
Ni 5.5316343479352295 2.3037488031733444 11.7308506897934 -1.0934192120476396 -0.4220239582172603 0.10640150478539094
Ni 1.017336403570438 2.816333073700436 6.493690840873641 1.9820503144091735 -0.8796037020519433 -1.1345206100736396
Ni 4.715177938103729 6.12761654994508 7.602772366607567 0.2115351986019518 0.717560696642848 0.957862682964847
Ni 1.6113767533115924 0.43626947636729346 0.7045095512326658 1.3966800585903623 -0.5861896663963131 0.09443533356245026
Ni 2.6242653904951574 4.911425227144489 6.561955270342355 0.22658309407400978 -0.8817528871844621 0.7442443765816215
Ni 7.893805163649662 3.5219744473982857 2.4532307414345382 0.8167101478515159 -0.056971275178721234 0.9761208578440866
Ni 6.834931615360236 7.471313591474553 1.6213486270571307 1.022095267691672 -1.1402372008424426 0.7751927453340198
Ni 6.6247214838159865 0.21928043102217806 9.830732525116776 0.5027157169413728 -0.5254434975561918 -0.4042411803125425
Ni 3.14594862593843 6.888415774989494 11.720510788808365 0.5346696441401501 -0.5491166728034156 0.4377025452947817
Ni 5.1483866854189335 8.827623425834991 11.825600134824029 0.8428484968097807 0.8327625733286883 0.9619327392691627
Ni 1.8916230233468523 3.6871890878021523 8.817457366862584 0.15727977969249687 -0.9226398552068109 -0.2390470308689754
Ni 0.3925620805651467 2.25374148379661 1.4279780534487116 -0.9490862223237978 -0.03207631170925443 1.150662767051141
Ni 4.4724001699387586 1.7855239141514658 2.941258902986619 1.8003471115669898 -0.8075079125269576 0.1833404813352907
Ni 6.116492510520116 3.342676754588582 4.350573906750038 -1.692864200791962 0.38871788786596284 -0.29734602372018465
Ni 6.265765468489535 5.074207928754701 2.826208779524096 -0.468550898134206 1.0940293348278125 -1.0393987919671261
Ni 0.3259500749079387 1.2276112635236438 8.160202328242885 -0.5484265887149264 0.2189554023254229 0.8288514111997403
Ni 5.979351505772271 6.772265268574708 9.675269681867995 -0.34096324618950313 -2.419482122541072 3.4840980372037733
Ni 3.5218080029181116 3.240627794410764 4.584979517562255 0.6432812692029825 0.9097141482840784 1.7646820540652124
Ni 3.0296686627057317 0.09967527695222482 11.311112849073615 0.18970190477694426 1.011030268126762 1.077384784292596
Ni 2.1231472952689443 1.1437602331781878 9.659773700763791 -0.7803781461897011 2.352870238948793 -0.0639667326599479
Ni 0.7003798787412366 4.066164675327315 10.971198082279074 0.2582205184736327 0.19087072827406482 0.7216988871809377
Ni 4.622810498522701 7.056626416036494 0.650177449446076 0.6813551932565685 -0.5882146672461419 -1.2992301065713046
Ni 7.815391319656558 5.9331539156084085 6.595979296164599 0.4150734950413562 0.39366957544428327 -0.4249552729314423
Ni 0.9600702554750025 4.912664313830229 1.7360205516730365 -1.3363964312089565 -0.3992085029846415 3.5128733095642537
P 7.903967523855844 5.408271247379568 0.8810516632039326 -1.6026560179369818 1.201717419635111 1.7548136459115649
P 6.676975803675071 4.586433132689107 8.615370650642385 0.43462853435514825 1.4680556821198718 -1.7286565279002228
P 7.124221368818285 1.0262966647531406 12.652285482653781 -0.6467545724635636 -1.3878809722414935 -1.372590107520694
P 5.006871889608736 3.413887251356376 1.5510951860503372 0.7407564180330211 0.6473420695359174 0.7520846985616466
P 0.5878846780493845 5.0564446039539055 5.700001261855281 -0.7798569835789085 -1.1161446786696132 -0.7406713145183824
P 6.966838865898163 7.184770171939375 4.0977900512519385 0.7627753455062735 -0.7106986794156922 -2.0396772208940224
P 4.570815092299443 1.2118915070627623 10.067844708114933 -0.393896860963741 1.0878124073838233 -0.33844587908428814
P 0.7820569592373083 0.3109543519358141 6.199736943204493 -0.49541146997047586 -0.103720358408802 0.5400435068575539
