# total energy = -340890.72490774165 ev
CRYSTAL
PRIMVEC
9.07292912453355 0.00000000000000 0.00000000000000

0.00000000000000 9.07292912453355 0.00000000000000

0.00000000000000 0.00000000000000 13.27914887948462

PRIMCOORD
 96 1
Ni 6.085231611685323 1.934910979796147 11.47271960050701 1.124732163228308 0.3002367150044184 0.4950211765105927
Ni 4.677602972399126 0.40745072373454855 5.9020373808033195 -0.3990390672863127 -0.8572531022708849 0.26916416196933
Ni 2.8967049620116856 1.7399246631208884 4.830808451128752 -0.004233321355057226 -0.7330978730464988 -0.01872354455143227
Ni 3.430937166119106 4.518971882140403 4.722835152528149 -0.6345485173156749 -2.087923200384604 1.8225123348101193
Ni 5.306465825751484 4.41190224726605 2.8437027255055423 -0.7962966171921705 -0.5873145240293756 -1.1159395046373426
Ni 7.279356086251304 5.940872238709657 2.629311228331235 0.2962443060155737 -0.6945912323308683 -0.3533842455616753
Ni 4.950108394266019 4.471574901157128 11.955522813993147 1.2641021525199199 0.9692590977272468 -0.27112154280601697
Ni 5.722260014974589 7.75728169311864 12.421023951917432 -0.48808048352670136 0.7121624084454122 0.3793217913630435
Ni 1.6615889943211963 6.629607350390619 0.60520246916243 1.4936492143182598 -0.47952153821309673 -2.1416394589611376
Ni 2.862309488254489 1.7251630076729967 0.33554322511606816 0.3789710928918441 -0.7371699862333434 -0.15562501769789328
Ni 0.10564972148923031 8.942650791220442 4.653783811952075 1.8666604900822434 0.2642852366104739 0.3132071591221573
Ni 8.67480885484846 2.401967217747334 1.0143480160301477 0.24050818879553415 -0.6188246788225149 0.7283896689375521
Ni 6.844073245582549 0.7598360269132608 4.847871908658471 -0.11252432985367718 0.12402538851474124 0.18438820587351468
Ni 0.8608658129666787 7.448938201786982 2.6069092593906147 -0.9695334344345561 0.30167139056841596 0.7903478558079033
Ni 7.586356784094155 3.7544596676316635 4.057031868840148 0.3706674581221552 0.08768670198470704 -1.0569547985730186
Ni 7.505970633345339 4.039168178974533 12.612442792918374 0.25861389725730943 -0.9343715418214424 0.01821343768423315
Ni 8.35928867669487 -0.08374767093532058 6.911305463898449 -1.864604893104795 0.9737037637621618 0.2813540191673025
Ni 6.922254674589608 0.5713522784368369 0.4785788577537825 -0.23043666349214506 0.4490989600571814 -1.2601164283992943
Ni 2.005008429083432 6.501180040701062 9.133637760802012 0.08651736426695422 0.5271684506670985 -0.3131626790374671
Ni 9.142155426526957 4.977681025431441 1.1782377759247642 -0.2926524748992573 -1.1502876430999092 0.786468061137523
Ni 6.448466323336431 1.8568021342209156 7.1818547622775935 0.6919725637610986 0.014315131071091476 -1.0600046411429356
Ni 3.1261684088049457 4.279265098530504 0.2096273021677375 0.08730823559936576 0.4885430249854167 1.134303094746195
Ni 5.920929940815086 5.311038581956608 4.837354569386684 -0.09799014079324415 2.2174247815225687 0.7956391861138297
Ni 5.58429705692871 2.88242417179965 9.155561586385472 -1.603778047356567 -0.7662527625319127 -0.09651201358582089
P 0.12113993313408951 5.641819426651903 12.313634949943037 0.31350052199286005 0.5243752041926775 0.40346907803320836
P 4.046045459140177 6.31557513258949 12.733548248922345 -0.814834528095358 -0.5031823721651464 0.3441298168429428
P 2.44418355628393 8.454518139252382 1.5437280177199084 0.696152149060085 0.8962935040027983 -0.11229524456200661
P 6.279065666380322 7.919179037809594 5.771702034149599 0.6984332317847778 -0.8297489833133451 0.9951367368249572
P 4.807182544068944 0.7282096110802786 12.88920614035484 -0.17660573371461843 0.9860532864664502 -0.8116031656422539
P 3.968571718593435 6.0370725046678615 8.234241033049774 0.37568548016203684 0.5770373104730837 -0.08124994522042782
P 4.903047111654946 1.243036634688651 3.775527916012456 -1.43141797629218 -0.737139390105724 0.5204239328544135
P 0.16095285278430133 5.561714536701419 3.49467358489962 0.15018559184987681 -1.3413524896626512 0.08313739205112779
Ni 1.6616706506820023 1.03185513978691 2.8108768684616128 -0.9954861497445758 0.8127668469330518 -0.7916226087552688
Ni 1.5251593612726708 6.548649605116163 4.796003788274629 1.8928255785133852 0.5442256632597015 -0.19242958812075248
Ni 6.064245926958234 5.553040816598047 9.135403352781214 -0.7928022308856669 0.9370632297209925 0.059330005218884915
Ni 8.661371847031416 2.472663480347195 10.071277791491198 0.06689393360907188 0.7494619162268189 1.833097309414817
Ni 2.1478798417066374 5.260475148759864 6.988497036353961 1.014904663480504 0.5947005320808015 -0.4512304045778874
Ni 0.7488341932340267 0.12438441253677307 9.107105794590415 -0.7944431089231996 -0.544036687177347 0.018940802768560926
Ni 1.2935547032405026 0.9493005590122519 11.368252988956565 -0.3267820695931146 1.6438988266368526 -0.7601021695494845
Ni 3.9559331285264934 6.836334037163955 1.766950196668913 0.5239026354316332 0.4238630683085281 -1.5897915032694878
Ni 5.784418651405755 7.85718371410004 7.938194989655468 -0.8837544909955232 0.5475714398034828 0.43638896868968075
Ni 5.235252406199852 2.9546083947519723 5.066313561328744 -0.0422149428051531 -0.7234881178708766 -0.0930687922322268
Ni 0.5851630909277902 7.2111548791205085 6.780187123473891 0.9043860512029457 0.7400118265575126 0.0030482999080205567
Ni 5.065779165811915 4.560979543310494 7.046540192200516 -1.013349660288558 -0.38133239403516905 0.3731236329721316
Ni 8.207035855507977 7.230316905122935 8.911503426037521 0.8937982483847703 1.6494549805683913 0.6799387725250161
Ni 4.521339916603771 0.29201584834209054 10.500101614020215 0.4901085697003236 -0.46777288231760084 0.1586946577621525
Ni 7.927843684983987 7.0152975612633215 4.61899275849142 -0.009388383193435445 -0.10174163741587638 0.9384264286171063
Ni 7.181286796923544 6.117758062072965 7.061758215976023 -0.30630940356105957 -0.44158696795085234 -1.9003632816513274
Ni 2.292556767196548 5.21957438492514 2.732808851066784 -1.2826084388542234 -0.7335215908474787 -1.399286642975274
Ni 2.383068306685282 5.444882430246284 11.254144575780753 -0.27453545358357234 -0.6334539986999155 1.5227065366955326
Ni 1.102179412298656 3.2802811804324152 4.0033845470836384 -0.10130634965067067 0.7420355418557608 -1.1148210747621834
Ni 3.5521968619157107 2.688934888405831 2.591160469269871 0.6704542300733486 0.345042044244567 0.29598513881691607
Ni 1.244560886757026 3.5394493967010283 8.296413278874407 -2.308030714036599 -0.5697346061640833 -0.9052550840714604
Ni 3.7335102746204876 2.3219076924417417 7.090175536829337 0.2351546377931047 1.0129249140463137 0.3512851969408015
Ni 4.013999873988392 6.942342139347834 6.108196102222607 0.0762126399068365 0.03399101223346404 -0.3060880315788728
Ni 0.847206518389665 7.563556513571382 11.290330138425393 0.4279827469038564 -1.0814049611955827 -0.2573689691066148
P 0.05268468399189854 5.634724396190777 7.984273674058178 1.077050797991945 -2.3246603521734803 0.008529120516933698
P 8.62796532253287 1.7790199140889071 8.079817967251243 -0.4480198680603896 -0.29181378104804584 -0.30832591977045604
P 1.7069717850712611 3.337558581073191 10.36626139490213 -0.35467211113516334 -0.3175579798916854 1.5386342636693824
P 4.002867390131868 6.125297666054033 3.7184002186998244 0.6914655422176931 1.612359618377991 0.6158164881238104
P 6.5692632997551375 4.037217499244172 10.563549513659213 1.066675368294892 -0.08073855280164804 0.6100389622100849
P 6.612441368763445 7.69922402058572 10.140808182717333 -2.71335715699352 0.5303789871845962 0.24787877022799246
P 2.168393734126848 8.594549725105342 5.699490592410342 0.01758274607876972 0.5580949650426259 0.7740365202423896
P 7.042679660920197 3.7667353405394675 1.6846859496215643 -0.13504770776717387 1.1929227041616166 -0.9916989147880019
Ni 5.380301321777879 2.7720792095640863 0.5689161970061307 -0.6479452503375551 0.07501579138525791 -0.06685999504734291
Ni 1.478161589164447 1.3407067151413599 7.132031680085489 0.40529507549835364 -0.17227959553543878 -1.2816874697018508
Ni 7.1345975044005865 0.663931538439753 9.306438951539235 -0.8655006869916577 -0.6493220760804237 -0.038687389267868855
Ni 2.9004702275377308 1.6939612049162047 9.381160872726824 -0.5811906705198248 0.09904840685442942 -0.003024131538304469
Ni 6.578526760242106 1.799415858432399 2.60770586255492 0.8600628038055381 1.072269574553218 -0.23036133016951937
Ni 4.3615293455778525 6.7130510782051624 10.509888582509237 0.045344746683386415 0.7057166528200683 -0.4771970038449781
Ni 8.306593105188197 7.307518457800325 0.4277758992320086 -0.008915814432391096 -0.17996410866389007 -0.6507387539222922
Ni 7.580232557033721 3.924831127988464 8.267743730595493 1.2832455582175901 -0.3223469166398964 -0.16740504105195686
Ni 2.8946272612756268 8.585703619351381 12.355969236556353 2.0260226062250655 -0.9967295352333738 -0.1883243077031273
Ni 0.16587854592668638 5.139106577815519 10.121260557233322 -0.4176461408645388 -0.9097647990163559 0.47963106720776755
Ni 8.688763019617271 2.3476385190245455 5.9166574985591485 -0.05200030432669109 0.9493147933948359 0.7970316955859822
Ni 3.5736180472337638 2.861955644024331 11.413415307532453 -0.8198414943916461 -1.4356204444093017 0.3201789624543002
Ni 0.9956541531630079 3.4340310349007477 12.559006870407064 0.0682069959935406 0.006637559921175666 -0.9616249782207568
Ni 3.065016867490385 8.849798436055277 8.036049250566439 0.20884119670955648 -1.6861891027646316 -1.9484778777703666
Ni 5.722414254767221 7.590085757904286 3.6448877189450615 -0.8714167953657767 0.33748582916386394 0.2573000635418924
Ni 3.1250978031854926 8.378949713791108 3.704749997051789 0.9643349209527521 -0.42186017894588634 0.4912941053679927
Ni 3.2898440475756714 4.110417890242078 9.200497989029797 2.1855374458956685 1.1378974969656726 -0.42117729394624887
Ni 7.127321015359893 6.070860092183503 11.368093305406546 0.6840779915043702 -0.5493277603729573 0.6275777424247965
Ni 0.9542271594475349 9.132719580389399 0.19760930044292027 -1.924674604703182 0.25938239999221774 1.0611613804551983
Ni 4.875283948980976 0.13102761113477338 1.8300261062197976 -0.876682157529774 0.31195760298577246 -0.3049690874830812
Ni 5.956259926257061 5.67373799079799 0.6298191400666835 0.01346666702786713 0.18524155501274547 -0.3409228798698709
Ni 7.933223931868191 8.691049397719834 11.502956043620499 -0.022062379116678136 0.38051092657513824 0.3842279704154093
Ni -0.03015297216688634 4.9266548728567985 5.712052062580967 -0.21392323921815415 -0.6073832697547927 0.49447121754439366
Ni 8.38043767414357 9.204758636478065 2.346743928227273 -0.0252150658130469 0.18510400099361668 0.1386163989550387
P 8.556760975910215 1.8107479467264476 3.8814552691284265 0.1496294622360907 -1.7114375929187753 -2.057728421968779
P 1.689279573563339 3.116977531749805 1.5921429813345618 -0.3466389564180417 0.5476765979227795 -0.1013297466894384
P 4.881281155035712 0.8584787253524561 8.322042488652654 0.8284703737112377 0.7249356489506805 0.3048163639553008
P 8.333149568308038 1.5883432386783989 12.24118398287875 0.19028245987076262 0.5235460234231629 0.14319630501623726
P 6.6772855921722245 7.846296199325934 1.6854961621793372 -0.5241546035414392 -0.5622231282783866 -0.1877828333773605
P 1.9394383713563794 3.3658298277699528 5.996172648126035 -0.1676328407920468 -0.6769647774983567 0.802655726640979
P 6.901659125808591 3.8790854200792624 6.15248197585918 0.7324949493551772 0.10875046463354175 0.2602977127176356
P 2.5375258496139312 8.425874902467505 10.04908903638157 -0.024491300273144917 -0.062309913782815265 1.965099545487448
