# total energy = -340891.3858162003 ev
CRYSTAL
PRIMVEC
9.06438599767365 0.00000000000000 0.00000000000000
0.00000000000000 9.06438599767365 0.00000000000000
0.00000000000000 0.00000000000000 13.26664514977143
PRIMCOORD
 96 1
Ni 6.600069464407202 1.6945325654608505 11.246532616564572 -1.1360105643556049 -0.5483949641460427 0.8416161670645763
Ni 4.5378763407703335 0.2329782861017955 5.846450978593513 -0.38992579213113493 -0.5017212142385875 0.4338659451575108
Ni 2.610488764856493 1.5185112548615038 4.588520877903073 0.4791968078838264 0.2741443887927407 1.0065727465760408
Ni 3.457927270919808 4.398574857620287 4.953460307419433 -0.871159427939332 0.5846639737804059 -0.4876703925724762
Ni 5.300798512314451 4.489717258262772 2.664114578525415 -0.9400197412461553 0.3379535128289018 0.335100616761139
Ni 7.314868810987524 6.294790010281068 2.7918063961614985 1.1069313876014615 -1.1311486082776132 -0.511493720244319
Ni 5.109113942808071 4.589044799410496 11.467568574188348 0.4179163638067899 -0.5751542345177578 -0.45080205879121715
Ni 5.737348403646401 7.8425067166463105 12.40904917795686 -1.488124942065921 -0.25945310532915317 0.35650402213757953
Ni 2.1136879001709277 6.468382065448075 0.17126160154142828 -2.187680203270284 -0.31649328607259686 0.8637343391198543
Ni 2.705139082858366 1.7060533999925858 0.36275128675006396 1.316976374811132 -1.3988806657861068 -0.5856949861480817
Ni 0.6374194031129221 0.07703187104724381 4.471124389819424 -0.18404084983642496 0.010096722114369709 0.5350686793507817
Ni 8.647424188257721 2.3711255252974555 1.206216872455189 -0.1438308532764426 -0.1704857368598096 0.9734965328473622
Ni 6.7767706039521665 0.8798219312781679 4.994626216173072 0.18476564381759147 -0.9593562367912382 -0.9318341201115695
Ni 0.874989707132717 7.372627078207208 2.6198704043060177 -0.15748932460014167 0.5340088706276996 -0.45997241243657555
Ni 7.585567632746569 3.9053725541535247 3.7592102372843037 -0.03457799508518561 1.4151575485692596 -0.19627030202308135
Ni 7.368702199094509 3.394340603539695 12.60294092544001 0.9133589441255173 1.4663063035289328 -0.044396523837504184
Ni 8.073811717103291 8.882916935019708 7.115272845431342 -0.3936112114025221 -0.47757958399537753 -0.7491708673489613
Ni 7.100160701189557 0.41765971102971805 0.3462686073539132 -0.8727044038289486 0.9582761163531818 0.20411088111342268
Ni 1.8570932629369659 6.351886577327018 9.719834408320644 -0.07162064966077988 0.6298629389145475 -2.8273151339699307
Ni 0.28033607689212175 4.872723821837869 1.233411843157087 -0.3426848568663001 0.14735686415183008 1.4234943505697288
Ni 6.135773487708107 2.056745427685985 6.961976856826106 1.3759428260430109 0.10516737526797372 -0.29577019459263254
Ni 3.4038491443924017 4.472531182517556 0.6655398476194546 0.3711467117514189 -1.5265331095304742 -0.46851104603520605
Ni 6.036210272525903 5.684530226764872 4.81508883026699 0.3546589985090408 0.402986481969835 0.6769079561184922
Ni 5.434724814601147 2.8277530314899826 9.22289213921439 -1.080087785046056 1.1912967385224194 0.3862000065401155
P 0.1490583881775527 5.61298502852806 12.482586728223627 0.1298157699442732 0.3341781049468696 -0.31726950211698907
P 4.026382106473483 6.206013414369332 12.519188718655688 0.8483105483656164 -0.4880102924103982 0.1899610719756019
P 2.4568836806906487 8.384321321917712 1.301443685402946 0.5024089843342316 0.43553227711634024 1.2407308247838311
P 6.457260063897768 7.8756098541049235 6.064700543978851 -0.10106955104951626 -0.2382397044763316 -2.0970557588134917
P 5.047548633492927 0.8116931001027341 12.58747255083072 -1.0122386866125663 1.869513386150006 -0.11824477727722217
P 3.717105258147117 6.291644668359344 8.322750573971005 1.2938091926660493 0.18526443783088092 0.14744042500457188
P 4.757089450381261 1.103924370665978 3.660134686065756 0.05758576883426857 -1.2712904427382428 1.1674399865094796
P 0.23813682814114293 5.567581519346737 3.6832851277605254 -0.10421529576734956 0.06819208359520514 -0.23531404618910445
Ni 1.4323905240306478 1.0862578824658582 2.4301310520226993 -0.005567209675132348 0.049424316069398753 0.223160441545706
Ni 1.7391384086793162 6.4889128996057295 5.10867975872147 -0.023257684976359945 0.11659361482704436 -1.0608592758337472
Ni 5.888415459748605 5.463685527684462 9.296972646199059 -0.14242034608216117 0.6924374192126591 0.46232342916725544
Ni 8.513307533866252 2.2679274913526815 10.045596655358942 1.7295042206124989 1.1585239149667725 1.9209205369773885
Ni 2.258980942428352 5.274031380628995 7.147723347102163 -0.5032700467829461 0.036700697855143245 -0.746144936038444
Ni 0.3659782081452629 9.105356966025836 9.389056836540874 0.39288101810471693 0.19139780442212842 -0.08847063133858311
Ni 1.7021829071955357 1.2579826741289006 11.409434134952091 -1.006145686340951 0.7024870901391772 0.15790095821626354
Ni 4.21504823546132 6.634795126949357 1.3984235505918028 0.3623401692033824 1.7240660803160632 1.0309797146654953
Ni 5.691246936747576 7.726319417647267 8.047560348977912 -1.8589063000581212 0.4701141288562678 0.20513597994382735
Ni 5.209311665006185 2.944148811365682 4.821510041267999 0.9820202540476571 -0.19392674149156924 -0.493670318909653
Ni 0.9478447091380853 7.5543045656340935 7.394814882114983 0.2215190492875411 -0.762096574271694 -0.18583625117395092
Ni 5.096877021786952 4.915915620849449 7.052097701172977 -0.41032749571593846 -0.8204361905528517 0.46692338983311205
Ni 8.273608912027377 7.085748327542461 9.220093056835633 -0.07648311995940377 0.5077723055286739 2.491737320462057
Ni 4.493125467376803 0.7193968031298864 10.237246780198744 0.25109187784865145 -1.8912528347096267 1.1581086818062247
Ni 8.436069901258135 7.25756376306492 5.025577468409156 -1.3810917172338022 -0.1966181722808033 0.1071448107093187
Ni 7.4088393000437796 6.246349931809318 7.398011891036575 -0.5448103321185779 -0.8033764068570873 -2.832933765708289
Ni 2.437513087933514 5.459298364888743 2.7261367328920127 -1.0794118420249539 -0.9960294238425556 0.03347062095361978
Ni 2.634600031461069 4.995790989766563 11.32844112724838 -0.21944391192606724 -0.24747202170787708 1.458508661861385
Ni 0.8917198442650726 3.335902507374393 3.857370285522753 1.397451132428432 0.374248233494878 -1.6085664698841458
Ni 3.746881765965174 2.6572791250868772 2.657030760912078 -1.0306560127774895 0.6929873781788581 -0.7452674185294971
Ni 0.9679767103143121 3.475312763155739 8.100201770333578 -0.3682405938482174 -1.321375532320092 0.3748532140687286
Ni 3.7031823613408656 2.670957283472706 6.697055674666218 -1.080587864610926 0.26371727992214583 0.7290725539371895
Ni 3.984006102196644 6.6703728417700185 5.989770704031457 0.21197845678695748 1.5122807133765181 -0.04248362308550748
Ni 0.8517377443154017 7.467839388137459 11.455124078729167 -0.35604867976771587 -0.22373508310225337 1.0340480691781742
P 9.382908463556705 5.55339575534818 8.172253667744524 -0.3738525407183561 0.14839790382183474 0.14627160150745133
P 8.502593429683317 1.6022752453475517 8.13913965302278 0.6121470096920232 1.014881266441736 -2.6588011761245114
P 1.7224146166171197 3.33351857387176 10.428485381916799 0.6902884911904563 -1.6460171585314363 -0.9621003751952787
P 4.182697442035857 6.169773999374935 3.670204312408246 0.4025679063751776 -0.16892430590996066 1.186599075936434
P 6.963741692768929 3.816559700698022 10.388777932861158 -0.6492981648210238 0.7587001469956351 0.6725440227228418
P 6.211796492600055 7.748663128993237 10.144592439981205 0.9310849006503706 0.31933615483803063 0.45427227672800474
P 2.299725357235709 8.448207114033897 5.86246412279789 0.5953384227751166 0.5664024564670567 -0.2604211256693773
P 7.008945785459539 4.044048594673604 1.5353220650287394 1.373485365641454 -0.36210491326412475 -0.2505640303696394
Ni 5.411973205887806 2.775859421974495 0.630438013060725 -1.1880036695934444 -0.5046378736647502 -0.9084699914643323
Ni 1.3109821387292602 0.9635079680451182 7.047957996113461 0.018243005370587935 1.3716925354070892 -0.38273570214059893
Ni 6.7521064098051555 0.8064239725548994 9.037835448708485 -0.5941991669643508 -1.6593439575473292 0.2750360473690747
Ni 2.7764486070606966 1.7408515776222728 9.030392681411863 -1.7462968666898055 1.1362224232560947 0.4948016043006188
Ni 6.541522595610602 2.1033001138818883 2.673122765274147 -0.8597146764375 -1.1358853516316503 -0.6934779446620314
Ni 4.126489184812182 6.944797126151049 10.492907785680725 0.47054658840799607 0.8873306383825558 -0.960537915804165
Ni 8.141160104649156 7.242816007137985 0.2861019327895544 0.08912600553439488 -0.636142344165356 0.9531110272124746
Ni 7.502129960154417 3.9474766268521173 8.11244775574064 1.080339496045546 -0.7938011044638265 1.0184967517071362
Ni 3.0948804851880487 8.322266535761724 12.403795459865126 0.8918107856410965 1.382988934256515 -0.39933834369428645
Ni -0.08196017768367538 4.757361381959508 10.457233988369081 0.361363664222726 0.11161801598932389 -0.45020016354116016
Ni 8.441735142471616 2.6645940845417235 5.5809324534000755 0.37961206890995264 -1.945624981702604 2.259422980331225
Ni 3.7883422672619154 2.642649206177183 11.643842781155467 0.019440368112798777 -0.2425722704134145 -0.0808172285583834
Ni 0.9632360364668711 3.432556054669354 12.619657465993454 0.1733489173402176 -0.04879388157425145 -0.628552190522924
Ni 3.1383804733216425 8.589312409986317 8.211204240574045 0.10417930032309154 -1.515098128220655 -0.4372330618575308
Ni 5.649931465625899 7.918765395572738 3.6054093623821215 -0.1628837561428356 0.7840658794539336 0.6347657755328036
Ni 3.2109408827839103 8.188077366282723 3.7373732251124676 -0.5668372300116303 0.37766625803749154 -0.5119248942444667
Ni 3.3932619416126477 4.22769305384981 9.005345970178116 0.11145346538700161 -0.19782993320071734 0.7449961671459814
Ni 7.174334571349425 6.280685825755985 11.573171389723422 1.1089677013052 -1.9099421835890136 -1.5625722625422185
Ni 0.6638176142905562 -0.030021246238479633 0.33053011404356536 -0.20214167320219384 -0.13284298680637122 -0.21540445174937098
Ni 4.644917674354333 0.318426439495787 1.5173065979698692 -0.29252803350625106 -0.4974475265638981 0.03145410474422325
Ni 6.022776852560496 5.445212309135543 0.24221670825344357 0.058329588978828575 0.6716814176122304 0.9128601501122278
Ni 7.9176867336456915 8.62934073830429 11.337953293855465 -0.3862288028955219 0.7707257107016017 -0.31018816979017544
Ni 9.032823749721391 4.945193587440721 5.872971558981358 -0.26614954351272224 0.13782655606389166 0.5042563219556154
Ni 7.8916719459933855 8.829491444280094 2.5409603924916806 0.5653416193027103 0.2790950479297967 0.5953669620202069
P 8.409203061327322 1.694269698268545 3.6017618534792337 0.8082486473477241 -0.7301747858624328 -0.1166334669260443
P 1.7675643229920797 3.0986331409678587 1.5062154153317642 -0.37062554914062623 1.6193008255825145 1.03494821239494
P 4.580995624694382 1.1473790368698644 8.049377758359196 0.4522747866820017 -0.5672177532795005 -0.28551097875846954
P 8.65907192419264 1.4274866912362587 12.400638334241677 -0.00536794918013269 0.8167147758372063 -0.7575264384025082
P 6.265049760006777 7.653922167131948 1.4972208251619443 0.46450141065518064 0.2875166963345887 -0.8490790511005247
P 1.6281359384388507 3.4160226147119297 5.929248705538189 1.231235740809202 -1.15499224766443 0.06149101742594571
P 6.799150572841902 4.005842207929886 6.144671995386946 -0.13641990552435215 0.6643581444779397 -2.0503807233544564
P 2.246100450005381 8.62097431008022 10.257133136515954 1.5034219774343076 -0.38077754997296354 -0.3037377861791414
