# total energy = -381174.9877008984 ev
CRYSTAL
PRIMVEC
9.19993257570329 0.00000000000000 0.00000000000000

0.00000000000000 9.19993257570329 0.00000000000000

0.00000000000000 0.00000000000000 13.46503126798032

PRIMCOORD
 96 1
Ni 3.3434394934195018 0.5483067810475727 4.81358687760457 0.44748482149252605 0.19094477604510987 0.3298632796215996
Ni 5.58906023357761 1.9629988117066 10.337925585574876 0.24629291379811133 -0.6796122424235329 -1.6189197880940118
Ni 2.505932832135173 3.8168128237106447 2.040032607068026 -0.6806725653672471 -0.40864110915245105 0.5137187529200958
Ni 7.600929087078949 5.445072088974923 7.0177996412728545 1.6412498190497797 0.993575048764792 0.0049064361626818724
Ni 0.26761683843508854 4.748710793130145 8.478068137867714 0.7953267970797334 0.8574161102113104 0.38875156931737564
Ni 7.265361546705617 8.148748271700482 4.006775791329305 -2.026157846251349 2.79781275363544 0.08315384711136002
Ni 8.131268399823599 5.848397132702596 12.530544594222503 -0.7525842639058845 2.6967498874541427 -0.5987320218376978
Ni 6.0801434340598055 0.8189963969599662 1.490444275413901 -1.3702691726970013 -2.3652483008981715 -1.2022684070425746
Ni 6.213717254996897 7.450473389881815 0.7301416082434832 -1.9533172081405392 -1.1757407930656911 0.9399901735598005
Ni 2.7418467029451343 7.65254070877859 3.7457829043422994 0.024291782667829134 1.7602893243141555 -0.9142578017907029
Ni 5.78828477331125 0.7022860524177841 5.846449506978208 0.9413230334386111 -0.1716098231619238 -0.28330034426039596
Ni 3.10403884816673 5.2132521881571785 11.15290989194247 0.9259259821572505 0.5402227127478954 -1.2428180463301628
Ni 8.334448910560955 9.132837458571332 7.460489356467269 0.07103212414716153 0.39830604577503015 -0.17484272827692468
Ni 8.883510086079003 4.346121744007815 2.3663845749892136 0.47404560270019 -1.4629085907012935 0.3192744483621598
Ni 2.7879199652395728 4.652764696391188 -0.2027177541292463 0.052107262218200584 0.39507879708698407 1.714048291068745
Ni 8.439144143170921 0.7308858827881357 11.360245092226982 -0.86053023036026 -0.2905194877166545 -0.28226804634113967
Ni 0.9255592158809889 0.18842841886652228 9.960326313283693 -0.5232269495208473 0.9866209860444622 -0.12239479488985372
Ni 2.0432866232168965 8.176808066029164 8.458221123341398 0.1676860626274854 -1.2263663285320427 -0.5295649759237331
Ni 2.835299617958494 1.495090241360125 8.994950709246934 0.7890062541783444 -0.753417044219825 0.68199796904689
Ni 1.4962954325263735 8.022626396142485 1.1260533463088442 0.6375495089255278 0.7580188046578946 0.7730859834036622
Ni 5.293052403241435 6.835283099073746 3.1889772255895346 -0.32961413972527104 0.870425635097101 -0.9364695620010517
Ni 3.074194266920093 6.343160306211503 2.062303803825689 0.8897389907137322 -2.4673750895676085 -1.6694036557761767
Ni 6.513828255257856 3.5100962718667374 6.318021490472775 -0.549711368964621 -0.8634224643063905 -1.4036145809266667
Ni 5.951565176506476 8.253710302354886 11.631215306082662 -0.977179638125904 -0.08341378564096602 -0.8576912182495681
P 6.817830826994562 4.157403527265439 3.639032406796914 1.1423578467298714 -0.19299394526465471 0.034300315943766736
Ni 0.2105054970470263 7.051766712302666 9.688843663184045 1.0723063413284242 -0.736457533547351 -0.39309930476311006
P 7.943525375933302 1.7370944675292959 5.835421547810408 -1.6732309999420667 -0.4503752556664437 -0.04215220788801772
Ni 4.006727031686702 1.9080568144177845 2.804981240184668 -0.46395350857151063 -0.10921043498909579 0.050692384148544954
P 2.139655916853926 2.9359376803065103 10.572042709554546 -0.09905380617106811 0.5787548073848225 0.21513988523407462
P 0.5948041602333399 6.807563702250035 7.521337710463958 0.024676419700757502 -0.18814021671677922 -0.7974605555932847
P 1.4276455357130546 6.946381484750192 12.602582826200168 0.2897923797426429 -1.3909220730606626 0.315525779953005
Ni 4.969766772844756 6.481987288644227 10.093104340053758 -0.7875276127502888 0.965332508979331 -0.7321961871678357
Ni 7.698724370263831 8.575404344417512 13.15738199966012 2.1136951671423856 1.023348937593115 -0.5401111268706956
Ni 6.227498753981935 1.8275850042561523 3.6564561590851405 1.3206425108088093 1.3346172278213466 1.065004151240056
Ni 3.8329311055676443 8.894044008867967 7.2934287009803525 -0.4964651080459708 0.35466002695030535 -0.6777546203895037
Ni 1.3676619753776431 2.1361599424785496 12.76354392639531 1.2663148439005223 2.220019795943254 -1.6278384307398803
Ni 3.928923201969436 3.008359549472209 11.979258875009807 0.16839414443810352 -0.030711055930611623 -0.5622362409045091
Ni 4.291667343145039 3.1046552436487045 4.9982736838961825 0.14915303682030442 0.0823694035368517 -0.013184359900757937
Ni 1.162705877654899 9.128909087365317 12.484628650774958 -0.48385410415017965 -1.2183457722204114 -0.04134770970885137
Ni 1.5754332524658223 1.1187485998508202 3.251980203793363 0.03153226628032634 -0.19016187513249833 -0.6737460134507428
Ni 8.431738197454662 7.164125488740761 1.3531141220097929 -0.16272151953335848 0.06627249797498909 0.9892471108133996
Ni 1.6799996860198536 3.4145549721607176 4.571001215697179 0.24395089592849598 -0.7940972955480067 -0.20866559036364063
Ni 8.688876312696188 7.309466023430765 5.563091583921357 0.2475481263614511 -2.3912784064133463 1.6226018649312894
Ni 5.686781917301957 0.21594081720748046 8.36850338095015 0.9334158627763924 1.4446108208333701 0.30609497355740833
Ni 4.6484407280848 2.1597761693774755 7.3317501000940215 -0.7535178314637474 0.8472134586466957 0.41380491274157766
Ni 8.688250717281647 2.3620366868581533 3.728372951952923 -0.36525220064385483 0.016913745036203128 0.8687893850452586
Ni 7.9047844598945884 6.185271063500411 3.5036949587867707 -0.07190655633231487 -1.5436134620515287 -0.8798860091790525
Ni 1.9867714374591616 7.845242496322382 5.817634398185794 -0.8420781943026593 -0.19104967705409032 1.7383002216375738
Ni 2.439748517249751 3.543538026746986 7.864776713141428 -0.6308404723364683 -0.27999236293308555 -0.8500028484663749
Ni 4.820037870320397 4.43061392470113 2.938770339543822 0.0799718498389526 -0.2020563125772391 -0.7693514560618944
Ni 0.10669897792301111 3.0589683785220707 6.717569041888527 0.7736819651164482 -0.2745583364017078 0.30179120397573184
Ni 1.3656011904826846 5.185836389108172 6.1267640923419675 0.8760972315605815 0.8118106536673696 1.384680977246957
Ni 6.18607145763372 1.3831454618875356 12.317245077654947 0.49675744247540904 -0.5882869152449739 2.129016370880488
Ni 0.0062955138554481455 0.19946189799386257 5.114112794824291 1.068436573960373 1.3935497404914967 -0.9108567465289539
Ni 6.929996404848755 5.0743884059941875 1.1489225386833481 -0.6503260918649058 0.5455505527187121 0.9110904598063148
Ni 3.29283066436964 5.404748784534722 4.476975144884909 2.074374772276208 -0.24560025860646087 0.9080563009656812
P 7.914113191517304 7.608279833199807 11.02856084339009 0.49431103781744545 -0.09244504260529886 2.6160936099536563
Ni 6.741002190129375 3.553667152503011 12.89540655987498 -0.5523194960114295 0.4218195555159381 -1.1037982412891183
P 0.9039347743827704 2.3153194292840396 1.5024419074742397 -0.5748022504949779 0.1885323099488753 0.40356909394618234
Ni 4.095313182372235 8.413246332995433 1.5724865140646827 -0.16055459378902673 0.44195360726165184 0.5888458730722375
P 4.7689138450467965 5.612998458116373 0.7505148589126195 -0.6095769349720018 -0.4993591417643141 0.8903676254366666
P 4.488398701153081 8.820223749952119 9.997368001777323 -0.7391885593252688 -0.3480769744161489 0.2801916234280852
P 2.6729116082222455 2.107538952263294 6.099955488842368 0.11142903990696938 1.2671270553891725 0.44496385484288525
Ni 8.484325012006382 1.668269771997208 13.455551814149485 -0.4656594355190238 -0.44592261921172877 0.5455176425982476
Ni 3.1703979617709206 0.7620423744187957 11.420339051753196 0.28504303798311553 0.23437945018997697 0.03844004914375315
Ni 6.008650758083351 5.037846273838934 8.451932969432002 -3.0219165329310216 0.3864445184507538 -0.021666943450472362
Ni 4.457910124626769 7.706406313957093 5.40567153777117 0.060491372516837755 0.01133393695558048 -0.2167295983186977
Ni 4.150650776761421 4.922230721272199 6.80958952740124 -0.08639317998426412 -0.5021251345452256 -0.6196554022539263
Ni 8.501611685299363 0.2554453276492375 2.3710710206387318 0.4421410406821095 0.15136392842869417 -0.3904251003650566
Ni 3.9289048021043023 7.3088220281510905 12.77941841003929 -1.433591844015047 -0.6214996545515168 0.037530907065922464
Ni 5.914323849476148 6.038642538251057 5.255132121187678 1.5004186718316095 -2.297743216067662 0.2743194809180243
Ni 4.692306006563212 2.961936689740233 0.6759576853981706 0.02494484287079575 0.4653552740150438 1.086005950302704
Ni 8.397348849520036 3.1811066832786534 11.237632070949955 -0.4456793928526711 -0.3274042765581458 -1.072303513114947
Ni 7.628317286330256 5.346172813882029 10.006847612294132 0.6006135551311269 0.1791963772599301 1.1985045691247682
Ni 2.7675237147390193 1.112915842603481 0.9097758115694197 0.12816023661872122 0.04942971538603745 -0.3926406199591367
Ni 0.9700776895716414 5.735403560917393 1.1434770985970706 1.0163069431446692 -0.010645909749620375 -0.9293776881512769
Ni 7.661538242828902 1.3559320613549977 9.327361752756602 -0.7851115471096286 -1.6968221569984456 -0.04578569087554695
Ni 2.7709828893841295 5.815442974248386 8.706704862017352 -0.2433214898746132 0.3129981284351448 0.10814368428747827
Ni 0.8283968880567028 4.992601005475506 11.357148394925003 0.4057663587078173 0.29887145922577557 -0.8432485604616767
Ni 0.40632514173770035 2.3767473790324356 9.125615511506409 1.5439675029568378 0.886229434898577 0.2321564743967292
Ni 5.716552899088058 5.80603144323257 12.27270268413962 0.20362160018182998 -0.7109413915541176 -0.10962129727426928
Ni 7.470188845372427 3.3548658096674435 8.405276431412831 0.7693108326319461 -0.24033643910436028 0.5847717030028639
Ni 8.57226716741224 4.608807418587109 5.136087753753304 -0.7266755144599226 -0.5498625498305045 -1.5559724978375138
Ni 1.2810354103288348 5.673322415956756 3.7817344008267657 -1.930970979234855 0.3003411017927666 -1.2901104036582234
Ni 2.3692494339905092 7.731034533438364 10.76460557811658 1.399694419936654 -1.1437251593910434 0.30331638237100667
Ni 4.183264537710659 3.5233993743583025 9.569005341569154 -0.9684494573417579 1.5497450288705634 -1.135041001353484
Ni 6.601650811540345 7.585684798815794 7.029836833043231 -1.2168414197607431 -0.24026239133331528 -1.6595589017716128
Ni 9.053239642003543 4.0869228438713305 -0.18003532038584807 1.0135561198724095 -2.0797836019966054 2.3085079107833337
P 5.131897184469135 9.250900193200831 3.422851471349441 -0.3238967776255196 -1.6978120317155405 0.49059450819780664
Ni 7.243668105713148 2.591998201297408 1.6017597794989225 0.6462508933542677 2.625485335581201 0.9144565480650703
P 4.564960539973831 6.807830500294471 7.712244591163971 0.3125157894820876 0.10825244195120065 0.13687293390137073
Ni 1.3833202606063042 0.8644606237184838 7.2512424101953785 -0.4153023232227106 0.2837109494352533 -0.49710711250534384
P 0.567654239235513 7.717409433306962 3.5761241878985235 -1.0581452193366936 1.1743876214719065 -0.7647692360078506
P 5.889484031545839 4.2139095130906075 10.755476485030563 0.16504091169515447 -0.4895056460090021 0.07704876265488665
P 4.577582847455454 0.14751355876227773 13.073104177395608 -0.002276454739002531 0.9587965076330262 1.2684380608911123
Ni 7.1304169358160765 7.873339090381331 9.179664195342989 -0.33507850527395194 -0.2658394684714712 0.3726631483959453
