# total energy = -340873.60541987856 ev
CRYSTAL
PRIMVEC
9.22991661359127 0.00000000000000 0.00000000000000

0.00000000000000 9.22991661359127 0.00000000000000

0.00000000000000 0.00000000000000 13.50891593825797

PRIMCOORD
 96 1
Ni 0.7931904375449675 0.16867396065023313 5.757459656897677 1.0333996369608978 -0.1704728813440032 -0.8876399420928583
Ni 6.221019306583474 1.3272620366683734 4.465115318497176 -0.6577938609968607 1.040894659786362 -1.2812416404136837
Ni 6.8305630124359045 0.4889982233941545 1.851477930626588 -0.6708607214831479 -0.14042799824248076 0.5000026888855841
Ni 0.789707989934154 3.407842193272509 3.6626857342296426 0.05007609072078473 -1.476124318060619 0.13402158049550467
Ni 1.2246899712059558 2.2691104372786017 11.186382271077667 1.4806851979584241 -0.07113625382519362 0.548183619466185
Ni 7.567904146380895 7.239669844934437 8.172543074442745 -0.6978791590535207 1.571742873297893 -0.270717622499379
Ni 4.34935831687773 0.838594244295865 2.4897340616783774 -0.0017632625480098665 1.6244126928877831 1.2994738471509943
Ni 2.3231516001763297 5.6419066364396375 6.291683549648377 0.0628336474967692 2.610353365035769 -0.08412546699600995
Ni 0.22342859611704668 3.1109619192152196 9.154249947786967 -0.050815025769338294 -0.25636135377770686 -1.5820630242769784
Ni 3.816339851261861 1.4717933039297784 11.070327143145395 0.1527700647476014 0.03263038444051155 -0.1124885915197353
Ni 1.3860473768042625 5.11994561115707 12.880170765044557 -0.43526591082883104 0.10604386433565607 0.19602836121560432
Ni 6.0330520508341605 6.22841246994489 3.83492428875026 0.34293785341737065 0.5234179824857308 -0.591633977340336
Ni 3.7709009708271024 3.6424574485581376 7.3891880362459945 1.621844932160607 -0.9384541965312483 -0.7800924966284823
Ni 7.37246988793572 2.2822353789763934 11.41773567376414 -0.18540507717380325 -0.8836827572173231 -1.1523036450886737
Ni 9.249022733548518 2.913958574913065 13.009612964311904 1.0186309632921553 -1.5126856621244207 0.6827001373202372
Ni 8.039580584905679 5.87505433495315 9.904615417336569 1.1508882527983855 -0.7943423216792771 1.08230767551551
Ni 6.853416286446968 2.384715145270753 0.05745715510754027 1.3052973958113068 -0.7161481325660376 0.6542737636587442
Ni 3.0170013661325767 4.501578104838334 3.342011657638783 0.00226205656129933 -1.0775210527601442 0.5688447473599623
Ni 3.4133801433559654 4.206682262894283 0.8456754364692446 1.345372923675954 1.4332565721628154 0.7782634138395436
Ni 4.605608497156061 7.913407622170932 1.9972257009229923 0.5936960020756872 -1.6123192520583587 0.31148683399694094
Ni 5.476174250275401 5.523385274736866 7.071093721402344 1.161470399189606 0.11879499335373733 1.2451536364418752
Ni 3.3398546260812765 4.320164090021109 11.808697412814228 -0.36407129296187624 -0.7874473943316567 -1.6311281572347456
Ni 8.234774865513904 3.006313122471506 1.7028255055114108 0.5074583738326809 -0.25375785471658874 2.254332196071879
Ni 2.892757456010233 7.764039878503308 9.17947069545871 -0.6972037302530509 1.18325612760613 0.07516928624398668
P 9.298033591787107 6.072666853764485 0.9995233817543845 -0.4685627252087479 0.851230807336205 -1.8298798309187838
P 6.132596703584288 8.487822264660636 3.6558103692010318 -0.5916820569694519 -0.201502239845982 0.23956536526629063
P 2.1212379401335113 7.751616410482754 6.74614988529714 -0.7782127631072662 0.9720364033620678 0.23018109583791327
P 2.239953130089204 1.4441589330133313 4.421170761593269 0.2831681895579059 0.6325816233972912 0.019054702638605894
P 5.6463000768391804 2.8536318386706143 2.723046052711033 -0.22288456217650002 -0.9265852130078043 -0.3489022985309217
P 2.323834614019956 2.780207850480789 13.422918485965377 -0.8200199289510393 0.5532440647082277 -1.2957678590543167
P 1.9640063073473795 0.6094772504514282 9.897860964218113 1.3783815173914906 -0.022812369908825226 -0.38324015258084315
P 4.941208272213516 3.4569822703463786 10.004203450695682 -1.19254192378343 -1.0111811918823295 0.34354103421900833
Ni 1.0663230586527157 4.686388729040078 10.455684831249462 2.4102940282839005 2.7113316419230595 0.10983367039539148
Ni 8.615951969758205 6.655037684540756 12.311337453247296 -0.4739314457198289 0.5494576010826021 0.2428448073485108
Ni 7.430784502314515 7.14989967408161 1.7673583148422471 -0.591212059311569 0.7063990235990738 -0.8454792495644086
Ni 1.712195717052619 0.8038712972725937 13.28891024685422 -0.4163886143083539 -0.02752751599630743 0.2897108757724301
Ni 1.1349567200203514 4.297892300768809 1.657341398484303 -0.968763903258383 -1.2276691065038663 -1.2301152540515137
Ni 4.951859596207364 1.7430513289342764 8.697026635988324 -0.4880858828433401 1.4951016304940703 1.2748889587227785
Ni 8.888862149870935 0.20654154032922709 12.329695757773953 -0.6562139181042506 -0.37509926864126364 -0.23415062200862258
Ni 5.347038484246005 4.18837933786846 12.78568964465407 1.4812433844547395 0.4438173999432679 0.13931985277996653
Ni 3.8763712301665283 8.865187413264158 12.872321643792938 -0.20579032569837458 1.3700200328006729 -0.1425951810971286
Ni 8.32670483689928 8.135848617189762 3.998260588511722 0.25197659444644993 -0.0009567074863144814 -0.6269010280727462
Ni 5.80987266247087 9.04784746685016 7.7433380980996676 1.2868049934340742 0.556865463510899 -0.14057840777741595
Ni 2.264938514882398 3.5909914324492167 5.622316138019411 -0.6826160622468631 -2.16654136440914 -2.3022763280513248
Ni 3.6912375588765824 6.577598682540424 4.341995612241775 -0.2961419761097545 0.4551773050407774 0.10629094734945566
Ni 1.9309539752659508 7.567534949708664 12.822987738466148 -1.7354432118047531 0.15319686787237485 0.5037755256644549
Ni 2.1347136186699216 6.256397577699954 2.0299439100160526 0.44113548223573057 2.40471807685802 0.1632550234393253
Ni 8.529412269787393 2.7988245926780078 6.707352852995807 0.2881592150145941 -1.1595806383660612 -0.462004612375256
Ni 4.2063038363052465 9.092104917933781 5.253117619805626 0.2174662193744061 0.7577866340424304 -1.0684895386854953
Ni 9.069583920927727 0.9085948563424341 9.88205565467993 -2.256480609873449 -0.6498103285707518 0.33641933557256254
Ni 0.8299615031074371 8.91253688647771 8.166248271181214 -0.49587041188476544 -0.014262166345968986 -0.8298364008208289
Ni 0.9192157216108227 7.81448137384679 10.540385931792565 0.7300176914592782 -0.08550460673172372 -0.013079458891777473
Ni 7.2156166817386245 2.936138064997308 9.053270042973544 -1.7476747208739383 -0.40031304890272995 -0.36260139328456903
Ni 7.7589265045929166 4.904528582827424 7.6599338008677735 0.9647550392093063 -0.10944697647993408 -0.22376902166398233
Ni 6.2012395948687296 3.308971324449202 6.419585275800843 -0.35349994520393313 -0.12805584983037302 -0.33917761504399
Ni 7.593120279094233 0.3189683879651552 5.850576595584273 1.6341247779692245 -0.08390975144077807 1.291183067897112
P 7.896110758076936 0.9552779295626099 7.8986499081902 0.2481405085298114 0.11537979702460129 0.9568671518207972
P 4.38915771814417 4.750398202088028 5.529523169412697 -1.8319295143589611 -0.252230619438785 -1.9481685740600643
P 8.375401877966471 2.032113863457087 4.4340991060630985 -1.519246346061074 1.259000055406664 2.2907395310563197
P 2.7548163493481415 8.829052288969605 1.2714893413778845 0.096180341278015 -0.019893139379501223 -0.12469901754299816
P 4.3443372421353965 5.812060152753834 2.177191541793393 0.906348317135639 -0.6259970282012379 -0.027811108674997267
P 5.641223622596011 0.9449681124905753 12.353498790224329 0.18974767041321516 -0.9637700495882177 -1.2412314185693334
P 4.858462068049873 1.5545210482598106 6.626825520832266 0.07607405744644317 -0.2063860503008446 -1.7210260079381585
P 2.7448295793643083 6.374605122231331 11.16171531841427 -0.649558617571262 0.05972981176046488 -0.14552289626688486
Ni 6.169756348644281 0.29233361703877186 10.022805425026014 1.2698480538647614 -0.12805456427879236 1.7928127508631573
Ni 8.973814304151155 6.995086279498587 6.069042265434862 0.5072303169822748 0.837386188143629 0.12478617794016574
Ni 6.32925854096463 4.725569725880532 1.8051557471535171 -0.7644828151156834 -0.1413919048176468 -0.563383724245391
Ni 4.297467724595744 2.736476504655095 4.61930661668749 -0.2348772157620019 -0.3505966555142091 -0.4835612555001092
Ni 3.96382469190111 6.488308467361495 13.189484660030887 0.8304971743332794 -1.1063312921236172 0.37170078448267596
Ni 8.678733863870988 5.661114093312426 2.9930626539051564 -0.7368442274628083 -1.4248709192022815 0.3891513758589556
Ni 1.6943450579502781 2.031984644621806 7.190634065920472 -1.7499182654924765 0.8824321726396739 0.34898097428765706
Ni 6.366981210949772 7.543841753268277 5.982626246349248 0.42942513577733793 0.0845890368959898 -1.650252279658706
Ni 3.1590590156900378 0.5030793844730229 7.531531813224434 0.8725498805289553 -1.2160790876734218 0.6435689756467303
Ni 4.2886346942126305 7.577789387279865 7.038225987657031 -2.3967520279334074 -0.7651446170693983 -1.3164436422361134
Ni 0.5849533614985222 8.21503207346638 1.5293575260722656 -0.5382823011920729 0.2943265201675705 -0.5093836158798517
Ni 2.2282034459954705 8.639100601107051 3.356195270794195 -0.04647397519182319 -0.09317806411658147 0.9352295189463635
Ni 0.06214595284486665 4.677878745745167 5.293117310266751 -0.41788448212759 1.0668718005764142 1.1376599270335697
Ni 4.764953780890712 2.1699903607015387 0.3899372182846484 -3.114823602774403 -0.516466233758246 1.2638183027309138
Ni 0.6953588573539887 6.413232324063439 8.244005705311345 0.4616048058336759 -0.9065686606765612 -0.02569971875894929
Ni 7.881499799773417 4.59102522860296 13.426714750747587 -0.9013007274094026 2.0191299928702904 -0.46700875045806667
Ni 5.851111930759007 5.288317753527755 10.411983944149227 -0.37897186422279244 0.7327474316856155 -0.025786364935484623
Ni 7.205436083501871 4.001556591803059 3.9856026806043023 0.0798954880750624 -1.3817015829036592 0.7982167170330189
Ni 2.7347966597964466 3.103817963607561 9.335201543772225 -0.09401315842336712 -0.7141264741503185 1.080643657549526
Ni 2.3416852731222972 2.24512188350043 2.1374216762607317 0.589810808088668 -0.48098886678724256 0.024168626826403538
Ni 3.169101165174706 5.584911900164066 8.576283633310407 -0.25039279489909777 -0.9616424617222535 1.1439791843833782
Ni 4.637017904046065 7.676235679930107 10.755299006664618 0.7018134611109204 -0.34930699016850814 1.0726845506034495
Ni 0.2602725780222818 1.1346521327657613 3.0100567767279225 1.0329772047114982 -1.9093986523807178 -0.9554332475877481
Ni 5.931541425804405 8.14741370294738 13.517427296106282 1.451420901776668 -0.26632360719674136 -0.6161479033213002
P 6.103679374231841 6.174842032804254 12.481171614440012 0.8392322402134321 0.3099356874597372 0.05645062678856084
P 0.9566070375826394 6.548838261773674 4.083150902349344 1.409022125095483 1.0459723314195857 1.2252185880808448
P 8.493000247988668 4.040433001388923 11.151651017129272 -0.8057953007112252 0.37420503896176843 0.2958766382635098
P 8.702851636484441 0.8790517386305555 0.965192706195358 0.4525948890255818 0.5339402221732933 -1.3376436733524963
P 7.30232252021194 5.632344442628869 5.591947865745097 -0.00955859022271257 -0.8549234256964438 0.2368685351604179
P 8.071193049965409 8.009851022874324 10.53673826867093 -1.6118309995680304 0.6418756471047075 -0.16940021710511471
P 4.93991608386071 6.785871755262411 8.794263809537012 2.1020416420638575 0.3545960064815893 2.1203455825793673
P 1.460172838671326 4.25774216266375 7.713631610860327 -0.4875935165879538 -0.5528751114045832 0.4510062043822233
