# total energy = -340859.55664076447 ev
CRYSTAL
PRIMVEC
9.39786217152324 0.00000000000000 0.00000000000000
0.00000000000000 9.39786217152324 0.00000000000000
0.00000000000000 0.00000000000000 13.75472123849288
PRIMCOORD
 96 1
Ni 8.509726726228987 3.9133262512060876 13.536007977977413 -0.13825901561561996 -2.1158615786660855 0.9627446936474969
Ni 0.2942451892144022 3.419026887520918 7.068978047613885 1.1109718762194223 0.3472071702166859 -0.33689216144392303
Ni 2.024290142753803 0.5888897875767903 11.621611738093593 -1.3159839289908755 2.5962827458753157 -0.1937069121712793
Ni 6.092474369030793 5.504826039064565 8.516084380078693 -0.7237904796026439 -2.7989702642786503 0.00605700482735731
Ni 8.485630607277548 4.623212576180642 5.115794010636356 -0.8253236005521399 0.4799876792162378 1.2022722636973167
Ni 2.2788688347489274 5.272698840117408 5.629078935751203 -0.12450849879874687 -0.2105134422056568 -1.0740030123045567
Ni 4.910458237549868 3.5402593112625516 0.6362343382997051 2.106995900745339 1.4721943868785934 -3.1696570056745155
Ni 4.189623402989344 3.76754661112235 4.1391399662563755 0.40483613358406406 0.09053908383183762 1.057296241072837
Ni 4.189275682084039 4.775786870711294 7.102291589914609 -0.5009717376670727 0.2785821128491202 0.1570972313680456
Ni 5.246920503813275 6.051847410283886 13.37994613674517 -0.886813332426505 0.03273734233202104 0.7572104498239862
Ni 4.189444843605539 4.285932695896651 9.753679469234658 0.013724548674944105 0.534509464413202 0.520999088631593
Ni 8.909013702005016 5.763774737031772 1.2449677121346705 -0.10357380552860872 2.0362792509560674 -1.4822291454067762
Ni 4.955389417232717 8.94752614173317 9.945818764071689 -0.6035335569913993 -1.4041030905273109 -0.3560543361946707
Ni 0.7103862912492096 7.082736518029214 6.281285880825426 -1.3921590307915572 -0.335198575791584 -0.04086254254231672
Ni 1.360500332387986 6.719424559158842 3.6741337393776146 -0.5939628825838287 -0.3362792104502724 0.961395378708454
Ni 7.172486103047245 1.64422179539263 13.130711069256982 0.1410221801830539 1.8103628439317787 1.3368607724398847
Ni 7.8052065806309034 6.831183937696477 7.985344805303742 1.7148137084798596 -0.9030503631106576 -0.16501082978816745
Ni 7.43251555517959 2.505695639355754 6.436274486182375 -0.2029960507826891 -0.061404628359726515 0.966783896713877
Ni 2.0904604912472013 8.9499413923457 5.394120160891382 0.2431299426890974 0.2898042068171848 -0.5504317920704133
Ni 6.950424014629333 1.1042488209024732 11.007394711603338 0.15768755665387682 -0.8035157606484291 -1.7395891156523269
Ni 0.10611220307822908 1.4272063590328008 13.180214308951482 0.8873360376991943 -1.1332018912622162 0.48701039039097416
Ni 1.464431291625096 2.4972281654184503 4.552469227889361 -0.273417023708413 1.0492150067265993 -0.4225767453969368
Ni 3.220177518997723 1.316903649152526 3.7355760233450894 0.690721464962817 -0.9570170471351002 -0.17388267835650056
Ni 5.710150534716286 3.2212394774382505 11.808029614359002 0.870437719281959 1.2237376326599438 0.5157560950650988
P 7.772314062561469 1.3269029746456342 4.625135378808358 0.9458692580483968 -0.04439626672718806 1.9809565671243625
P 0.2605219001171559 7.075114851699411 8.889002833797802 2.610848816614949 -1.0962823925280474 -0.03278130819607902
P 3.7488730587212165 6.642794389919363 9.63753410835902 -0.47327967106844304 0.5541917733334779 -0.050893701526073636
P 0.9272673381780694 1.349589414251239 9.569861041682964 0.787041931363122 -1.5665294474177536 -0.2697550014757935
P 4.351379408992522 7.04960905340214 5.693340578410344 -2.2041866855657393 -0.8679290939274923 -0.2625628546027285
P 8.288529241143188 3.102074583403839 11.510748915619907 -0.7840139431700756 -0.8108308062526036 -0.2870040183642283
P 6.481179351850769 5.313767498392674 10.503201278482882 0.12213717035309289 -0.3841868327648286 1.222166174407766
P 3.6287965720431656 3.4654147358611276 12.235856018384535 -0.18961294460756375 0.3799915637365585 -1.4219411471499963
Ni 0.7338950438065505 7.98401970671866 13.281434924699672 -2.1798077425007425 0.044460801416536334 0.6421422705025327
Ni 7.228967255503617 7.743829141913337 10.707514564150525 -1.2114354182538234 -0.13075345126719415 -1.1734203724626306
Ni 6.353866511197442 4.927158238866836 2.719115453597478 -0.562743776668547 -0.5117027509313317 -0.4574385902711283
Ni 5.8626684420731054 5.450966890191442 5.273725086681174 0.21475884774557208 0.22663965834355806 0.06513735592928137
Ni 4.221726500625114 2.1047546398139474 6.230449084469767 -0.8249734163015727 0.9339051437079852 -0.47120350526570465
Ni 7.691398468110657 1.3444299878454904 2.6277842083534226 -0.35650967856453436 0.3051603775582809 -1.728510746350978
Ni 3.229537789854054 1.3688550319776227 8.285898779483864 -1.1263691846110988 -0.3459447585644945 0.5074766286651261
Ni 6.073960580288853 7.88816151120202 4.813506130860861 0.47006167835177753 1.1014114862244966 -0.8107153637206619
Ni 5.708731457508149 7.262592806832886 7.3599180086554234 -1.491748140640805 1.4659224378269529 -0.9612747939701896
Ni 0.7787792341778714 9.122852660905567 7.580543163926816 3.153681970402498 -0.04828146071420717 1.1723844749989487
Ni 8.03296377360598 8.907998732876017 7.081137001864809 -1.1339667944526985 1.017140751899874 -2.247096083334756
Ni 5.692087843365013 1.1282133697816334 4.797757193209216 -0.5910341389728079 -1.1739896147025395 -1.0628392823782535
Ni 8.936587030009509 8.895292823038908 9.494993911412008 -0.9025019468063553 1.894005200643783 1.476210192906206
Ni 0.9592867948393188 3.365571846726933 12.343157051044416 2.1490414078521636 0.5298894491426874 -1.276723697938672
Ni 4.31505667118156 8.014186844719486 1.5594136063748587 -0.39132112981676476 0.16076156759351024 -0.4717994869784907
Ni 9.488175762309327 1.0282201148505496 5.966729091810032 -1.4567610830426587 0.8664656220080884 -1.6800775905502552
Ni 2.6305086486358027 4.602668849180703 13.811666075123892 -1.033158467484369 -0.04509149302199976 -0.7736871073227708
Ni 4.213954468498422 0.22693957895449296 12.137551559309758 -0.6723375631389904 0.4898560873698854 -1.139117485415703
Ni 4.7896957069235135 1.8317279441130228 10.251723881048589 -1.7942967916078516 0.863111617934191 0.558122990067084
Ni 4.391639851109511 9.113605164396903 6.646295093628182 -0.30280370440064625 0.33518109229008725 -0.43096574079158034
Ni 3.1594485327792396 2.1386151377008544 0.15160631471318042 -0.9169165795697887 -0.16560835416285025 -0.4498803183078961
Ni 8.939960862577202 3.939010608887164 9.54331490002847 1.969950702932162 1.2443583942340892 0.1300379132574083
Ni 6.521176653823201 3.3462404439644104 4.574847417611345 -0.44015023550432586 -0.23252002838373506 -1.9034084962355542
Ni 6.535376823766892 7.3264888726483415 2.2373565973728384 -0.07019677273005975 1.1633424194013384 0.8390522629921421
P 7.884449355591326 4.617141557131254 7.348982656076681 -0.7002849402815359 -0.06797791070187002 0.4030163067665059
P 1.2392491129217418 2.3801120053666494 1.2325221230834267 1.125128113115146 -1.2606728151233966 -1.091030914321121
P 5.747121725026332 9.486484147094329 2.2676581248046332 0.568010424384125 0.6858574520022962 0.5992318442922518
P 4.921491327896587 2.9918282606973974 8.108339328227666 -1.2636139000295914 2.2705039207357345 0.25007577787931123
P 8.250655856051807 9.102807020607823 12.150398437081451 0.3858323387880517 -0.12685360199215573 0.8370074646479714
P 1.9135081418959445 1.848305773220018 6.528018297581645 1.6877099102845319 -0.5677188612856352 0.8791928397667698
P 6.7173570294516205 8.763816729384223 8.683107887904134 -0.0783109171967619 -0.9881127400986401 1.502281178961645
P 3.6842439596459284 7.82036533252976 13.141288363281882 0.1996811274768432 -0.6793235075385204 0.06558215677618384
Ni 8.292231998891575 6.460316097532441 3.4999847723521045 -0.41626700112882503 -1.2892583400705733 0.6254583820889487
Ni 1.3959584668668374 5.4703264865408805 10.063931097527878 2.0501621795857465 1.282103731303663 -1.176226217342542
Ni 5.801262809768622 1.2205379690713856 8.294702696891704 1.5357458863779938 -1.5138079486543219 -1.5092064453265686
Ni 9.225637080941402 3.730688195159971 1.8687714979628207 -0.1120723299179231 -1.3113929671860836 3.319054297295142
Ni 9.47868392138072 7.809341640045346 2.1091349834345654 0.5182978876503461 1.1731442359831088 -2.2189126789220044
Ni 3.5856603840606778 6.386091781043183 3.342974686813231 1.6532180471552493 -0.10552630126928923 0.7041318248314519
Ni 2.8237756869494994 7.059683561793692 7.395748298481574 0.5739483871351148 -0.12362275375968386 0.6628257669938132
Ni 7.5337869193842275 5.3365761102082505 12.351835976883594 -2.412498749244703 1.5897681062307203 -0.36882474848646163
Ni 2.091390879615451 8.615198934884207 9.666309422952393 0.4814336676341451 0.34540379845936 -2.6293090802026655
Ni 8.411669430932848 1.8771854040849825 8.440721982464234 1.3407310540285684 -2.3564985797299998 0.34324355758324754
Ni 5.277632717827823 0.7874807148865828 0.20917761919699787 -0.32064664611933813 0.14600137856520018 2.1490637764496667
Ni 8.992908418806687 8.827553031540482 4.065827242410757 -0.6544542551006665 0.540479823064024 1.351361280048905
Ni 2.106070340536725 7.797255989120405 11.616178833894752 0.9728756114339114 -2.6918305957756545 0.7076277537998523
Ni 2.4693635036824855 4.112758287192227 2.5785835798251613 -1.2683750688636606 -0.9803490369928213 -0.33143345232219695
Ni 6.947313322206195 3.2291806710864432 9.429783084660006 -3.8662002195254317 0.45291087760410387 0.4924822121388228
Ni 1.7310110537844114 3.2489349776527154 9.977922801493687 1.6472677431090856 -1.1622800395750952 -0.23309389860933405
Ni 8.966481630003472 6.358292904343357 10.99297933061285 1.1573558628006002 0.7539955424311143 -0.09841745813864987
Ni 4.856420529292939 2.363740929230376 2.3376703194085415 0.7584882880951453 -2.5207360216872523 2.4205671280751346
Ni 0.8368505049363443 0.6184366666654489 2.5663701179728644 0.9778316698876063 1.1285325108110047 -0.6669022510560321
Ni 2.217190664437583 6.754328219761666 1.1566870129949978 -0.1569707330925103 0.3425874120564874 0.14546427511480756
Ni 2.3345135774601062 9.451524099317673 0.5396111567913928 0.1458936493427423 -0.9876419711098088 0.43643679120848067
Ni 3.5244615047269168 5.829174460816115 11.698789802705486 -0.6103724342901037 -0.47677508581621114 -0.23301342308038578
Ni 6.07882867296313 8.306939653399764 12.567400383303445 0.4768234225556433 -0.2758693419036475 1.3787540702395609
Ni 8.090882798995102 -0.04185901849516346 0.7822573830171565 -0.31110991027349644 -1.8143467682801913 -0.24750750293150275
P 0.7319092755013871 4.476963042981627 3.8652420887197256 0.8411207154853967 1.2284453225482586 -0.23036904347900325
P 8.08593952342238 7.3854322650287685 5.366556230749196 0.06019106766759956 -0.7092431779160882 1.6802457406970033
P 4.059528795093575 5.169312956894019 1.5326607117496414 0.6768791597630859 2.206677313198077 1.3707008609177813
P 7.132413618176366 6.711408182612206 0.37123623636641434 0.5847663036862252 0.24175337405654496 -0.8416472774128279
P 0.6897288501153738 5.646498813320776 12.828891203024305 0.16736673161485371 0.25924073220803096 0.526403547476616
P 2.6505824825204636 8.633844293698425 2.9325756786471167 -0.9115879682680236 -0.04715660308114459 0.2646266791102927
P 1.8452702636953244 4.890299822904457 7.760139131944625 0.8407160238478102 0.07270925473926834 0.5798863498861045
P 7.054270393105694 3.107196418360365 1.3868199855609176 -0.3143605560003102 0.002807644652124197 -0.27600381059898277
