# total energy = -381176.31211350963 ev
CRYSTAL
PRIMVEC
9.20194690479692 0.00000000000000 0.00000000000000
0.00000000000000 9.20194690479692 0.00000000000000
0.00000000000000 0.00000000000000 13.46797944221984
PRIMCOORD
 96 1
Ni 6.769494845017796 8.509730181104741 6.503795077865492 -2.1415399572687956 1.9815960004805742 -2.884972636582399
Ni 1.302535543386636 0.8241530245057076 2.5443575632006064 -0.89194602566738 -0.288363103495284 -0.1917546735409149
Ni 1.0159961277348064 2.331276367183544 4.768284021170809 -0.1418523893938331 -1.5850164504783477 -0.3665675770211687
Ni 7.173147435241733 6.986863227962898 10.684363651446448 -0.46502488725881846 -1.3596034654530391 -0.13108512357500005
Ni 0.18136300622900658 4.466358030583644 10.971029133766905 0.20221572097323887 0.20634491265026397 1.0656196733368681
Ni 1.4509537403437751 4.824801457086926 8.771358086879804 0.6338232091138762 0.916009751484803 0.383935635985971
Ni 3.3270282123648314 6.847058053037619 13.220181808188114 -0.5595409534605331 0.3357912150702604 -0.9763687121888347
Ni 5.118242332700182 8.399389639241448 11.123850462179435 0.0005535585106248532 -0.9931366756757929 -0.9415896568364366
Ni 7.991909039225574 8.096452354721267 12.472183173675438 1.1021547921484245 -0.3356140660624478 0.4289438252655451
Ni 8.770623771539908 6.044758731548436 2.7139862471058644 -0.656916857708546 -1.564681081355105 -1.2708129888811919
Ni 2.1273060185102257 1.10704018754595 6.733127831799723 -0.7264173757025295 -0.2024345218522643 1.151304257289882
Ni 2.054012513719872 5.931998077725336 1.4578147117400948 1.286656640781668 -0.9009685408809645 1.9978890812136432
Ni 7.648105909787131 3.155430311883913 12.385355445803395 -0.6764058196710931 0.03176623666800335 0.9330286546403028
Ni 7.24426928063089 7.345315856412795 4.1348450210445105 0.9157472418520357 0.12806484869143753 0.004586848039734036
Ni 9.150848205681454 1.199041249805078 11.69155259607581 -0.27873946436259095 0.6604007024920885 1.406332751188778
Ni 3.95432491312546 8.189382813588535 6.623538168780232 0.3147518779014579 0.36887514210842276 -0.4310657567045544
Ni 5.085501806643173 6.707630157923566 4.462601795975305 -0.6702940503464004 0.1594148237576287 2.49517000029269
Ni 7.268571621641728 2.5591717770564752 10.246734713735075 0.0918770859169708 -0.46164697192552107 -0.8222279923459517
Ni 6.935875241767875 1.4247557983301984 8.30484055796456 -0.551540965974192 0.09845679601701753 -0.5480000427004691
Ni 3.7712613871619576 2.797042097060322 12.26705245953394 -0.29467233354276345 -0.17058163900772558 0.3754026588142954
Ni 8.213041018336307 5.451398809904797 13.455184801626654 0.13522537099561874 0.06521346058285543 -0.07344896111877028
Ni -0.07143011060076836 6.620110443666057 9.3811204783651 0.4327413446347644 -1.3573365237957333 -0.7033160137983758
Ni 7.275261436831006 0.23988278572859903 10.224054675912503 0.2778154098864248 -1.172854986877464 1.3236825831867138
Ni 6.3524994322017685 5.238180504883166 3.017837284924937 1.0775349367172151 -0.7100134804232094 -0.2947597510502472
P 2.8109830461824044 7.690766134295364 10.950045934900185 0.2182010406579016 0.36657400477907187 0.3258682995295936
Ni 7.3739707181726395 7.873599611593486 8.393311753502084 1.6887131547380656 -0.47502802121811744 1.6016160067082417
P 6.11128880557659 5.2720436684272345 0.728212608900597 -0.21502187159897163 -0.0025667322859117083 0.485204447530487
Ni 4.9845564522740355 0.920177177825017 9.475679681783262 0.14818810180387382 0.1779519633298677 -0.42413251991983086
P 7.870590575050304 2.439141585407339 4.977954055577604 1.1292979282221196 -0.24023179520569593 -0.9187515758959984
P 7.101924368439807 4.5870691662823075 10.91711676893756 -0.608951642683177 1.7925271013019388 -0.32009231627776485
P 4.444264156760463 5.967048292382769 6.849087082266279 1.010620691393169 0.6185786242499798 0.8267467061519117
Ni 3.7957201612652542 4.9644686028129765 8.745176708370135 0.6858093723731803 -0.4487654879771626 -1.7564038732168203
Ni 0.4702001479506604 8.407883035967311 10.552808021661727 0.5929822638381143 0.8512120382831275 -0.3206222206393059
Ni 7.619800721998666 1.1526174291312132 2.43730027588963 1.4014823650750121 -0.2823703762469589 -1.168244741798962
Ni 5.135459174817289 7.678932430948171 8.728206478422317 -0.29440365326240914 0.12887346063566193 -0.7082450756688771
Ni 6.137293506711247 2.904336794593972 3.560462273905473 0.03795025399152819 -0.6705503893315806 0.2452783564906679
Ni 5.57344422786267 1.5317008218924695 11.597222521128366 0.41087899734403427 -0.5806293986997162 1.468650121170761
Ni 2.4932214256650793 6.917821022508782 8.090080006690217 -0.6549623050853366 -0.15239365524478915 -0.093896944560477
Ni 2.6742881292130756 4.554733525876369 10.85501559181532 0.27340416819260654 0.02825333841873844 -0.77900414866031
Ni 5.642734885875395 3.333727229500723 7.844868373676735 -2.5059529498408066 -1.0292632461950209 0.5720128606752987
Ni 2.1284378579439 2.8699491200928358 1.9247086002719007 -0.16706796942751226 2.1853201876785393 0.6977004673838113
Ni 4.9096526068260165 6.850011877901109 2.2831593883324754 -0.45567481350248623 -0.1062158711371461 -2.208270882937442
Ni 8.797438243976705 0.24178114731532216 4.341510619881431 -1.300273203123838 1.984516773671795 1.2196529210676093
Ni 2.744627809139938 6.850895264776172 3.591721286557429 -0.015550289029773219 -0.09246484009964076 0.4571465129520063
Ni 8.91641021176509 7.667420795732511 5.938571028192598 0.9681242127918552 -0.09914610877455828 0.34946614145419164
Ni 7.372047511330055 7.9394211357322675 1.7667967549918229 1.29068375966319 -0.36053114101910166 -0.1388226014285738
Ni 3.2889229514311396 2.619941432503493 9.057499058243193 -0.7800791268920436 -0.5384455662428146 -0.5160872531522724
Ni 4.926482967185282 6.031176658344347 10.302613534556096 0.03170015931675831 0.44743622764277785 1.280052505201589
Ni 0.6413342703221707 7.884853592303919 3.297445794386171 0.06214844850428652 -1.0118453078288894 -0.8002499454129638
Ni 5.36781752879861 9.050731026507687 1.6606964701288305 -0.17275756361312183 0.7875931758809016 -0.23791934502243542
Ni 2.95710995843235 -0.1480261940313301 8.926899510711797 -0.7995171810119972 0.06070708807206965 0.07104626521454861
Ni 0.5176352625575397 7.298441140354783 0.8750278267573621 -1.6506207187417186 0.5526892206460223 -0.7205015244387268
Ni 2.728064305232514 8.318329691507834 1.5605213186913882 0.5732269355880579 0.5072308312029071 0.6580486573201442
Ni 1.0222902592196277 4.030434213580075 6.320334027808212 0.06388445735878676 1.2182239019305665 -0.9775460203263873
Ni 8.546344726686764 3.3885616293809133 3.0148475724696473 -0.40812380319640035 -0.5852440146535921 -0.8323794789576567
Ni 6.6477254854583805 5.107908546651272 8.772718134589535 0.4641864505179231 1.3519148385595299 0.6014463354450674
P 4.172033768095325 8.652682421772429 3.4394796807816594 -0.6521279209603349 -0.10227205599804969 0.997823539628501
Ni 4.163420746063464 9.045062627392703 13.028127980381528 -0.4321335358474364 1.3703475913434204 0.43694972628915707
P 5.082189105861688 1.8221142570693132 0.5446365345106262 -0.007698911306154483 -0.318275060563368 -1.1329967172299455
Ni 6.203722359326634 0.4510969067774307 4.005363510026865 -0.7899359650814654 -1.1731704612353537 0.23953656891088426
P 1.3590723033906447 2.9124989212416863 7.9632928256415125 0.10674577549868713 -2.243815098590639 1.2979471260938227
P 3.0253884023174 2.837273007662133 4.0567434991476965 0.08842049482693805 1.1695284936073924 0.22181524037172118
P 4.386908423507697 1.1661534926022252 7.34418309678446 -0.09043109749906361 0.09264250332808562 0.5344888955879118
Ni 8.657421424279276 3.7489466666200104 8.916273102760522 -0.48396234759326967 -0.6559532082436962 -1.640726599556458
Ni 4.142173451328884 1.6604912667193106 2.512236328150803 -0.5745351128765201 0.2758058356555637 0.8914606013905293
Ni 8.722460782955764 5.649341883545135 7.2390250912548675 0.9649951802445703 0.2256605822597404 0.6736524252956722
Ni 5.728432614703087 7.316136483695883 13.449756573318327 0.8659238905720055 -0.6703799251919874 -0.815842400534582
Ni 5.04324646778601 3.4743329737815265 10.432889173566636 0.3357235950571186 1.3590285667861757 -0.5756003209162409
Ni 8.498853480205533 0.8061484957583371 6.970662280752113 2.1726441348727676 0.06832295274611459 -1.3591226691618787
Ni 6.8135537654115454 3.0983046272965282 1.2732411463370323 -0.5602423504029319 0.7911215007491343 -0.9426327533889701
Ni 2.0810294289822044 8.744453435366177 4.861037802663063 0.11726081609739805 0.2765154601280786 0.2771206978122453
Ni 1.019492867448596 6.581296632842993 11.87968639462431 0.31442534779997466 -0.6149137738038829 0.05993344313083872
Ni 8.428661031424513 4.969152393640131 4.740661617821194 -1.5660759048201027 0.8310864711778461 1.7745815725671115
Ni 1.2281009972159929 4.517649681016969 3.775492442215643 2.451684161194913 0.6526552542187147 -0.6561820364250505
Ni 3.234475033308789 5.199412703793178 5.314734259359298 -1.2462831220606279 0.44580100603219996 -0.7683821501700896
Ni 0.007579643426969777 2.563413874446099 0.49946509877109496 0.3967793247178586 -1.3944375424130888 0.14398563368675202
Ni 7.4445128409250385 3.7358983063196063 6.662218551377377 1.492241792447772 0.033425883758613405 -0.2648375095695181
Ni 9.522818493709131 1.3260649208817938 9.39962559300834 0.27913824246290636 0.3515795882527687 -1.8162159602784462
Ni 6.056537223215937 1.8352546368358702 5.90636881601258 0.15231420815710542 0.035849405598441485 1.183345859106459
Ni 2.4921539998577122 1.0064813149346525 11.052995473242119 0.3815596795546267 0.0726154094738814 -0.1475890347672942
Ni 3.48400421967414 3.1812417721396495 6.417559035160808 -0.2441532417472892 -0.9840519397657053 0.3534482660303913
Ni 6.690229276874155 6.277807231525899 6.532764646199577 -1.3959789187582796 -0.8494660021262983 -0.8293442916757587
Ni 2.4191457554124307 1.340125495309874 0.24565148606169038 0.2508154842588132 1.4970101603706927 0.34866832814324467
Ni 4.346475070080351 3.869041271895454 0.8781215212094043 0.32129636388819505 -0.6907692874816168 -0.37066977211500035
Ni 4.626343074436134 5.192732090550517 12.38666212222276 0.9297353286010116 -0.7031337225842407 0.24217966296068613
Ni 6.934044054391444 0.65218704616018 13.466416697665213 0.31003236093860154 1.193411470872577 0.07151369176927039
Ni 1.61423308108452 8.754078671525713 12.806566270363863 -0.4215436761467321 -1.4129425431958118 -0.9605669692698877
Ni 3.815734395153392 4.8015849457766855 2.7947940615022198 -0.10458142085751668 -0.6578254855657446 2.1601426599716476
P 9.124751485080644 0.1268534350643339 0.687637545495376 -0.6750071395513536 1.2493154811290483 0.43356049810195013
Ni 2.2333492513042037 4.568370810760149 13.100168180042887 -0.6148777783596249 -0.5378886652980801 0.5905332880769893
P 0.8044580981651184 8.707792880051077 7.978605785003927 0.1950269165342835 -0.5446871762771522 0.4859737215963437
Ni 5.425642561328751 4.228110430768572 5.365050503451408 0.2557455745705789 0.8700140014809791 0.1710909745439763
P 1.2194971771307475 6.158853667630744 5.377548587344221 -0.4849324248160229 0.24716117533567752 -0.5084629038377952
P 0.5847864679822234 4.385997430792789 1.3492759110240646 -0.5670688864064621 1.0977029270246579 0.6181088837024129
P 1.505806544117196 2.825374890688633 11.91695243802669 -0.33344739742843216 -0.5138442227543667 -0.06225412084421537
Ni 4.019180232869642 1.0664411990795293 5.115704435823701 -0.5762235563225366 -0.3723690141942942 -1.2251267996979869
