# total energy = -340891.36101071094 ev
CRYSTAL
PRIMVEC
9.07543421317473 0.00000000000000 0.00000000000000
0.00000000000000 9.07543421317473 0.00000000000000
0.00000000000000 0.00000000000000 13.28281532992727
PRIMCOORD
 96 1
Ni 6.628470183216687 1.910623915470901 11.593533091023891 -0.24381745567442525 -0.3664313085536205 0.051896174648659005
Ni 4.697435616447406 0.8608348736330068 6.239814717741753 0.1567529606547494 -1.5585024633482192 -0.22023658303069168
Ni 2.7721004222950127 1.5346377560042106 4.8952619290317045 -0.46881752153203127 -0.2701656066506508 -0.1591651696406678
Ni 3.213112067112034 3.9386113447660134 4.828263444307312 0.06220064189846062 0.8012184799738201 -0.157367968530929
Ni 5.119098435756136 4.342440936061708 2.833994882879696 0.5848429225604315 -0.36262427610270453 -0.788781282651732
Ni 7.565644885896641 5.897707153782779 2.716773853370907 -0.5704696845578949 1.355448562744401 -1.6773108264383951
Ni 5.194134124922434 4.67226036224478 11.380569861898655 -0.4809495289088749 0.00236052981237658 -0.35035394337578374
Ni 5.6839171526107295 7.834468319471258 12.54217823486704 -0.9602260409907011 0.23748508569849422 -0.27119893301117165
Ni 1.7809178112661668 6.371844133076939 0.9842907263707806 0.14897357381964665 0.9475618152594713 -1.3878424056940744
Ni 2.8011962640302763 1.4247342490129333 0.4391257696103498 -1.0612012325541982 0.20267080623278644 -0.34675954115630603
Ni 0.5745321539753833 0.19869846180162856 4.7577318930864925 -0.16874381446803843 -0.7446765790230336 0.28732643470065355
Ni 8.415268875781809 2.1768245485896576 1.3419499542092148 0.8312481935666909 0.8295821187181778 -0.26097828372442794
Ni 6.81724828799997 0.9267470288952322 4.671778456693892 -0.8432279916363865 -1.1072188369348932 -0.1281754061273728
Ni 0.7835139901594904 7.668850722519663 3.0201138854707046 0.7693823092998299 -1.1085478401589617 -0.9838218260327701
Ni 7.718021424491483 3.8641383325141208 3.762277475225211 0.14403834130155838 -1.2998278880563032 0.7941674866643098
Ni 7.5300691842116025 3.813588164558595 12.744781855963328 0.27831111857592067 0.6655058849291378 -0.10626086544246861
Ni 7.9453882750821085 9.036872583820914 7.013153331184594 0.21596546645916354 -0.44261103833999255 0.5774044640045153
Ni 6.807274385920414 0.6003953260830415 0.6818219359449025 -1.1515359136847134 -0.033828775623986895 -2.133013407855023
Ni 1.885902432973441 6.4766926232726645 8.883268138991891 0.3635652998597351 0.6838980142830802 0.8152042527299509
Ni 0.17339978169519715 4.651677277698437 1.4137030588603408 0.1904416111564462 -0.3141607812846783 -0.017911590173098187
Ni 6.293332552649066 2.392729125907782 7.295227806093479 0.3413018604758445 -0.026131406979729193 -0.22705463439378962
Ni 3.2232039498349327 4.431915640886398 0.5662344845747124 0.003185596816833223 0.05518564403320818 -1.721308315065268
Ni 6.207606002109049 5.871833091154196 4.6820327896872405 -0.7306959484732255 -1.5316645172197685 -0.03753373527939988
Ni 5.067377536801281 2.9597259469471737 9.660631707459558 1.1049542092704325 -0.767151363086782 -0.4464903187897407
P 0.24543059462988484 5.675195660437433 12.41483628124622 -0.1073651542502409 -0.2806459373566844 1.1880124113441926
P 3.836258598948703 6.357895190860127 12.635689692780888 0.2437845455539608 -0.4112466650960982 0.1031814551861965
P 2.436772207611223 8.407082834220608 1.4678843080006068 -0.14690486421607601 0.26257133924316073 0.6536232745589389
P 6.5958076958788165 8.020532869457647 5.741935495289882 -1.213169884446427 -0.6479753322445421 -0.6097916220859692
P 4.689385706397755 1.1866311598780739 12.815738137500182 1.6677002999318244 -0.48122926493282275 -0.6215374497679877
P 4.192306029690387 6.155603764696991 8.004676270992316 -0.4966162889118544 0.8159048783414014 -1.075287021223303
P 4.721503667689427 1.1497485956821571 4.026141184062361 -0.09346551345001324 -0.8420496550575691 -1.7464375060327277
P 0.5148992915692492 5.4804368445800575 3.7120821567431252 0.3326866080030077 -0.3588064450185111 -1.4876917111832442
Ni 1.4685958220343076 1.0209863366241687 2.6154257581088354 -0.12427581396265049 0.4155977429759423 -0.6242538202578862
Ni 2.1590094714448287 6.368377317249469 4.92946542508032 0.2371426147574109 0.4638504073347431 -1.1764254778375416
Ni 6.102131306960195 5.642152004867223 9.098117243323799 -0.8115828539272797 -0.15406050142425082 0.8799184050788845
Ni 8.74795613914153 2.4364182656811932 10.124307433862814 0.2756806229316091 -0.39330062214063877 1.2672867208954883
Ni 2.447218032264151 5.099023575519579 6.878877745908836 0.05979100401570348 0.40702517081558287 0.9897219935672891
Ni 0.6349690998430721 0.06440835583130423 9.177003639180137 -1.7164795262180566 -0.2527417547472486 -0.5616220043592779
Ni 1.521033680283325 1.0828535709065419 11.44674520474988 0.020397589819745515 0.814080937758785 -0.7971720778185883
Ni 4.185435926074169 6.914682148533277 1.7880792363171014 -0.24111676891381054 -0.9398361644804395 -0.9806740244324077
Ni 5.7621927717519155 7.783128588748744 7.931036383591108 -0.376085543813933 1.02195925633444 0.07669446463926147
Ni 5.287901510077998 2.994040163291849 5.006107466082907 0.6368278002681549 -0.6874975587088804 -0.8912806241692393
Ni 0.8424562120303615 7.584167846901529 6.777397149308855 -0.8450452473507833 -0.840561500547817 0.5512185496377668
Ni 5.033036094154296 4.69242597682237 6.500277861420388 -0.326008938872516 1.2089121376113372 1.3932224390590653
Ni 8.231700070173835 7.0335612598527435 9.297439187448326 -0.6315313277559059 1.3445321729422133 -1.121298969177043
Ni 4.741614829662397 0.6783496748569701 10.596777255912192 -0.7636469494779494 -1.1065179542131267 0.4690576625672954
Ni 8.291352898534996 6.937289054884663 4.70825353389857 0.6655493365725634 1.669870825220582 1.1768525380726311
Ni 7.053872081375987 6.135928223560981 6.8821185834271335 1.9227236516243982 -0.7866601225436709 0.2944537897740542
Ni 2.642784561756722 4.876657289119887 2.7178229735532518 -1.8287086934288184 0.0093637006030871 0.6918355239626021
Ni 2.3226849254983124 5.327987702512389 11.440740897547117 -0.14168321080582053 0.02430463818363556 -0.1068499051767192
Ni 0.9519041322296516 3.0754286563304762 4.052945478686534 0.7704616584069376 0.7206534766355588 -0.5354520308321294
Ni 3.625998941642848 2.404336606125936 2.4709757036598377 -0.2477317031271669 0.7135060669575002 0.9157747526558615
Ni 0.9931247539269581 3.430486864754897 8.266267491129993 0.8771768377780054 -0.1761215949893483 -0.33799156515568884
Ni 3.6480431710798267 2.941747511988485 7.23427265293849 -0.1205122331551602 -0.905074592629538 0.4565965539858071
Ni 4.37178181451776 7.172624136618007 5.820251046341123 -0.021109528285105584 0.22901998565027656 0.21707849701768425
Ni 0.6973627093034379 7.408948440668615 11.178591538212086 0.7610951295903731 0.17954399040733596 -0.10349178733776368
P 0.21037763794919873 5.646907532337366 7.839331844607231 -0.18927561587280303 0.5267822709722735 0.2801021490380724
P 8.290853749659314 1.791862784794778 8.123318513481685 0.7061144024791194 -0.11570966956019427 -0.37808689051467786
P 1.7615417594555658 3.3995668607648653 10.400975672676346 0.9792316355589264 -0.7800009653559405 -0.6275923977128159
P 4.184773419384626 5.949818296404076 3.7403739150168334 -0.23267429457341218 1.735751229963475 2.221165479511923
P 6.978119432915525 3.7654429866404513 10.38706847745641 -0.3429360536451578 1.156653437416937 0.42036636800917926
P 6.254181129927318 7.780995861734462 10.193032973697068 -0.08439234750415144 -0.2450132757547393 0.1046770658951165
P 2.4658498984782793 8.52313948553394 5.826612925647554 0.837892438356086 0.08063339468235145 -0.5892261392297917
P 7.049706457122561 4.031453035643038 1.6240761590924877 -1.2040062156692877 -0.07273368021930054 -0.7863307642287103
Ni 5.126649196930103 3.1386390548601413 0.5363799365484113 0.912098589355855 -1.0871187237509083 -0.7331986602904211
Ni 1.3458324249186178 1.020714073601069 6.95840214478264 -0.033699706245290346 0.6424963114078419 0.8841576399712127
Ni 6.6365926967391635 0.7342461810427648 9.172089291613187 1.1045564596113815 -0.2360511814654451 0.40793868376878784
Ni 2.6441912540427372 1.3882419284834597 9.230879046191122 0.46890108238477307 2.055828890953221 -0.31212806712536567
Ni 6.056127931490436 2.0982040629525454 2.5316912653544987 1.450123523121483 -0.3141039599048139 0.31082246094006466
Ni 4.06201909770304 6.959659999949361 10.10006694937283 0.47018869084794507 0.47093199677187286 0.8614599412633809
Ni 8.468904691332465 7.169320678604396 0.7500927965305824 -0.7134371613927778 -0.4953309944415276 -0.5715588038570156
Ni 7.7311354267707895 4.098438814759687 8.33224317443094 -0.06080170466840497 -0.4415964810325491 -0.863575702054803
Ni 3.1664824866891457 8.553133795245433 12.231599636526429 0.32060370869654464 -1.11717029172065 0.1569609629004974
Ni 0.09487458811616942 5.077968568399863 10.133446396004862 0.4778199821409577 -1.205220033471731 0.5249889265172765
Ni 8.455291540177477 2.0080396251360018 5.784015560596773 0.6299156465293538 2.3610566314143275 0.9288696381666067
Ni 3.5905412206011538 2.802975049114528 11.593068428797801 -0.5851051750828826 0.2079323117420419 0.22518081440984442
Ni 0.8804487018171149 3.3613411323216567 12.390130226986736 -0.02388760525087499 0.12095394867826911 1.0192991930037736
Ni 3.2567739805831355 8.428573462177285 7.9184569243804885 0.28468359776116775 -0.3127381899055388 -0.03429928750250222
Ni 5.706106588993362 7.894302656514486 3.5777657320139014 0.011836073402979616 0.683559657107055 -0.08659115492768313
Ni 3.21375642293337 8.497710119176421 3.6624703886738836 -0.1940074741308336 -0.6119233237169912 0.5397617139510769
Ni 3.5540398246375764 4.51593600981499 9.162871373194438 -1.3209384447826735 0.006875129853278482 0.9166723247694664
Ni 7.304490194139333 6.113130733093427 11.444938285819905 0.001890017933861261 -0.20965392241883893 0.5612839042935688
Ni 0.9099211740676659 8.821285646696404 -0.001922176943084435 -0.5002078629178547 -0.3178963370677106 0.731352865330934
Ni 4.514601921001801 0.17922348775930141 1.7530525983953147 0.5675196007906355 0.6425410486028482 -0.620094546673874
Ni 5.687184308887927 5.471216203531078 0.18421951423318234 0.7317076775671915 1.0902544411664128 1.6025989394468012
Ni 7.7543866889435105 8.720094556444321 11.524104205046628 0.35077174763949265 -0.33381609362176057 -0.3382347915147465
Ni 0.209614393941109 4.83527330960872 5.786419643090744 -0.8063185202045469 -0.6396670694891629 0.5020343746036321
Ni 7.860115496247258 8.854882903746917 2.5245579741492845 0.26640973915264443 -0.5287422229121217 0.9527875824347849
P 8.53396647841921 1.6289042900354573 3.4604521330772586 -0.6635785859994379 -0.31946805243020465 0.39242413307295637
P 1.7205117218744292 3.0416317397296906 1.5081574543775262 -0.1929219543761387 -0.020988172215892886 0.057032467433959844
P 4.688968236429002 1.2298574525122155 8.353270047704937 -0.5860747380850035 -0.4379239172769684 0.05899139093254356
P 8.678892085615221 1.3400785996971092 12.465058826030617 -0.6717986599163849 1.2601421394309074 0.44545724953953597
P 6.310884442204899 7.544889368102334 1.3729117051961215 0.6592393351941357 0.14410544709406795 0.31588599150590113
P 1.735377282935677 3.0767627451436654 6.180586619696627 -0.37503781927570895 -0.22365640734551803 -0.4905343443838326
P 7.018350832295569 3.9505183143095772 5.884818222269234 0.49689885314927973 0.9731874862473754 0.5196430888243309
P 2.4262900812218815 8.518583617614071 10.078933893519824 0.3192405098004309 -0.9769071011908078 0.8378317603214797
