# total energy = -340868.11774023116 ev
CRYSTAL
PRIMVEC
9.28350103066117 0.00000000000000 0.00000000000000
0.00000000000000 9.28350103066117 0.00000000000000
0.00000000000000 0.00000000000000 13.58734214903799
PRIMCOORD
 96 1
Ni 4.787194986768538 5.918482389467594 12.433762980487554 -0.4982895628492192 0.9483429163998701 -1.087798266316436
Ni 3.431711040698547 0.36142617996569765 5.4044057497935345 -0.08306077317692147 2.0099856073668607 -0.5084045397960341
Ni 9.34421485567625 0.8142864872736181 6.429992141181321 -0.7475191906781513 -0.07614399145243014 0.05181775600223979
Ni 2.4622721902615567 9.482817522033521 10.435499653597445 -0.3184722641758386 -1.0877285894207653 0.12499186619306862
Ni 2.200755973832602 1.125633750735789 1.9623519608974895 -0.03331378366078134 -0.49280051471018993 -1.1203600023025413
Ni 4.1528348127883 7.73708305448593 0.49677776435656995 0.13433654063276218 -0.01262488785286213 0.2270111827503639
Ni 1.4397317154733555 3.662814508635444 10.396041990314234 1.336435769087324 -0.0071700353858779745 1.6279790700828027
Ni 0.5476986943790925 1.6887709068799275 9.727327293418945 -0.019836832220269062 -0.47293385769325 -0.995956147402459
Ni 1.9145642123817037 3.6889568467775793 13.413288354501047 -0.9999308157794908 -1.1639620552632082 1.0769502678583387
Ni 3.3535346807926816 1.46970813942966 -0.2666954815033498 -0.14285460540610237 -0.6445069140799674 2.8003684301777576
Ni 2.124315628568988 0.36778259293654986 7.848102583383003 0.501662335976194 0.5548021532239671 -0.158245743150192
Ni 5.759140382410918 5.980932499084832 9.78866059789467 1.0610503087986307 0.05527588975416931 0.09078848083848236
Ni 8.561216551016424 2.828561996275786 11.551550046497962 0.06898269781730056 0.04330766164869961 0.8048128821932978
Ni 6.376651002510484 7.974879926471292 11.393217155973973 0.06284444613004661 -0.686636753370482 -0.24409050683015382
Ni 2.1412301669549856 8.679674020722972 12.909415210513073 -0.8095190294197154 0.045868737507656486 0.23710507665125616
Ni 0.22399694810458046 5.127602392661933 9.368295328299432 0.6351537549998416 1.878222998108862 -1.3218954093793043
Ni 8.05654688266318 5.344037929396921 7.3622468576713995 0.09684522855552355 -0.25807859357912977 -0.6558447076902899
Ni 5.105229155828643 0.7821757864924285 10.923815507010634 0.2017945742754202 -0.8416426494271375 -0.08274838414282525
Ni 6.829035994579456 2.88301901173806 0.7565449692422084 0.4579335276296758 0.3901206817507604 0.4678415307720072
Ni 3.954158613008532 8.170446153496226 6.795138219901832 1.7196800354332256 -1.586297116962984 1.4589501202741775
Ni 8.00080874409593 6.624780410842508 2.6802255793709207 -0.1806606205102824 0.5017317557615488 0.0018488802832806865
Ni 2.8962851343251015 6.713744198632308 11.101034751482194 -1.2140517728307478 -0.9906848717011907 -0.6971952456126186
Ni 7.558682020367533 1.1453240558492364 3.8067524028798894 -1.4523413567084082 0.5976027933292613 0.04657784775953914
Ni 2.4130603527290795 6.033040788854648 13.205918156258882 -0.2193086718997836 0.14692363326915342 0.014740648644284291
P 8.98187982098608 3.7621293997734266 13.63109320759824 -0.6335285606915928 0.3741569593326524 -0.549591298446989
P 8.106519967258036 6.36904781538747 10.58709365091924 -1.957579582961319 -0.5051235550519172 0.5123779226214853
P 5.492731761081075 1.2032623840967729 5.057072852332657 0.9927502388706516 0.07014817888031144 0.6612334828060289
P 5.991654942463442 7.167790937337446 7.244050254336226 -0.18531945943853242 0.15053449054886334 0.08812044708801597
P 9.403350755521917 1.627072760824307 2.7790465882684336 0.30076687647627554 -0.21455290238235306 -1.0255132922342853
P 2.1347224329217345 7.273789949023134 1.3227261852857812 -0.6780364132959806 1.3052048360975004 1.0372547490409298
P 4.1352797128498135 0.417030636121994 9.001111521161949 -0.4504804137857403 1.3431851719960157 -1.3752954222669993
P -0.06798586112084357 6.865780090590312 5.362584507216651 -0.09029405770056709 -1.6845770210825053 0.692157426078395
Ni 3.816567848234179 8.758899416214796 2.760295773431969 -0.4100063649310939 -1.2891650090258184 1.124089901658619
Ni 7.714208508611562 4.645668017671648 5.250176166605776 0.8746152476984163 0.15705532238651662 -0.3034675632368903
Ni 0.4427617151804296 5.8843469571704965 11.87037702652303 -0.023981707626578055 -3.587054263753042 1.4070829990912412
Ni 1.6125812161368522 8.18123358138016 5.904677823836432 0.02737402113757866 -1.0492844265119543 0.3005969265573145
Ni 4.534024637523454 3.995683711911149 13.66519707599275 -0.7207288099581846 -2.260286613883101 -2.914952213663625
Ni 0.8022959176910964 5.4639529087229 1.4967268400436047 -1.1697190123516434 -0.5507302971474386 0.7548892578899774
Ni 3.2391341009185597 5.206261494607354 1.64871538614773 -0.695500374408699 0.0976785230900963 1.0838068857688559
Ni 5.187852312598884 6.6445449839620405 2.9083295482120355 -0.13140805413205756 2.5972566797528107 0.7624503580666869
Ni 7.476095997600335 4.223658640091689 9.957224834607027 -0.8369663269973908 0.8431138346560254 0.5509364996209737
Ni 6.465048496753881 7.0532882389549565 13.725796983908381 0.6241142093562283 0.6291155192255617 0.5527342149513449
Ni 0.27602632811793065 8.77140429173946 2.221733900501559 0.28698987729684117 0.26177481148379433 -1.8264054992169385
Ni 1.1644573509170415 5.782952561862118 7.015375350198329 -0.5184138444029202 0.280277241163356 -0.38801212004818986
Ni 0.016122655771109887 2.801231370036281 4.708394775611555 -0.3629173818630911 -0.8676928095469701 1.1851510306359974
Ni 2.911175869545266 2.4629777363193703 8.874762147458728 -0.1513731844000748 -1.163689518328112 -1.0911183318286048
Ni 5.444281170610974 1.4256207943170895 7.542469314639044 -1.9446780444083023 1.4039231133060208 -2.2170005495009564
Ni 6.846962434548371 4.783240215444479 12.390677325107063 0.657638309255603 -0.32207103727069053 0.04547253051050233
Ni 7.789859756310515 4.016682990631855 2.878627915878248 0.6382359934695913 0.2392432060401815 -0.6219115452779548
Ni 6.342097812679154 9.065449894833913 8.7394049929674 -0.3129081398244998 -1.4472114916810108 0.6659663695053241
Ni 5.10995445771584 5.49942516512954 6.033799250866798 1.010778557127272 0.897440730233364 -0.5879776115346713
Ni 4.19202046949922 7.616267575586163 9.458203248116595 0.2249491580150126 0.5775415038030117 -0.756518308852968
Ni 7.72689905415144 7.133182046501552 8.602390733590285 -0.42380084761202497 1.2657985663857363 1.1515940206161586
Ni 3.487458462766558 6.057864869888764 7.536857438429201 -0.01821343768423315 -0.520475097807323 0.9516406133145353
Ni 4.962421063626775 0.9826492720194681 1.364943833345146 1.4257924025752864 -0.31914949274852134 -0.17502141994663403
Ni 1.7722110117171106 3.1260889121555007 3.1249256895101847 1.182828296040092 0.9699787495020907 -0.5040809727200157
P 3.7973324346580055 3.9436032726436148 7.330846344698403 -1.3489698969985928 -0.6316156599395961 0.8608444191665691
P 7.8321275352739885 3.3326189535788218 8.041899375162947 1.0489311569375936 -0.9647480972307706 0.006769457513349632
P 6.314757902938888 8.695019647480411 2.7747659660676742 0.015026041095187025 -0.5289851921608631 -0.46571471423699157
P 3.8262041220237863 2.822351334266877 1.7526451055138565 -0.7142257187323441 0.2341557642149451 -0.03343642528157467
P 0.5265805868486493 4.6888919972134735 3.9183178016216926 -0.24934944123624803 2.057062763360322 -0.2855356613488179
P 5.6922991769338696 3.152676858334149 11.3007414198464 0.18094061364454644 0.10568185301054703 0.18013123036937365
P 4.107085721039564 8.330883613642664 11.904712982436559 0.5021282198690191 -0.11198928328581356 0.2745028005734241
P 1.836870594515395 2.0497876844620784 6.334323809142143 1.3800041405965782 -1.8877610195062842 -1.582191579435043
Ni 3.824291720867082 4.903062359762851 4.12382572961126 0.9085106148942806 1.2122602281479637 -2.844817147409436
Ni 7.371006768989196 0.176611175171733 0.8640924688547805 -0.48571635416989895 -0.3524843594552252 1.4518363920475321
Ni 6.992871216004312 9.196356539060561 6.364459909311532 -0.23491064010309867 -0.18656310203764645 -0.6509318437697047
Ni 1.6594721784791544 7.363310746858575 3.5826291991649635 -0.4462571197330121 -0.7298737096822462 -0.7804560506154881
Ni 0.6296710777460085 7.825499115730849 8.25138899662878 -0.01565750403159884 0.7013655749402243 -0.6611838605150161
Ni 1.39080766646446 0.6681985342529949 4.309307289759843 -0.029497495238484682 0.5283652991886773 -0.2127266478068917
Ni 6.4223815272576985 2.2089718720058227 9.464996913973277 0.3785782283287996 -0.25552291703681157 0.3672846576928513
Ni 4.666444492374097 3.215359055470404 5.571407573327865 1.4957904290309787 -1.554115647134433 -0.39844437112510733
Ni 8.575819497713006 8.476086849040794 4.244372915339043 -0.13247094817893315 -0.3068763318081231 1.0514287265484665
Ni 0.5997912021976154 7.664170439511381 10.742913497787306 0.09652152666751763 2.831924350607168 -1.2170679339492525
Ni 9.274384362954255 1.5862439244787427 0.06256986677705045 -0.32449430200020246 -0.25247050336373295 1.3276875905810488
Ni 2.461278855680162 4.050057175866576 5.507833231768506 -2.877786403246605 -0.9698985310834587 1.5635199711674685
Ni 5.723983765030143 2.7179305177105086 3.2180531273911597 2.0754680053403867 1.5761435734687501 -0.3597274141708837
Ni 7.891634775150084 0.443255597420899 10.457483911748861 -0.0681224066995343 -0.005896825100409199 0.6362079072959689
Ni 7.260208187410226 2.4682507647514482 6.104208105686184 -0.2655733592942781 -0.5216413502012822 -0.0612624463549074
Ni -0.10792719479368468 7.409208374619482 13.641691252066657 -0.19569386069432104 0.3914553414017839 0.16730785335246023
Ni 0.7024184464070158 3.3340857466990124 7.4345857522989345 -1.2067356987853088 0.8317423595942901 1.0337817028906646
Ni 5.852291029043794 4.126441820125626 7.823034346278882 0.5701015025851988 0.0352469961277522 0.5368712797771592
Ni 5.488294247717459 4.767337578641398 1.7857844181793319 2.9633362613939673 -0.28446582532340686 1.1820857614471127
Ni 3.872500940317404 1.75631765841479 3.6480927331291246 -2.58220827006012 -0.48207284388004074 0.23406808959714528
Ni 3.32465370992614 2.1364584475639856 11.367469366614168 -0.37797247642400067 2.4149883484357764 -2.4737617098202427
Ni 4.061707969321256 4.334039464136428 9.494753318961553 -0.08275249790788329 0.8059017443821024 1.5697137586830063
Ni 6.646550220126351 1.4751389873746703 12.534635643053184 0.15918985223101614 0.08511842703689856 -0.17240146582528373
Ni 6.731828458114154 7.013239216673291 5.084450824426042 1.0471609524110481 0.0292054179193626 -0.1945432920296456
P 1.1651814639763765 1.5289832917867376 11.936411495783974 1.600242780509799 -0.4879365017496693 -1.576849341286523
P 8.107457600834866 9.040458710786105 12.489511330905643 0.3115732230631602 -1.0523800347181425 0.5619109963546064
P 2.07602285761182 6.508634532825374 9.050147900530048 -0.1439144141291844 -0.23076190804204774 0.8244720511851221
P 3.4326579577761387 7.054114470522658 4.702021652339333 0.9612876494859961 0.4732434185138689 0.4259554320611825
P 8.568123475582386 0.31383895506634296 8.407534694373547 -0.1380857232625493 -0.7793700166401609 -0.3598410569306126
P 7.6595658231340735 5.459051220321249 0.895726926046946 0.11851551444010557 -0.5512332049257861 0.14613738992243216
P 3.1602243444525997 4.205193757078655 11.83579784288957 0.7705781293801438 2.4637143528865697 -1.4931627616001446
P 6.1022214365233935 4.971648863382912 3.9644874359548883 -0.7520299340643113 -0.18225110492585386 0.071602909048967
