# total energy = -381171.32809385605 ev
CRYSTAL
PRIMVEC
9.20907806390971 0.00000000000000 0.00000000000000
0.00000000000000 9.20907806390971 0.00000000000000
0.00000000000000 0.00000000000000 13.47841661440442
PRIMCOORD
 96 1
Ni 8.930586085325203 4.930558676181695 7.2424110943718745 1.8426813535588262 -0.9218294434903735 -1.8366927400755595
Ni 8.308752315465373 4.012312318938441 9.858827975620496 0.49172322248561123 0.9190349114643721 0.5478727730939855
Ni 1.3992733274295346 3.5909417547878215 1.813480149953858 2.153914419673749 0.24198451623074455 0.6285406205586982
Ni 1.9189047517839977 7.269075058255118 6.665764427496882 0.6047437752494166 -1.0124101791934241 -0.056429543742638304
Ni 7.138766607281885 2.437062723689294 11.175439699743965 -0.5547137072752187 -0.17677619785421167 0.3692510373906028
Ni 5.353660546960086 9.069744460071247 6.401223537496727 1.465175532358599 -0.5393727060427743 -1.4467489502222954
Ni 6.988142930665757 5.403573748675628 11.865615877827297 -0.07063720270158803 -0.963792675296037 -0.6684559686963971
Ni 0.2579158794255865 5.98194988036283 9.055015461026258 -0.2850008718912705 0.16737778735844724 0.47486115662294986
Ni 3.2461999270717095 0.14404839506171824 2.5142366375299927 -0.7990988625276559 0.8354953988788191 -0.3295902284658711
Ni 3.975116853674773 8.84287882828852 13.612122088519818 0.09387431885265768 0.6920913487271501 -1.7328173441461316
Ni 6.100820656699402 6.843348600301648 6.712871623204542 -0.32713765316032045 -0.029761290422832612 -1.4861719321046083
Ni 9.105429636574518 -0.04519262843152257 5.186305817783664 -0.37757318410305296 -0.15131173503452006 -0.9050979896683057
Ni 6.8322332433882424 6.802441876681641 9.94119488843673 0.20830435036947995 1.102468209623785 0.028997158563298448
Ni 1.6961647868589382 0.9068399934711382 13.464438870447559 0.2767113781889686 -0.11911406725605293 0.7809067649996616
Ni 2.9382759924291655 2.872025886683481 3.840621035022563 -1.0010160784238697 1.7728499345879856 -0.6890499907976649
Ni 1.0703158590751272 1.6608111371567305 2.9555070979143965 -0.41220697212683843 -1.5225003342219972 -0.44641112881237316
Ni 9.068381516555768 1.6072327224738843 9.065812183847532 -0.8765525739304452 -0.5752519364378866 0.1542625901327279
Ni 1.3424533173585205 3.4978103509226406 8.987367417269427 0.9344383905036359 0.6044635250048364 1.041412222852729
Ni 1.3047973982044887 8.475307696688121 3.5554039235294677 -0.6066355929554907 0.7179967557390022 -1.2108456071886244
Ni 4.02470773766706 6.384358953308227 7.8766918537960455 0.16529416535654115 2.295205537247473 -0.3765987360049256
Ni 4.45775541247733 6.4161394808212036 10.530915683074738 0.9231047106583715 0.47025271131666113 -0.298082387665577
Ni 8.413597666301433 4.085782341685045 2.2458408275597033 0.40077456192018074 -1.6717587862719143 1.23935348482033
Ni 6.193335052351494 7.798357596151627 1.1733046598252372 0.17838750820538954 -0.9521725745586055 -0.4150809512405239
Ni 3.5411298529281594 2.138964875067134 1.3390008340885653 -1.706304642567584 0.744039459659667 -0.8406167792657846
P 5.993065237276236 4.330209684846285 10.038509055441983 0.07878245751654174 1.493817621575324 1.309520689864035
Ni 3.241355952145072 9.11448216005909 6.9709155088116495 -0.37781898156527194 0.3122761626674557 -0.6150153323787537
P 7.149163656126322 7.6983654293200106 12.063411213695735 -0.2493309292934867 -1.283429134983306 -0.39508599617583573
Ni 3.338078896355098 7.932819341215951 4.391685804656668 0.4242839578960305 -0.4563394436696786 1.3591990309257687
P 8.582934189021985 4.13622966991341 12.640247587573558 0.6220177318385158 -0.1655276215235859 -0.5046116484125052
P 6.968730194647978 3.42473631852175 3.8203085721030106 1.7844648931190945 0.07849243707994868 -0.21412044283062479
P 5.271184046117945 0.7650855796912173 1.4406948384989695 0.6629000718751745 0.029318546458459188 0.3233131372079077
Ni 0.7959074422044551 5.242193869180579 0.4322013605597792 0.09902680958787462 1.1325022940920302 -1.0082341934388637
Ni 1.0038171082286456 4.050336601204764 5.462896786094665 0.23641884921750897 0.8715021559907313 -0.052490870809864434
Ni 1.234007217099807 7.107289979336548 11.029482262852794 -0.45665183270377485 1.04820816272864 0.20594124945394213
Ni 1.6034570005728932 0.6784981465159008 11.145976176207304 1.5147775116564426 -1.4698873360119717 -0.36840643000212037
Ni 2.3345748967719007 4.833099005747085 7.254865451198461 -0.5829058534387187 0.8426134979808392 0.1463561908014576
Ni 9.14587590630416 6.987415413518981 1.985653989546838 1.0205379505068812 0.33046311798912764 -0.468794895824212
Ni 3.974334082061153 1.1948686364188008 4.703630422669877 0.7297207290441498 -1.8125930188138784 0.8668494877100684
Ni 7.591328317965814 5.518318858154531 0.7937166025940994 -0.8598535160082094 0.13357986497239574 -4.230630952709255
Ni 7.2147230810364595 8.438204322202527 8.014926558038017 -0.457205905435032 1.0153651480566899 1.8139737012114887
Ni 2.0833052087998394 8.403762371203243 9.097674672152994 0.32063790436858974 -1.8587443205589602 -0.5346413620053759
Ni 7.24376851244067 5.971147632094873 2.804143932350343 -1.7487116467788852 1.1803695500869542 3.1300823287056865
Ni 1.1271634963795634 4.789705831119108 10.912826269728876 -0.45912112017987383 -1.2776760345496125 2.6091840273180162
Ni 7.891590299872688 1.1881275914638603 6.6943521677340705 -1.1602699511236017 0.5667863221690369 1.338648460467927
Ni 6.269972997863808 1.873089589692702 -0.14033345307425518 0.10154134847961221 -0.2461820992518599 0.046349790909133076
Ni 2.5434183632857508 5.848252488756511 9.535466863849583 -0.6810908838515883 -0.17456479202518968 -0.6679276069967529
Ni 8.986733832716284 2.3082000979318056 0.29116709666438884 -0.613084433904628 0.3018845350204865 0.20499148394616307
Ni 5.309806918441743 2.795452404715818 2.5342792744697906 0.5463789621572783 0.09748826145616113 0.5214395186031213
Ni 7.0538865371320405 5.369960614678998 8.136083948394141 -1.6917560553294475 -0.17205976621514882 0.7615268178111531
Ni 2.955598267784689 2.6854591793854783 6.561266258894157 0.21297321660005902 -0.7735783496590484 -0.3735625202817631
Ni 0.7711304183639262 0.1880346343004851 7.321017019811608 0.23926557463768472 -0.019692850443237053 0.19302325584069338
Ni 7.596494610615706 8.569221872166922 2.7785077015503936 1.9732041768724533 -0.051412807254337264 1.2893493571224826
Ni 4.080229267767246 1.9410065385215072 12.516124874163484 -0.6691825624497766 -0.5376667790952611 -1.212282339635151
Ni 0.5818276940493764 2.7723928738863495 7.049724033963143 -1.298899462704763 -3.0726330854492825 0.7895654691159241
Ni 1.985974465454532 7.740717978155764 0.6668983921098313 0.33711764719116777 -0.5244438526470839 0.08870485883657626
Ni 5.316649263252565 2.184687946380357 6.539767666753025 -0.08144457772973716 0.887645341409497 -0.48350314856866405
P 1.2716815544094535 4.8593725047313 3.7238167757459477 -0.012348751373340024 0.7983357591093864 -3.88441931363662
Ni 5.400341362365267 8.786031190984083 3.2684886580887076 -0.7932807131839822 -0.3530235197881469 0.9421167329845
P 5.008126738552546 8.029606748970627 9.026872519247163 0.9244951632479949 0.7372769441248529 -0.4568631773836326
Ni 0.4020710997898694 6.731688531888189 4.869872695247178 0.6334655686641413 -1.3180097011716527 -1.77130290181584
P 3.056971796287399 7.266634652636185 12.071701225537863 0.5706555753164559 0.160073283277234 0.8515401110465076
P 0.024859905540794553 0.17621478293482115 1.2959520789705812 0.43747423133405944 -0.5121596359630921 0.5452834151002544
P 1.724316937715841 1.3059393238525931 5.253752182736515 0.14787262744598403 0.21700316369505857 -0.23663533610368928
Ni 4.065863106387865 7.279103743987263 1.8634854424474734 1.2840865660616465 -0.967502005826824 0.1821847704642927
Ni 5.2440080575086165 6.441934107759439 4.287106596169238 0.1361684516351784 0.12039241974784426 0.15372394402043849
Ni 3.7455161257832787 9.019637867721752 10.61109912354286 0.5491693804182219 -0.16119402714523853 0.5878739960772713
Ni 7.415167868590055 9.265897817366644 13.414703403933697 1.2864599513898296 0.6301110503696116 0.26582507029376795
Ni 2.261473237137588 6.504795272872039 2.693742744873141 -2.3131711205869583 -1.0810084970881124 0.9621942204606656
Ni 5.493997683665464 3.8503062221524957 13.313629170459723 -0.6839178117774222 2.1149030714075576 0.05893071289793722
Ni 3.935462564636558 4.200057788195776 11.353826904133525 -0.5199691047051819 0.41151611670740096 0.00523862269112001
Ni 5.098430955530887 3.8657590547131377 4.651940789845307 -0.47266543452321175 0.13447512309315549 0.5121966598486146
Ni 4.9351724241631505 2.41538455453092 10.178468619957263 -0.6032461076579675 -1.0885770534639898 0.573365003827819
Ni 6.643428730183068 1.0343912465488672 4.626507158757119 -0.018433267004523093 1.2189458676982554 -0.018819703809664363
Ni 3.4235667656402233 5.253824934451194 0.08184291628899772 -1.1488187718638667 0.5498710344709369 0.22496766995777384
Ni 3.0647903033457933 5.285126589918191 4.936321717073501 0.44530221201891057 0.6455268707040496 0.20211004863330995
Ni 2.1492882512891125 3.3378118330986863 12.87315437439787 -0.6991163738947316 -0.46902372400556647 -0.18825257392492742
Ni 5.9804211734468185 0.14766387900886252 11.065065218592403 0.7692121022705526 -0.03128364060462999 0.13792271532212377
Ni 7.433576815126839 5.487910483234841 5.174027354343195 0.2951541582751885 0.16546180128265695 -0.25252655341264896
Ni 0.2538537552047884 2.3430748755880346 11.339944219339028 -0.35432552642902204 1.9592914234461032 0.5126039225893623
Ni 2.506038716465938 1.3132605407093934 8.59495664009941 0.3628687880133428 2.1259354179623196 0.7023654769596485
Ni 5.230074722786179 1.048186445104196 8.435494090603841 -0.20580960897208425 -2.157989103963754 0.9521556052777407
Ni 7.366461056067269 1.5802501244985083 2.038839176607312 0.5608948963852662 0.465385870142663 0.722943044000684
Ni 3.854487143477008 4.8195708704481675 2.545371608688678 -0.42842626219917834 -1.2698256852672583 0.7893682655034534
Ni 7.170814198051274 3.5509651480263513 6.44661876564001 0.40326338978030546 -0.16228083245151406 -1.494871002540503
Ni 8.807451505963853 7.281304713583206 6.832317045996289 -1.17293160575167 -0.08890411933157592 1.0226328853626967
Ni 8.756598978311967 2.3974360618845005 4.686943573683058 -0.7599648726406718 -0.05154316218461445 -0.22982062717470098
Ni 6.719569385493788 3.020586729870774 8.589969924466759 -0.25718462100995065 -2.1425776545046906 -0.7689814743169853
Ni 5.1639811713632175 6.638326901077826 12.796340535499438 0.4454004281596716 0.6622683518284466 0.07881073965131588
P 7.164432307130817 8.116144453125784 4.951350011147226 -0.7567167980170193 -1.2131940528161427 0.3483248287608968
Ni 8.568733791043137 9.1460508787825 11.047570733481884 -0.5430434700261422 0.11936989202060086 -0.9788120315230046
P 2.6851000253509945 2.444927276136724 10.44147251487138 0.22634269592842954 0.6974253593455536 1.071585918222632
Ni 4.199514452605146 4.262605844662929 8.696233473285144 0.5826158330021256 -1.3998695120619375 -0.31027918684208494
P 5.33338215762842 5.5043947325099 1.311368075219994 1.6200865547086034 0.6028984945105618 -0.6226499661058761
P 4.817379109930032 4.884586959767676 6.497755853796143 0.059426164477117016 0.17782829326780986 0.4362290460730487
P 9.229061506137462 8.022976212949374 9.157721543087685 -1.394533958781637 1.8551782004742565 -0.18167183538361614
Ni 0.031029987671682628 7.793974075115354 13.001887152158275 -0.8414822125898733 -0.45459803549853967 0.15793232567483123
