# total energy = -340890.3335698097 ev
CRYSTAL
PRIMVEC
9.07853855424693 0.00000000000000 0.00000000000000

0.00000000000000 9.07853855424693 0.00000000000000

0.00000000000000 0.00000000000000 13.28735884688093

PRIMCOORD
 96 1
Ni 6.0684671909337995 2.131913138851423 11.477886067797447 0.6526524260052373 1.1003753316504985 0.5416285919564866
Ni 4.84134841037284 0.343104288486556 5.871923192650207 -0.9971208571345215 -1.3368859692508652 0.6612383679020354
Ni 2.9469298323200928 1.7572327864537864 4.666706385633849 -1.0616475760629975 -1.0297489275821878 0.8997364682460762
Ni 3.5978701038730714 4.131815252910279 4.918913625531545 -0.5486921836714872 0.18754552055557377 0.371696927827934
Ni 5.432506507504591 4.350326590213924 2.6326508106527986 -0.9033365268925088 0.7583095964254359 0.31974598868193965
Ni 7.155440576424073 6.199107356449585 2.6629458928158405 1.18915089582401 -0.7968242075608665 -0.44304015545761116
Ni 5.036609611200742 4.3994959534129165 11.722944866671714 0.8756259483511177 1.0110392669878263 -0.6829922146393592
Ni 5.871099769230312 8.0670983096367 12.437472128029357 -1.836693768516824 -0.8864724041473185 0.5530386335656411
Ni 1.8929296977786265 6.3207052978615685 0.2551069250169271 1.349149874219883 1.0150977533279162 0.05453721181593188
Ni 2.7274107772699403 1.3632060690308445 0.48425467774227415 0.554346296633471 -0.023427892005637073 0.13004099858120186
Ni 0.5371580437263005 0.1768789765654731 4.8262081321219235 0.11708700952369512 0.6416583888875789 0.13774633764525954
Ni 8.845646514927683 2.3459124426414237 1.4448139572753163 -0.08235397691788397 0.011587447727283269 -0.21071501669350162
Ni 7.028077763219003 0.5685743253640612 4.884978049527514 -0.019227223660728175 -0.1650393690332577 -1.0637687361710582
Ni 0.890439373598763 7.557093265982752 2.5728577419856635 -0.4768807581561399 -0.76384415309042 0.08801760296156455
Ni 7.547179502206294 4.052859205690628 3.8874028459598984 0.35262448457751533 -0.9626889007088969 -0.6806239715174988
Ni 7.726907324076761 3.9396044409366717 12.650641653422682 0.4880673709005788 -0.25952946709304336 -1.17347487984965
Ni 8.009849047389128 9.09705847487408 7.046286587400727 0.47010384444362263 -0.06349082146479387 0.6030321918749486
Ni 6.7528709545014545 0.9770776798913445 0.14695248305565822 0.5167873645430906 -0.22395851196696917 1.8029421259876757
Ni 1.9128298536375983 6.44494509390629 9.081644024767806 -1.495769345985056 2.0893679032509307 0.9017691824053888
Ni 0.36716059915950455 4.9820475962771935 1.2443770817871944 -1.7829106612580972 -0.9868449291298101 0.7256596716008986
Ni 6.354078004493676 1.8031974256481174 7.025797234408888 0.5811153371971992 0.624047617784351 0.6341703080406498
Ni 3.6414289304293423 4.475501475699098 0.654535372702683 -1.096651345831692 -0.07275733436838437 -0.47422275170800254
Ni 6.109647440466782 5.738026555461697 4.874812810241342 -0.7054348599135916 -0.18544595771406772 0.21533374641243558
Ni 4.95132582281608 3.114056643090079 9.219313702455858 1.189347070995216 -0.5110813152972489 0.7888378469212801
P 0.3989899542879511 5.505407169706937 12.15275101121865 -0.19585044087684336 -0.40753836300657553 0.36157166646847405
P 4.082101177415877 6.281295363288669 12.694170520802706 -0.2536665805543631 -0.38986948497190277 -0.8035386434665645
P 2.704623646245296 8.217093918716047 1.6302794153240991 -1.4029522647523194 1.4188838483809112 -1.513502244488445
P 6.573960201074103 7.749040800346912 6.012223830725086 -0.7479434226997634 0.6785323790957927 -1.4275541224613995
P 4.623799398124419 0.9440953504042806 12.54133968422575 -0.9239500893778023 0.6198441212259647 1.6968262707635038
P 4.093848805920215 6.22862168432254 8.363621526181285 0.0025379359305053063 0.8803426371004968 -0.7574768161114955
P 4.797508149130607 0.8415650628931179 3.74194559815514 0.4090275459575924 0.44558837580076166 -0.819951280496633
P 0.2377687326540329 5.637536215496843 3.680452119272501 -0.33926477544115763 -0.5673640490493777 -1.0734103730258802
Ni 1.5636238795886266 1.0052120699492613 2.656714384156352 -0.15523421001737783 -0.13278642253682293 -0.17501936306410504
Ni 1.8419809410812957 6.596947059940397 4.743454532349441 0.22630644337385541 -0.22221401847203665 0.717684623815222
Ni 6.103728233523328 5.71453129845302 9.587520149222549 -0.600953712079365 -0.19736122109441492 -0.8735014458089472
Ni 8.57162899472178 2.370587909623488 10.552195638001237 1.0307424018437088 0.6093146824495506 0.28733749044424706
Ni 2.3038969675888135 5.422075267047494 6.921611021519679 -1.233504739349037 -0.9287912195201875 -1.0902706391163288
Ni 0.2499294346490569 0.23720495542828376 9.254964214336603 0.43093077378858685 -0.02614966181217432 0.9234703215279064
Ni 1.636506384714459 0.9210630988467026 11.653120013230781 -0.8139261573484757 0.4868715508202648 -1.6947879001772361
Ni 4.174647796406004 6.6167019591872585 1.846012719921154 0.6062252448909495 0.1915073334167992 -0.4270903169965742
Ni 5.50794916041885 7.8340249969691 7.97605600443573 0.7599895552310202 0.7776370931094543 0.7064188210934156
Ni 5.463963642564508 2.599403387848635 4.819856786757445 -0.3527288713658635 0.7098880105889387 -0.193928284153466
Ni 0.9019346187395615 7.6974928601246315 7.111925326851435 -0.8448236182582805 -0.8023657062043857 0.08747844262864289
Ni 5.033005431512781 4.539550563101035 7.322317727391996 -0.19527657065124435 0.17462264184631862 -1.1062474741605592
Ni 8.08482869485229 7.323765754243961 9.031244519635015 0.3891788866627814 0.11547595628283339 -0.02681634886189575
Ni 4.719986510955534 0.4316363778595123 10.500348106016482 -0.6189514342083662 -0.8895736687804614 -0.4058288365146366
Ni 8.347062272400828 7.327242834396327 4.6655770154747 -0.8013776312595037 -0.331277643470623 0.30292377491827827
Ni 7.045408692751292 5.99666503186053 7.07513273485798 0.09745689399759346 -0.0849189094315828 0.7933277643718337
Ni 2.412703248596923 5.071916046481555 2.66390277074811 -0.18021967631812186 0.7007693361171221 0.7425446202816953
Ni 2.672839683808134 5.214376468807733 11.22464205883082 -1.238227084525371 0.29706963013034643 0.849753194349414
Ni 0.9071584096525415 3.388264812599377 3.6224393519575306 -0.13013330118469202 -0.5967507297416109 0.555833679812275
Ni 3.754111747273118 2.5250683166017094 2.5729902886442133 -0.07731590027334426 0.30757001544103807 -0.2796545199776926
Ni 1.051085923761024 3.378296577593377 8.060204975538289 -0.6877567259075381 0.585493668770553 -0.5435103823602317
Ni 3.7457140993855504 2.445140865788577 6.903952356756318 -0.5471816605642318 0.48238291892129176 0.31297498850669325
Ni 3.9857597294343963 6.906025894894179 6.102086833806493 0.6080769533877075 0.3540272784623129 -0.5251133679102827
Ni 0.7962232114232055 7.4798439839553845 11.395889618115582 0.11134625038517598 0.23551382090473633 -0.6418908166133591
P 0.00935997294279188 5.7958659226959615 7.834957362848075 1.3086855955572494 -0.8058274395007412 -0.02939413689140099
P 8.457130470226637 1.979593423978327 8.249576020745161 -0.0032969255837169025 -2.3065194195983953 -0.4320669442755591
P 1.8180953069275756 3.2417099695193676 10.101289154837778 -0.9053939236421696 -0.28794632767283956 1.931371299997067
P 4.049018984007988 5.991662757281017 4.000943584668945 0.1957033737760178 0.4586120417539392 -0.30479836623317186
P 6.828104801035805 3.8262407337236337 10.415215929220707 -0.15117340968444287 0.7322949175292292 0.05229289586644542
P 6.378971356393905 7.844338216428858 10.172389542903794 -0.6320355210858342 0.37823601449803246 0.9132974947599625
P 2.318558806873594 8.625818789576797 5.80171250133336 1.3973305476901676 0.25252629630233286 -0.5387386720032012
P 7.336729906874714 3.9553193906592448 1.4436446415478366 -2.0118059484050512 0.8902519257944088 1.125101887862901
Ni 5.112288306109678 2.7898620419386746 0.5399451549711473 0.775709022848806 -0.6408695744376963 -0.5285781865304315
Ni 1.6046407154329851 1.000954235506808 7.407263794153504 -1.3912743141937587 1.767964838581542 -1.721032435696062
Ni 6.7868700802732835 1.0146537497363646 9.603226020406865 0.40673874992341563 -0.7987769604118631 -2.691471669774339
Ni 3.0177061165703405 1.5585943693943427 9.311395500287233 -1.5482964693494947 0.028631290583447468 -0.009593557225706059
Ni 6.402330435328728 2.162362556164832 2.594037971738848 1.0201808242777786 -1.1015307854111804 -0.37039800651085236
Ni 4.07794320689425 7.23598536783867 10.472537819774335 0.08084628202410593 -1.1845995290079019 -0.7625308335956351
Ni 8.182259567424591 6.982948349544301 0.4063063482691305 0.3799861644199198 0.20814442775284797 0.47535223732675547
Ni 7.387025008817553 3.7990141974914002 8.087483259438587 0.5439556974277664 0.7721004795619413 1.5302087586098485
Ni 3.0514328861944646 8.272808907998215 12.44718525611034 0.8818035379167394 -0.2110250917347527 0.4649107302784574
Ni -0.2930987919141099 5.009955022878689 9.938638063428408 0.33788717836734067 -0.4892912160053509 0.2886438679604964
Ni 8.571420188341872 2.2927939153007104 5.8655182839100135 0.8017234446346967 0.3132608951782282 -0.0252168655852598
Ni 3.425559447758435 2.8625629762993703 11.48500818105993 -0.13847524539148412 -1.512617013670014 0.5310659859492918
Ni 1.2085259342109722 3.073112435551775 12.703418827724938 -0.5132603252264386 1.2348111168652862 -0.47915567023324585
Ni 3.0938205813156046 8.486327049260602 7.893621061356061 1.8324612184927151 -0.9455411852850168 0.8651276199229553
Ni 5.597381840786883 7.82196869816403 3.5890748160098545 1.14056347383361 0.38915831783749105 0.3881033942104155
Ni 3.307447665037075 8.229413495130565 3.728579266279609 -0.9318300063465113 0.5870468721902858 0.7094236693580104
Ni 3.042190934249011 4.540186060779013 8.94227302901043 1.2174638838360903 -2.598393107350099 0.0812849122234213
Ni 7.4453909312707145 6.39482248419033 11.59590434157476 0.10501799417430302 -0.8369521859300038 -0.886947286901208
Ni 0.723355231958584 8.72193327410186 0.3161128863951743 0.2660166174792838 0.6044645534461008 0.43923877943365
Ni 4.760803618958243 0.21574601455061435 1.5326306578336342 -0.23739509708784926 -0.14380874178925554 -0.11053198201399672
Ni 5.900541468797212 5.4510539611632955 0.36464221264705987 1.1174803667619013 1.0555867145808984 0.5052035163602331
Ni 7.825754448617127 8.94039921871422 11.489897881765058 1.4071153949910733 0.15633232817756304 -0.31851288760578694
Ni 8.820498963956263 4.853086960338921 5.73830526658618 1.0339447108310902 0.054880968308595804 0.9279761798180599
Ni 7.902168505124866 8.916931197320313 2.4160405192601337 0.12147382573748111 -0.6278906456795251 -0.3574774417944424
P 8.4523642376418 1.5990755714815483 3.471335253357024 0.4903050019818459 0.6268148961168432 1.3465602591158359
P 1.8403921968863506 3.2590862917429404 1.543047372629521 1.2026507300826577 -0.7925194095379254 0.03700614491070401
P 4.818207216356179 1.0376950798321993 8.27195189398677 0.024052155853197286 -0.34099615630996755 -0.24020556995345085
P 8.722750342544973 1.4466287570728564 12.728279496887442 0.7075508778153299 -0.0864415167236963 -0.9258516772758892
P 6.367477926960758 7.741587320438055 1.3609046595827379 -0.3010532973684428 -0.12240327953028596 -0.23115143017098252
P 1.645394273667896 3.259821653341744 5.864043021443279 0.8371283064965519 0.18996261463749867 0.16242764244202348
P 6.780224590269283 3.7612020856517026 6.066556158630736 -0.3328205624777107 1.4978341989338848 -1.3436754813688732
P 2.2483363134570133 8.563585409826226 9.981929073106103 -0.19558227481712123 -0.03032847578021228 0.8733443514057928
