# total energy = -340877.1005768273 ev
CRYSTAL
PRIMVEC
9.13893291226583 0.00000000000000 0.00000000000000
0.00000000000000 9.13893291226583 0.00000000000000
0.00000000000000 0.00000000000000 13.37575209459583
PRIMCOORD
 96 1
Ni 3.8050586115179197 8.655026234789005 5.652539556023248 0.5633333306234299 -0.5386234865815757 -1.1297789816235961
Ni 8.994437057167792 3.1302855139563905 3.172607911394021 -0.9413983667612368 0.23643067629205086 2.8455226581168933
Ni 2.9286715191665906 4.211640589406656 11.420390509565184 -0.5662934416930182 -0.0027238266890662766 0.011640926673038017
Ni 6.58569769844639 1.1681475195153006 9.840139269010248 -2.154702719902999 2.553290558584506 0.9222307926938506
Ni 2.101040632889491 4.9414574787554555 0.4568945442055984 0.5856679895648882 0.4481736200294346 -0.7372602319543045
Ni 2.2627631863458304 7.895690592746718 9.986911442425944 -0.5099168626755025 1.2995877470210393 0.7851765960196091
Ni 3.2567500649695478 8.49084530843033 7.854161454669395 0.17024071072853908 0.2917183931207621 1.4059540276931206
Ni 1.834805244819301 6.408365847900118 8.168571812692667 0.3730902086310349 2.4757373454893754 -1.3219907973065876
Ni 2.690044846850899 7.625260434556926 1.2861411937880258 0.887121607695543 0.10540931607545072 -0.8637353675611189
Ni 6.596582167318818 3.89890631164468 4.37625195949656 0.630493630520011 0.35067687393284125 -0.43382892127198835
Ni 7.6387860549861415 8.958685552357597 8.419580824953997 0.9861450748493079 -0.938533386508616 -0.5288093287046313
Ni 5.450084779422983 0.880247377533289 1.2880512307270164 -1.1278046315060446 -0.003017189559768997 -0.6845595591264791
Ni 1.540549889022103 3.161129411894634 5.130068600067765 0.320800398088383 0.3793189631495661 -0.5446190420433781
Ni 5.566871200683074 7.20401046964867 1.275043787783164 -0.17980032939251617 -0.513346971402974 0.43703791512758927
Ni 5.099963127893496 5.413647854658606 6.457545186559398 -0.7255696829902536 -0.056372979473090015 -0.5961218379083605
Ni 2.3412392016334427 2.526704702302687 8.967826312866583 -0.5075807583431581 -0.10055173087283327 1.2529404794761452
Ni 4.845206239322693 8.403531945200115 9.940618178720413 0.16283747628593245 0.5491115305970931 -0.37355249297943405
Ni 7.84982228941278 3.806813286600629 12.84908168985114 -0.362785227160601 0.48858750507010695 -1.1968662621903967
Ni 3.915548308132248 5.357580502406423 1.7635526419555072 1.1896049526422932 -0.5106321435749722 0.19689096632621575
Ni 1.0755609921042375 0.2629179554919433 8.267338086410646 0.14340379304135303 1.3290317633137692 1.17584646540562
Ni 7.183155425176056 3.9641765691483632 6.890425357250234 -0.2582439155124004 1.3003822178978766 0.27616219055371793
Ni 7.4405626042363675 3.947827018507914 9.178989578458065 -0.8454059731243116 -0.5203097758740524 0.5332020584556882
Ni 4.007961195821585 6.354702034953937 11.047033121588887 -1.4719421616584714 1.3220183081104135 0.9331672371006962
Ni 6.929010845097658 6.3253751998476195 4.938969861268407 0.027480207698139768 0.48096829796195234 -0.6463539945910353
P 7.765104383075739 6.630295690131908 1.1929176827662082 -0.7421175600466058 -0.4746901782627245 1.1567789072512076
P 8.688173143773303 4.47897264940354 5.566319209146639 0.98388558939117 -0.3189911127937861 -2.1057167769225993
P 9.270624742972721 7.624876599382584 8.855924651146639 -0.5515687338883339 -2.089496458408995 0.532781940199134
P 4.736160494078511 5.782824180914386 13.011503371660746 0.5104395679481919 -0.6513493909230976 0.6230423164482882
P 7.131328537707087 1.907797900473448 7.885928384812605 -0.567210554190649 0.077681254032563 -1.1529358793560336
P 3.5985370098561686 2.4822255167425604 12.428842490901983 1.0594366844546075 -0.9739421050252132 0.4245991751436042
P 2.773784887386638 4.579866466659302 9.025154837834465 -0.31316936390568645 -0.09676346747499465 1.7474083545864292
P 0.14233979104531147 0.9869681782928815 1.2458576922407723 0.9871238938228095 -0.3953677890823126 0.054062843282674626
Ni 4.0822058852587055 7.288627847725764 3.453270932553131 0.5927274675148307 1.1594417987953516 -0.24633173745584672
Ni 0.3234505902723123 2.9016111393754387 10.383248676732824 -0.7057593331325458 1.1236643840854261 0.07878631417128366
Ni 6.6860705965369736 7.141536725558055 7.148242874389782 -0.28747504446337585 -0.34322376008890565 0.5559486081235845
Ni 7.9604125142870545 9.02125982470816 5.984270933235366 -0.309365416778564 -0.7090518878408886 -0.21953492897797677
Ni 1.5476508397474407 5.87294319649039 10.6570903985079 -0.31097595579879345 -0.41064245585319603 0.6062255020012657
Ni 6.974714647642592 8.632617571753578 2.6147857358815862 1.0346648768265665 -0.8193303590831825 0.7838573629875533
Ni 8.686208273237979 0.780537052065082 3.807541659538608 1.062962695329995 -1.5720799449223375 -1.7700358621779582
Ni 1.7917334548984305 1.6836016029264929 2.6377783767179794 -0.9682327133452615 -0.4133662825422623 0.6570865505171909
Ni 5.7443035794892925 4.95318272943835 10.815646311775916 0.8700782790600113 0.36218384613117627 0.07347852880512507
Ni 0.37331077941941315 7.8525182745659 1.8090032960640297 -0.8384660514713688 1.204096718500565 1.695961865880679
Ni 0.34219545517931377 6.432227601238416 13.328267918753317 0.22705052062873154 -0.7549599632269127 -1.214534111783805
Ni 4.410777933428675 3.3070324728084253 3.301737375189042 0.4556850979151313 0.13741826488187944 -0.26489715916285994
Ni 5.679718741939792 1.3206397509219734 12.403200473469356 0.07783089223654983 -0.014249053719846428 -1.6987558836860486
Ni 7.0340445988766875 4.179297906501933 1.8372800678005383 -0.3030397316708523 0.2736931601879351 0.39740307434478656
Ni 6.933269587746316 6.83921169216694 9.759550332477206 0.6797204858666229 1.329525415120736 0.2469842834381811
Ni 4.094351526846832 6.298150319267464 8.721230491216922 -1.415034906948466 0.8820405936282099 -0.17731535818713332
Ni 8.773302302082854 6.114009963842974 6.994702407399846 -0.421107617050578 0.8230080650450857 -0.06656971750043375
Ni 5.984008645866232 2.226618707428571 5.976125402499854 -0.007832094449909092 -2.437687332695189 -1.0777912757023955
Ni 4.536694148478485 2.904078651210498 10.417944634813576 0.034962632118113984 -1.6921268084053052 -1.1065940588667007
Ni 1.9349588085245466 6.254502776585079 2.9598261408173965 -0.9043983924981198 -1.0949171367494046 -1.1338906897991246
Ni 8.161158310468222 0.9417578781149594 11.911307472509892 1.0046688446851086 1.736432829411532 -1.0965019647380212
Ni 5.5405510744424395 0.019325187134876545 7.286828391872715 0.2089067598401692 1.1119931183950849 -0.038027129976050636
Ni 7.430326999587232 8.733758140192846 0.239316661736236 -0.13969394828993362 -1.525275325863973 -0.049102156843289634
Ni 2.698306442031987 4.459461028041125 6.855821702389979 0.18339884537705187 0.05255026329289014 0.15020821755769614
P 6.623797908966252 3.0782027363711917 11.040385461926585 1.2921343760667876 -0.970990992816689 1.5769269886019939
P 0.8160893281419273 4.12540562023769 12.283568188559496 -0.5385594661128595 1.3347424405453014 -0.5219599098829656
P 6.977291826670321 2.038493777337096 2.958756885688871 -0.289198712022702 0.4088892206075151 0.22876107556193503
P 5.517950493819841 5.665306645036501 3.2581053686922856 0.6222830696847605 -1.0107888415399173 0.1610798701648774
P 5.91691060181806 8.388799985651538 5.137960982366866 0.5027802516307212 -0.11036871696325508 0.157539975332419
P 3.48651197254447 0.35503565565434525 2.4078894379782145 -0.6960865859294721 -0.657764550420822 -0.9241565489616534
P 0.8041977488834853 0.8782523485199798 10.617042681424888 0.8697193530586957 -1.054528448519713 -0.40531255899985036
P 5.88936585859262 5.534574212441963 8.518628577799827 2.7812111405230167 -2.5301313468592235 -0.8903329155439893
Ni 5.2459118834708995 0.7447023829671134 3.5026814862102875 0.9189492937291012 -0.2861622391892233 2.751685363149758
Ni 3.3608516476108883 1.4650988604656192 4.616239418894623 -1.2439377617569027 0.7876345706417984 -0.47416952987256394
Ni 0.8639005685726564 8.831343663803086 12.941575000148433 0.04156085416092197 -0.07480650358792923 0.18435092487767607
Ni 4.8724676756337395 3.3007174702972177 7.7395848273415915 0.20949271425062627 0.38282363386871493 1.7088724032947602
Ni 1.243964105380682 5.952817468484536 5.125734918170783 -0.6622850639989948 -1.0836811588242692 1.938159012342862
Ni 3.2316819725118884 1.7188321885715079 7.044740805735034 -0.07974533565044331 -0.5666523676943338 -1.715072361457885
Ni 3.40774351140974 2.646022607926894 1.223581543729819 0.16585440873538532 0.8567293685569309 -0.27888807412531325
Ni 1.3457718159086898 2.0197863820542565 12.534724337637657 0.3610944697217394 0.5105182437049272 0.30309603883008446
Ni 1.3042536445506343 8.054708022117214 6.197066412211075 -0.5683426109125631 0.9126092104436864 0.897096716630384
Ni 0.3973087028552745 3.4492068491714605 1.1560877838947659 -0.5317630120163164 -0.9259833177577472 -3.036975484146673
Ni 6.899556064933227 6.445579581945904 12.607849507816278 -0.17317871031094043 -0.25257771836555853 -0.7472777640913065
Ni 5.5491690879997035 3.3596544474242482 13.460019342346408 -1.2282195796906976 1.375994762326869 -0.09035139330106375
Ni 8.475418789994848 5.305113889646881 10.92679858101262 -0.5726823759384976 -1.5095322040971035 0.5666310275380951
Ni 1.9226395272146943 8.542836696688303 4.0475026160317755 0.521928799534714 0.5994015371008967 -1.6725607133479194
Ni 2.9710030555369435 0.7836378919378066 11.04295350202159 0.6426683182093318 0.3022226350861957 -0.49519806840808905
Ni 9.143684967457997 2.4921595366118554 7.876579256637546 0.6965876939356068 0.6464743222189834 0.4877632093965987
Ni 5.012658903596003 8.171055774606627 12.440533013640533 -0.16935496568947606 -0.5501600264662655 -0.10956910388009516
Ni 0.523042139250636 4.808988648943655 8.632709874974074 -1.0503964286292105 -2.905273295812964 1.2870343358360607
Ni 3.325337755051477 0.5303359214564173 13.441159326887105 -0.21100323735788176 -0.45458826530652674 0.38994404696358004
Ni 7.448266724521385 1.839804241018477 0.7522666775814789 0.07476922259209058 1.6199430871522036 0.6529599299433271
Ni 8.793243453283223 7.545623774813564 11.202299019076822 0.30188839167522846 1.5538559657151432 -0.7845783003139778
Ni 3.249831892898659 5.188720442493856 4.531851428028863 2.093007042665415 -0.9308445025047904 0.04446208696811697
Ni 8.607266172381522 5.651452023029278 3.219182654227404 -0.2619154508267167 -0.36285798938006536 -0.5221154616242233
Ni 8.496840448296252 2.2058641912159045 5.498129976531408 -0.803155806205849 1.362778520746911 0.7769117849076556
P 1.973936356585763 3.928900288839736 2.456470176544174 1.4027681737659712 1.1566665500430595 1.4448615033915952
P 4.18381253926682 3.2831341637392386 5.491241049045231 -0.7271907635334444 0.9944199132635907 0.4401342946647258
P 9.221731452907655 7.4280239885411765 4.19281621578497 -1.068101044997825 2.202242417355175 -0.13196341241489531
P 3.2423562459317012 6.788070224652152 6.5195290838560895 -0.13398095706555635 -1.6307003256687076 -1.1924344516712884
P 2.5944790273723197 7.691508557861911 12.391390230712144 0.7834626986522959 -0.1932636539862736 -0.6771326705347886
P 6.802920990326121 8.694542979880847 11.156554091334637 -0.9749985713141854 -2.454978258565153 0.7983223893729476
P 1.1396157715558357 1.2908011355831992 6.36296545792157 0.18653559123382066 -0.5555889107913206 -0.9889604328109163
P 4.236937155182377 1.1519259139329654 8.89816571208304 -0.0614701914903393 0.15172593975380322 0.7780407563057762
