# total energy = -340856.2841525291 ev
CRYSTAL
PRIMVEC
9.36853897853915 0.00000000000000 0.00000000000000

0.00000000000000 9.36853897853915 0.00000000000000

0.00000000000000 0.00000000000000 13.71180378151916

PRIMCOORD
 96 1
Ni 3.597809404129361 6.066175850961984 10.674735381122543 6.776010483976801 1.9921850888503305 -0.2949618397587243
Ni 5.3002134701328 1.3972894875613733 9.288046395449747 -1.955323954157923 -0.7091138514270755 0.6274589574587451
Ni 4.795164900701661 3.141880084721919 2.1832752468142935 0.4832807481452129 -0.9455967211133005 0.6484193617604962
Ni 3.0670910378138183 4.370966822917385 1.2303880282638038 -0.2772294554759677 -0.7956834090882038 1.4166544448297604
Ni 5.551084207713298 9.089412757675111 11.482908651310257 -0.7295808610321758 0.3344940935253917 -0.2940622107625903
Ni 2.944419388031197 0.49494460011003333 8.213233262821745 0.6801038373479706 1.873712511833018 -1.9242681132933828
Ni 3.645954326096131 8.339723529104397 3.72861013521001 -1.2384672255606348 1.412237032488355 -0.3224993830573607
Ni 8.9237301453026 2.652036654102235 13.19427934599912 -0.25794746731790413 0.5497671619032208 0.34330732094164745
Ni 5.9466988729814 6.428363569046309 9.88856880906675 -0.11396620450652631 -0.18035363079282488 -0.13900334998081224
Ni 5.587452876145872 4.245109869871736 7.563855791981097 -0.5397881963136381 -1.2546338080181683 1.0362543328008733
Ni 2.213701450953519 8.728592846286087 9.879848572957261 -0.7533959611739025 0.12120051747143643 2.547464695931348
Ni 0.3618710614658231 8.339114574068818 11.473872695436167 -0.6739090213911684 0.9969604202972573 -0.8773185055621923
Ni 7.668655079896427 7.492966867862404 11.159858941789539 -1.1160636889200326 -1.0689803622789846 -0.11745390594481063
Ni 8.053064972509876 3.994145446901149 6.981145781581727 -1.2559317008939852 -0.7329212382593184 -0.9710308449156889
Ni 5.513778685379832 9.318023846570448 7.232455903641742 0.39887554512525497 -2.0642520820199093 0.5200529226682398
Ni 6.060432936549525 8.197331104708027 3.311140542141931 -0.07566010983747615 -0.6422415150845584 -0.7215924435100605
Ni 2.0627742875200354 9.242794478328927 12.884516098500834 0.8758334363762335 1.8147134075909908 -0.031111376692823833
Ni 4.543694576624594 8.286819389321103 9.549160693582584 -1.4628772232427258 0.1432443846453533 -1.4245341046881532
Ni 7.211451639183774 1.1952663123733143 1.9760085003429493 -0.7634518027480077 0.022878190149754146 -0.8523415239018806
Ni 8.573224995362382 8.448286159139606 2.544115768989137 -1.0031110132796852 0.9948839973842027 -0.44804917863642835
Ni 6.960683955532374 5.404269832904724 2.8224513155281445 -1.6703971300376972 2.0659523525404677 -0.6183798779756124
Ni 5.361296344470871 7.075064448292113 12.862398851608608 3.1122609842535494 -1.0130763520225132 1.27341648794231
Ni 7.635378029336791 0.5805233933946912 10.953208645184983 0.5947725229693176 -0.871521439264441 0.0004404299715282738
Ni 2.2936712999335445 2.2514941373154476 10.34980634267664 -0.2821073523935593 -0.6844770267150019 -0.9333819242146635
P 1.3876773665382354 5.70818523835365 1.5983982933421632 -0.14433556082700305 0.9102234838203291 1.2504035719869047
P 5.987002327797716 3.4358648388214035 9.56332498771015 1.2585295435281487 0.8687569891454264 -1.2730639896988978
P 0.2313036070064954 7.956091225228686 9.018829247928108 0.5273191173123498 0.5554251315199467 -0.1551107970656361
P 4.266423296116998 6.317749228968149 8.488223304080673 2.3431247295262545 -0.7965601552662024 -0.2285358469250064
P 6.708098775313246 7.566819060869613 1.228457172374068 -0.8437805217057469 -0.015368769146586435 1.6275988039252485
P 8.211983499717958 3.3658162726518097 1.5634742536247617 0.5096723507648642 0.05303697312132156 0.5622727505693994
P 3.626102391936258 7.7596235936729085 12.283527131641188 -2.7188875998934465 1.092030559230229 -0.7026421276598028
P -0.02064825997562986 3.2217281426948285 8.88079225731698 0.19054548372416216 -0.5455397540854346 -0.3831987578199465
Ni 4.518483838151626 2.5625108953331246 13.227928327557409 0.42556025350529286 0.262442012754148 0.22710399957448626
Ni 0.19980845256635363 0.8214260054697122 9.384989226552209 0.8078933208908344 -0.8608781006179818 1.4480779534463641
Ni 0.3685311558472547 4.678076900168348 10.85717081495078 0.4164418361437925 0.6272833511128294 0.5665022152697147
Ni 7.06027152519705 3.330328246886072 3.4356709100639193 0.617267361637724 -2.499947624186991 -0.019525728737753465
Ni 2.4378062725855703 2.6680006445734112 12.686338708575931 -2.049876530024528 -1.2392647817612659 0.4479172810442544
Ni 9.060426497981554 3.022393738202325 4.910251781302671 0.005846431478447996 0.25928084141734703 0.786796133900903
Ni 7.441908330263864 1.729760199909446 8.662897840193933 1.0214193246705698 0.5054986790031487 -1.283977808397924
Ni 1.1508032262370442 4.579126391156278 13.480567845302788 -1.1019619594113281 0.751359647470164 -0.9631419290859154
Ni 1.2657739369543444 2.5303299638375307 1.1886671134954405 1.6397212982203953 0.3209130124068473 -0.577393922481554
Ni 4.487829978514484 0.24107218263108218 -0.012849888104616115 -0.7677949102080519 0.1500845474956383 0.4878074323709728
Ni 7.279898185182844 0.5486328866083736 4.226869324421394 0.5580196317200002 3.6092176872239583 0.2146297783668755
Ni 5.498573546568377 3.939723603798411 4.965154230456566 -0.7624860964006288 0.5276924414913685 0.7228556264932002
Ni 5.197112698339785 1.9803311442416587 6.4727254749612815 1.2972835243678948 2.0628438888184735 0.991193435906493
Ni 7.659689388064904 4.509030982291639 12.618959239169975 3.6401688841898334 4.408346631658602 -4.436017358100993
Ni 6.431370870068168 3.6550980201688237 0.162280895858377 -2.427558214680987 -0.6788257419664955 4.707624068073544
Ni 2.3053351309996333 6.7693596518924855 8.644168257007326 -2.6014552912151907 2.087263455313418 0.4325968486371002
Ni 9.17980042203304 0.5939812996809855 0.6432682465529415 -0.6736279998156398 -0.09655160857450468 -1.3370111819748198
Ni 5.7476829988152 6.182336366133416 6.53356476728512 0.3271569364340301 1.8692457343109163 -0.9900554656473077
Ni 2.1130927105368724 3.4952239019818347 6.272656577010482 -2.2879935928800657 0.25624668257671357 -3.8321752687302393
Ni 2.5485049295148094 4.690930535688568 9.5028969742488 -1.957763931057983 -3.367825296051258 -4.074447234294415
Ni 0.9410884805226728 5.2548603727906835 5.604987970608843 -1.2103326721079477 0.28309105646306726 -0.7589264040738284
Ni 3.6569248852755605 1.321900854156703 5.053595112408445 -1.9905174713399203 -0.9552555843593032 0.1453858564683883
Ni 6.437282418182787 2.6239497741535334 11.472502078179165 -1.2723908748912731 -0.2236587213383632 1.309310373625442
Ni 4.297133366988193 3.635948726434619 10.89890952994326 0.6149047749428185 -1.1702039224078622 0.02316975324824397
P 5.456059116545959 4.981870514610158 12.130023619980253 1.93416377514054 -0.3245657786680862 -0.6392479796738733
P 3.411684639639416 4.610970055247551 4.656596713928727 -1.2051089618151631 -0.2620013256723036 0.3281303560908929
P 1.2490510948234463 8.6720162392113 3.8769440870458283 0.8778813200441977 1.0372362370981685 1.3369402195275686
P 5.313619849454546 1.5563298057765695 3.8678940783632245 1.5802362554808849 1.2070524586947793 -0.950784435961827
P 6.626864173567019 8.7523795668297 9.25553569138104 0.16595442464835933 -0.045954355242927306 0.22417165641903974
P 2.989247847188814 1.2055248625880666 1.5768853172160113 0.42465985317821053 0.6961236098149945 -0.34723519524114393
P 9.015429405121777 6.519725561461164 12.695073934347837 -0.8247049931315346 -1.0199885057613145 -1.8808360102516768
P 4.932985478061684 5.853350750296656 1.5530948492567942 -0.25402782054852374 -0.39506774134339057 0.8808100636552186
Ni 4.618268147135489 6.225337960184296 3.997430056677672 0.7045465437713673 -0.31496065147815433 -0.37634599656417117
Ni 1.8538558676214212 6.6604972286089925 11.482525478064792 -3.7185271096847634 0.607479943233657 1.7663090481456742
Ni 0.6764553591380917 7.147661257072129 6.924282497213268 1.3741078297168012 -0.05676121605044418 -0.7852717268365766
Ni 9.250767105025508 7.122778417464474 4.244914067406449 -0.9106212334793802 0.8023135128102118 2.0461191198646245
Ni 1.4155487700897322 8.99964341689177 1.8302930551601206 2.172896874313522 0.05432355314322902 -0.04162307485742509
Ni 1.2161768914411937 7.37297462023633 0.08095729299156437 -0.6078740933482821 -1.3551798824640469 0.8610475363163106
Ni 2.3733975668993383 2.9022796995691356 3.6773820270554087 0.014143895600549836 0.339033633266958 -0.5208144834246128
Ni 8.546309182789795 2.7082385196166645 10.783346727560597 1.2353276514903888 -0.007059477949942682 -0.1310871804575291
Ni 6.928484286958763 8.951348598300857 13.400107084878696 1.3054390635954936 0.36842674171709455 -0.34147875237334097
Ni 8.493901575573972 6.4978406543363585 1.1063776142568096 1.0405316200199886 -1.3912504029343586 -0.00179180179310014
Ni 8.948997095009622 9.215522661274 6.910721536997875 -1.4910014922827677 -1.42280426648124 0.19660505965468078
Ni 1.1677602818431647 1.1779907264408906 5.1247725875286125 0.27398986549274745 -1.0144462357868465 -0.9635648755559469
Ni 8.024959355483157 7.002205320419847 7.711559241141615 -3.0882890468189843 0.25346089230146024 1.0559435836996847
Ni 3.4252409155853036 7.575934649325279 0.8182275862520715 0.5877125307987427 -0.6447748230293734 1.2259858052641726
Ni 3.08412304173201 5.869633271094136 6.748497789227453 0.6850856068332781 -1.4238949284422573 -2.080342045603236
Ni 2.545919212748351 8.156072058912804 6.173314463067839 0.9776799748010906 1.316674270189681 -0.9262275725580693
Ni 9.228320085560167 5.161783937737198 3.282619898837117 0.6718104869909269 -2.249120569963952 -1.222719732918391
Ni -0.007093857737543979 1.9119782836326769 2.8680020890433484 -0.8097537711383409 -0.8844358333332638 1.262469244902187
Ni 7.845270777292332 5.248246184250396 9.496082298973723 -1.7075927652513883 -1.4881437111189983 1.140269596742275
Ni 0.630155102502175 1.62109451594514 7.320375894824726 1.455901563255841 3.9644878369544365 0.22220527672128826
Ni 2.0240915899522607 6.534977542967663 3.6346699208599036 0.8919300848277801 -1.0962908771684798 -0.3674594927078188
Ni 3.588169177489196 5.408129670976394 13.076330376730889 0.1684928747994969 0.8242969590598385 0.2684105716327571
Ni 0.14212261047291294 5.20563806883789 8.161101090652785 3.865664658736936 0.5518692958478882 -0.4054331437381147
Ni 7.371129018051576 8.203092756198506 5.438389115121261 -0.950250417835228 -2.33871528760465 1.6392315030681706
P 3.21614449344552 2.8646931210654025 7.63704937669598 3.252065489979419 -2.633487894170703 4.288921975140665
P 2.4533299417233287 4.440134746420141 11.551275564727751 -2.6804856030764803 -0.5176348001450505 0.4986497744021155
P 6.403686837296848 1.5952186112025404 -0.006287226528877132 -0.3136159645248018 -0.9860363171855858 -0.48557597193729274
P 0.2532100617710214 1.0314199336465488 12.020316154478158 0.15403941837832827 0.17014532280125536 -0.23465815777266036
P 3.6430500790033697 0.862166034203843 11.501831226400446 -0.08472941912859602 0.9160966547716545 -0.4178330600643643
P 7.697097964327467 1.7064887490113225 6.328354415126232 0.47051676361132516 -0.04018299997678886 -0.42901144527868695
P 7.909276635801181 5.949668699847223 5.465388307691028 -0.11038800023696473 -0.8044117901001372 0.896598951058359
P 4.9192230942576005 8.200806832680332 5.452197404766488 0.3301504718447153 -0.7616324901510818 0.031021130971862702
