# total energy = -381173.64169374114 ev
CRYSTAL
PRIMVEC
9.24770773733897 0.00000000000000 0.00000000000000
0.00000000000000 9.24770773733897 0.00000000000000
0.00000000000000 0.00000000000000 13.53495504621375
PRIMCOORD
 96 1
Ni 0.7067560642974032 2.656931168663317 9.272946587479014 -0.822344463319158 0.33556521510238335 0.7397822270452097
Ni 2.298027631137871 4.379205763398283 5.689228644177068 0.2737168143370189 -1.5911320764577823 0.33331961360131623
Ni 5.635895264078724 1.7388927255500453 12.846946114713308 -0.6696091084642339 0.7807460710520813 0.6738429440399234
Ni 7.624281896840803 6.2819216316245265 10.88108874755596 -0.685231131272207 -1.1951641918976257 -0.04833905342501997
Ni 5.472210837018677 6.963634903352517 11.30619477527561 0.12260742512129208 0.6869198318285396 1.2606681871377063
Ni 2.847156516947224 4.274688170481185 1.1010061903600756 1.6987515128106745 -1.9250057627903554 3.1670877022854422
Ni 8.173364544111438 1.5730350871702752 12.659406300758116 -0.9878710564014794 0.6617451323351248 -1.5965283077726893
Ni 4.025628905533096 -0.03306055518303194 10.686225673838683 -0.650896362546079 0.11083974306240266 0.29694107497228217
Ni 7.719172625996912 8.819409407072728 1.0772109135652619 -1.1248990278234758 -1.135651124133657 -1.3734108036497767
Ni 5.367138381636969 4.658144372065638 9.605635647863943 0.42865894703527474 -0.5407251063056107 -0.2855929969493146
Ni 0.2711927286613944 2.5779002582873196 6.8612202391762915 0.09947572419983514 -0.3782149314521099 0.717416714865816
Ni 4.61976638493009 5.681514206377436 2.2702040528499863 -0.17745599753005564 -2.066455003208499 0.09972949208185405
Ni 2.3725271647195507 6.721936813768259 1.5509025482277434 0.8962443959324178 -0.6301745566176953 0.055237066096433904
Ni 1.9932879178661365 6.611186265832038 5.874075525637353 -1.876129605914943 1.6759165171940296 -0.507346787955481
Ni 1.9036776298315687 8.998898166666425 2.3434283275338363 0.7049399225550439 -0.15240162566458912 -0.5087968901384463
Ni 3.0152336051854354 3.028050928117934 12.303125413148727 2.020393432963746 0.08295998593299907 0.1006409481525299
Ni 5.438891346018828 1.7691049867480775 9.57596715188123 0.001362170454849267 1.553009815664764 0.5745824211746879
Ni 8.642204831291677 6.122657608865876 13.225640671580631 -0.8686209777881944 -0.3370667393485743 0.1243694021177213
Ni 0.23899036075695976 4.959730616996837 1.4771234110792828 -0.015160252680206147 -0.899133801665071 0.1875403783492512
Ni 0.9655901563303769 2.072161617210494 4.652992474081731 -0.14823438166077696 1.4807798145547595 -2.268672781064267
Ni 8.21038311820869 0.7825068127367792 7.6630445886184795 -0.2731162046385425 0.09821022722385021 0.2791384995732225
Ni 1.253101390075961 7.091391985829046 9.028844093881444 0.8195792418691948 -0.4461321641193736 -0.5429611947249811
Ni 0.11599954685143482 7.207959341935931 2.318673138675247 -0.37551218780896617 -0.3795573044126173 -1.2591234683584058
Ni 1.487586267620285 4.389156296930295 3.4758443572447284 -0.8565041399200024 0.20103249929841507 -0.09791377902935396
P 7.54726698675289 6.305900937803437 8.331332963015223 -0.07395701110344036 -0.32202578585505187 -0.19219278951959803
Ni 8.059146105771402 6.46118844623238 5.361330821174048 -0.06340520372952306 0.21966091303287974 0.005132179020242773
P 1.6753794687676498 4.724478179709802 9.57868782749937 0.23865802296067284 0.029411363282581607 -0.8240917850275679
Ni 6.924137943580005 4.704493883276086 1.681474632941394 1.136346864649101 0.06070348852764384 -0.04791430718277554
P 8.01825274212962 3.7882772385882855 13.259626922308787 0.05452795584455125 0.13934633514252776 0.6740969690322585
P 5.669279489032779 7.395105203541251 5.201212310219897 1.4425336265893671 2.1036802061085447 -0.6671002259994512
P 1.6217705069785489 2.5381258672825027 2.300847257228866 0.058758706096447184 -0.7855046687829891 0.08149882800644029
Ni 0.07076900827794971 4.129378938707483 11.481796723304715 0.7192424552206451 -0.9396836980629751 0.3505218364122157
Ni 6.163920880817398 6.818270185332355 0.9349293813067845 -0.34669732045980295 1.3664523700540725 -0.571965552377131
Ni 6.171198826811536 3.4737442028161785 3.5141890526324 -0.31765388203960127 -2.9082465195086753 -0.5379218325288606
Ni 5.157289397521344 3.335232036233954 7.567339136410168 -0.4955842481029142 0.48456192885048155 -0.6733701181685628
Ni 2.9057222500868436 1.659334695832668 0.7233427529061545 0.8370092644201842 -0.6457680401805782 0.663885061496263
Ni 3.23937954547252 1.9667654920577626 5.496708014831223 0.13546036982456028 0.10238055655145593 0.9363659465436519
Ni 3.193085520508532 5.090474709074517 11.110330174809715 0.5610856722398337 -0.44624554976878633 -0.9187644314118049
Ni 4.373231744195978 8.211881246863138 6.87840987832992 -0.32101894185709223 0.49822785637334843 -0.4872122219891351
Ni 8.513883638642795 2.992123583534415 3.0013897866934074 1.3860331203994776 0.056133866879090416 0.7877135035088498
Ni 8.651739217975232 1.0281046606764737 10.278255648567747 -0.8907286083205112 0.30931579448755114 -0.19084861678687776
Ni 7.147803003064428 7.347377783877019 3.1420048820165056 -0.517797808085476 0.2774035191599868 0.18919642589543545
Ni 8.308214618427234 8.05151674688301 9.601521342688859 -0.20549259195229772 0.3042476359360244 -0.9508227453989303
Ni 8.920098448984016 0.5849933459802158 2.541012076869251 0.6104655082245423 0.5432525007131548 2.1482531076229128
Ni 3.0255355516117004 7.334662185729699 11.807285518440551 -0.273157085178807 -0.6282192326635374 -0.27364430922787064
Ni 5.234054619500182 0.6421312330442385 1.5812886663313537 1.0379111516780062 -0.31865172717649637 -0.14144281266024028
Ni 1.174135213654168 8.72824550413725 10.752737037471523 0.4086259396437995 0.305120525459281 1.1725747366328838
Ni 3.6285323350269727 1.0848393476828795 8.231282937709013 0.13195647043635986 0.40615793771928116 -1.9124227839190222
Ni 6.425963927437368 9.700290560472595 11.129779953735854 0.8971165141247259 -1.623942438119584 -0.09962484818318972
Ni 5.285878773694787 0.6786670767972797 5.043706276703286 -0.006149821651479731 -1.2551703972479287 -0.7821516931503562
Ni 6.818714075304044 8.044941626677378 7.416410997411512 2.1966150438660685 -0.0016503911192294156 -2.746443140914212
Ni 9.43034997143967 7.974770020319658 6.709737237713027 -0.08666777380188945 0.6260564206842637 0.5893503235124818
Ni 5.834545274116964 1.1016609280683158 7.329123733562114 0.4345997379997419 -0.27421149458525035 -0.2851281414977542
Ni 5.460530982138631 6.1032929088509755 7.0414654612634076 0.9661159241125747 -1.7338182746068205 0.9262106032772048
Ni 4.0049417833108745 6.073062152237457 5.121992746605931 -1.3377575732225413 0.13477311394954852 -0.9016434554608019
Ni 3.1635298465602886 5.690428996642176 7.718091568961697 -0.6092288076039637 -0.9572569310600482 -0.37919349331529534
P 4.094024952004062 5.91043196386017 0.1304638865330517 -0.14889669783512421 0.6197549039462681 -0.4261413228197435
Ni 3.6194048474841325 1.1885801331495236 3.191027905535602 -0.22975017894808172 0.5900738319420676 -0.14475387931134426
P 7.0272221417968606 1.3126658756518794 3.564024024891376 -0.9644079402825327 0.8276635615392263 -0.9644272235562424
Ni 0.5686498720851186 0.7509980229131076 0.39385062508815316 0.9795077720384485 0.207546646267849 0.20337091762360457
P 1.4140669910594166 0.4801141676903462 5.75534698023081 0.02941804815080095 -1.7873707539119796 2.270339627243729
P 8.339601338508691 5.082688139154485 3.4277682989985667 -0.6735220703653949 1.8533120937997956 0.18483917736800426
P 6.227443385307536 8.454716804499848 12.98930717725838 -0.8611377820372716 0.9095889355601239 -0.07781160896284017
Ni 3.743259397292901 8.348395908572765 0.25023002474841627 0.8305095156284535 0.5304113830844285 0.667855873218553
Ni 1.131142620354611 1.8700159736452089 11.661054290204822 -0.9687441057640412 -1.0813823354877634 -1.549978742147924
Ni 1.2183669997913547 7.8606255636415705 13.439452298464348 -0.4127957547507729 -0.34740205983631134 -0.8319894426080897
Ni 6.030263760800514 5.4430620622111485 4.2851528765637354 1.8797252936860014 1.534426396235622 0.18242645416145356
Ni 3.076980549788821 8.6307099305665 4.889178005080085 0.03920572366518409 0.18874956816600397 -0.8863752164478218
Ni 7.033917482203158 3.8434583106937823 11.106446137557443 0.5486893554580099 -1.3639643135248962 -0.5341901334005703
Ni 8.222562349306887 8.205750016629194 12.190473536500443 0.681978171552548 0.7832786076659477 -0.7112044154075171
Ni 6.853587181204802 2.3875084512640297 5.578878521986141 0.7881408208542555 0.43049702868527795 0.5998131707170186
Ni 2.972832865181463 2.1415841592409897 10.044682595006933 0.1453873991302851 0.9159297901764871 1.1134779304707276
Ni 4.464728564610222 7.812537483375342 2.873254472970171 -0.2281445250238587 1.3801766616187006 0.7213229918987577
Ni 7.43916128323131 2.940650842234064 8.72617494237348 -0.37685661765200257 -1.4347917778604196 -0.035851462480970514
Ni 7.491438575105347 2.0975280795509295 1.2443697044245432 -1.6834963864238168 -0.08677730279656022 -0.4691453371850952
Ni 8.713107006561133 4.772982406824488 9.253334048896587 -0.3846681432766214 0.3310547288265396 0.8629938614094039
Ni 0.5516784788342374 8.343910770317164 4.232191254316679 0.9106564575926898 -0.3418052824748242 1.5078388755550804
Ni 1.1767615626533237 0.32885865983757123 8.48384523435034 0.4562335142194336 0.18045133271295374 -0.6399588896979688
Ni 8.913541824193869 4.025443951378226 5.244497131084149 0.343078492760293 1.033950110147729 -0.7952350086968756
Ni 0.7177534383459797 5.339644946515527 7.406300478535538 -0.3896568547404644 -0.44544105158962 -1.2779318593141604
Ni 1.887531132111408 5.2429601620571775 13.078285846854067 -1.334233876339999 3.1641599871156862 -2.2735938725149683
Ni 1.1111305807976655 3.171973003730109 -0.06874838413599378 -2.513359526717523 -0.43362323301908545 2.2058810425490267
Ni 2.400612453136577 3.1879345472953995 7.861264580246647 0.9803292394984795 0.5483684817834814 -0.4275261189824121
Ni 7.436007814890775 4.431871458997547 6.905750726273594 -0.4324400113442617 0.7940456163744648 1.0002043811558516
Ni 4.145821363075436 6.573501856777254 9.507304771427252 -0.7041878748803679 1.9263540492881341 0.08806953924542252
Ni 3.688716417021706 3.7129916498484077 3.609907451631553 0.8660714718934632 -0.09776619770789614 0.38075312449293136
Ni 5.046233675229587 3.1026984250235095 1.4892915449281874 -0.6016167995846606 -0.0900469746867675 -0.5204344743773748
Ni 5.515813779029306 8.645691217110977 8.964227585565249 -0.6966928520549033 0.09954720086771889 2.118798549807222
P 3.161717295842561 8.373827104867404 8.667623080795476 -1.1135424651600758 -1.3102472836174146 0.9703988677586449
Ni 7.767787825604519 -0.05822356795311025 4.920835682998428 -0.3798236707001265 -0.7639644807183681 1.4453057900178656
P 2.6300758253761773 0.5555440206710227 12.324700315314326 0.33300542479500717 -1.1569141472774915 0.2988668312400853
Ni 0.6751825405195269 6.270935354825243 11.24714168793791 1.4575141591585996 1.6970013628887872 -0.5529653571255445
P 1.9003207119206762 6.556208643296898 3.5974424663640816 0.4356590325021917 0.8928353702508689 1.3185429479673034
P 4.947375679451514 3.5211017141706695 11.43791635006178 -0.3237250279343457 -0.6525205284130634 -0.32340261159792044
P 4.898714241305188 4.124819818789936 5.54845171396846 -0.4417947130862843 -1.3881671360233447 0.39912005703589326
Ni 6.107796542522063 4.939709329732148 12.945765270118859 -1.083526892634592 0.22560530354177277 -0.15981385896826025
