# total energy = -340863.6401381731 ev
CRYSTAL
PRIMVEC
9.34201932408693 0.00000000000000 0.00000000000000

0.00000000000000 9.34201932408693 0.00000000000000

0.00000000000000 0.00000000000000 13.67298958658626

PRIMCOORD
 96 1
Ni 1.5762695733071288 1.0511920369185976 1.4219366119791665 0.8859260447255453 0.2212547398825609 -0.2105376105753729
Ni 7.892100530742014 6.402590290609996 7.018933750280635 -0.05434463618915156 0.32563587180381337 0.3626633568707561
Ni 1.7001821172109375 4.640685451929481 0.7575518180937109 0.33560943807675747 0.5352414574832202 0.19406275284880128
Ni 9.396856946360387 5.498217428901913 2.567828698472019 0.059764778763458364 -0.481001722303049 -2.515882807360009
Ni 8.387666628183611 1.4060299557287883 12.270537751277246 -0.8094323832431802 0.9034054324572313 0.11753618124597176
Ni 3.215588434823456 6.727785982203149 0.48985718945157786 0.33954862523016366 -0.3705589575687489 0.6023446788896207
Ni 5.498320191114137 4.617591980236914 7.873263283039386 -1.3506159172424481 -0.42109656130698453 1.6933655659084126
Ni 6.271512417908371 0.9545675313699628 11.411955731336269 -0.9603463686186493 -1.005979850187048 0.7872463340644441
Ni 8.585399808541574 0.3819335115679265 0.9136933943568192 -0.8792553175735889 0.9035923516570566 0.20919935137992357
Ni 4.991954719369705 1.983450826216614 9.017705488137949 1.26519461425315 0.08510402885919537 -0.8537723428111361
Ni 6.755251518924892 0.8240754032780166 5.75213071068285 -0.022300720379729334 -3.504472744205384 0.06437656650385687
Ni 4.908399698812129 7.420655527115226 2.9351120553844905 1.0330921330228078 1.1567745363758337 -0.9979958035403071
Ni 1.920494958200347 0.8442719147877907 6.563951253052164 -0.20522391167194332 1.0286652075997058 -0.01647768594004904
Ni 6.893233143884125 4.028615031883511 3.4751956773635437 0.06883280250299759 -1.3759196861145595 0.524078241777549
Ni 3.1566029250067604 7.740049824727358 12.129951571339094 4.025410897692055 1.4352813159023283 1.3627214422567306
Ni 4.171930949859109 0.5504345793558193 2.1543574639724823 -1.6996922794573888 1.026484655008619 -0.8015876903877808
Ni 7.4622461970081515 8.782525757645484 3.739562678733471 0.671179024054515 -1.7126724937671405 0.30042671952803746
Ni 4.231906713720875 5.1160914717365475 12.220302910932407 -0.6029296048588132 1.2493594469931064 0.8790239182890732
Ni 2.6817574263572808 8.31265021325994 2.7728271672342326 -0.04213369594525647 -1.3286458407292603 1.3701395890976726
Ni 4.774734086766315 2.722329816147257 11.295570986578849 -0.6110725456809218 0.12503428939522981 -0.051853237225865545
Ni 3.2819915079588804 5.971997937351977 8.228473014217444 -0.362799111117672 0.4801825688358633 -0.1826470548126919
Ni 8.08585401088111 6.681047859679721 10.979656591153399 -0.25491407980821906 -0.9495636761808485 -0.8710766384175385
Ni 0.9582949970679135 0.3437293236687538 8.811626147743521 0.2410805163592364 -0.20654828691032168 1.0444939471018462
Ni 4.021141416449024 0.8156255468273987 12.612539735578704 -1.6141784167542845 0.9099835998953811 -0.11462209292297033
P 2.9306568463836062 2.84258963050746 1.2730547189087338 1.1352955405664513 0.10563968691870193 0.434086031588117
P 2.0919396962674983 1.923652560721418 11.984115176558216 -0.2520277593993595 0.2807143287007746 0.0965598361046208
P 5.771695701688409 2.1992981819839166 4.368041421465859 -0.7873255240418118 1.1242950756908896 0.18229687056212476
P 2.9648206109385087 6.208920888644536 10.608174930770604 -0.004826989074998138 -0.5835013209308725 -0.5993125769315162
P 2.0100942652405633 5.864078930477973 6.415244055742513 -0.04698613894155134 -0.6646553640033843 -0.25085996434350344
P 8.734816065115572 3.2682400555594233 1.5647508635187244 -1.67936796607774 1.144990656367028 2.8874031004007628
P 7.281683648110924 1.220843107281472 7.768390708656865 -1.0847149994054224 0.49399839167303317 1.1620098166328439
P 6.342633210786817 8.213839675196716 10.957438466668597 0.7956566696153266 -1.068237313465373 0.11731506637410119
Ni 7.647974882574467 7.247566593652487 1.7017403660290285 -0.22944961698852742 0.0910928994527786 -1.3306777835576244
Ni 0.2665689153173132 4.82635808538004 12.378609033065727 -1.862385002635341 -1.3384903376235078 -0.09405840983900575
Ni 4.389665393523621 1.1855022482956379 6.854734682377218 -0.7839504369219917 -1.1337726761640217 -0.3153200917001021
Ni 6.0964616603940796 7.386304922174461 5.116213852189287 0.2249818110251609 -0.3719172713688563 0.5800475580543171
Ni 6.3106181106693295 5.063402482923409 5.989917798760021 0.6745242863776642 0.04751270086898269 -3.462246231436005
Ni 6.21361992434897 9.356499423014151 1.683240365222883 1.5629985514463598 -0.963697030258437 0.4481923890825119
Ni 2.4071020591398518 1.3160663099361407 3.854046322564744 -1.1418302563611753 -0.5309186617381502 0.07276787589134565
Ni 4.296441382997678 4.3203382683494524 9.637105656521292 -2.179782288579446 -0.5079512543086994 1.3889906603659046
Ni 4.850367074963331 0.21677875509082573 4.44880784926444 -0.9000861382760111 -0.7014771608174243 -0.22871865235977382
Ni 7.977299746695175 2.5360312674040606 5.174351106654168 1.5245836991135873 2.240556739554341 0.7248716284819645
Ni 5.223319169182862 6.554995993357789 9.811190449240677 0.2697622005646451 0.26681983010686955 -0.13649935261203588
Ni 1.4420340980844337 7.826229952706296 7.654317179472559 0.8527832394249895 -1.6281909289832925 -1.199565920509747
Ni 1.7993663360458847 8.58553993883097 10.602528614309849 -0.7419296124055157 -0.1798250119828645 -1.1154108858273821
Ni 4.274338165350179 8.692889082528096 10.353296618396689 -0.08123734681493751 1.721264606311526 -0.8721194778597561
Ni 6.332730670336121 8.691740014155043 8.713495708684837 -0.9649345022099639 0.017854768793233767 0.3611718599268941
Ni 5.603586064508898 2.3213049539519313 2.0808516535685064 -1.0743066595879047 2.064914912414889 -1.553445874760918
Ni 6.965811291772294 5.25569860805278 13.106340191373903 1.2656502137333299 -0.12597916980700238 -0.148496377072912
Ni 1.1740209065844058 3.7347618150187416 7.18813640371744 0.9667432732839286 0.6318522014304344 -0.8388098079640328
Ni 1.2009352641678552 6.728084926820528 4.394129944543797 -0.37515583291081195 1.8674318210306289 -0.039180783964519614
Ni 7.38843490257329 1.5379766362246716 3.04360746484888 2.9560903784648316 0.731192942714302 0.06701528967828459
Ni 3.484535828252795 6.675844354933458 5.015238768255851 -0.5205969680971679 0.17777764253553255 -0.979988825439925
Ni 2.962896154964128 1.7068056088897525 9.969797384395237 -0.9784075969957343 -0.9598995108892179 0.7082365910284447
Ni 5.178337346286538 3.3629868152301428 13.47403366293334 0.06817177188023098 -0.45568818323892496 1.0665442420336664
Ni 0.7045937791249298 7.858030186380042 1.8025099255380161 -0.44421952047769303 -1.7260021209965113 -1.5563789892473132
P 0.32273687211520674 0.17904447076209648 2.8825940255244147 -1.9493605374856366 0.928304509691756 0.7082561314124706
P 2.820766673438755 3.279394426595396 8.537387434586565 -0.22228266692644297 0.07614656255559143 -0.6976739850212501
P 7.968546274617532 3.639688084672763 11.445317950635822 0.2757207321409252 0.22433055059440718 -0.5853633138402757
P 8.42950953259745 4.316629486690087 6.863594653474803 -0.7399092395413773 -0.447220769197862 -0.09378124491821913
P 6.809780885538774 6.184444798096588 3.2980887414028386 -0.17131286074679528 0.05877618959794394 1.2214501221773482
P 0.7740946658579496 2.4235346710764323 4.855879800548196 0.5690697188865748 1.085662450920356 0.7556173943052535
P 3.0709366080889433 9.418250170541608 8.34560979152796 1.0085254994270374 -0.28964659819339794 0.5897802119610487
P 6.395481013927939 1.4620914135067407 13.768290455031574 0.1967986637227256 -0.12321420546735555 -1.0592705911903886
Ni 1.3105825446110853 6.807473406773376 12.319240500458015 -2.4654611603743475 -0.2777485612042313 -0.0026001566270084254
Ni 2.2110971523511145 4.025681637825476 11.30856013020399 1.0379108945676898 0.33212970705827316 -0.23341142984975283
Ni 8.610296289957711 5.176954727431158 4.575624826966477 -0.3369726369728713 0.5024727476926314 2.5008068868634927
Ni 6.043669909368716 4.686685554928754 10.962114147324797 2.734260225694775 -0.8555453755511588 0.4975840521417624
Ni 8.555925737671812 9.056835470149068 10.500076557126173 -0.3188057362558574 0.2522290767768882 -0.3787561486675606
Ni 1.913693968154963 4.618582234281984 4.192672101093672 1.2285432815787036 0.48448685263817204 1.5006909516563895
Ni 0.4047457884797714 2.6259482031002426 13.686936414219455 1.8121289346932663 -0.31252607389473275 -2.0941671244117868
Ni 8.330624258379883 8.129957683963882 12.79105451384688 -0.46526888494882457 -0.36883040491341645 0.7490369128742584
Ni 4.046962757775179 7.959157545227956 6.6548761926300735 -0.23267403746309603 2.084717291852797 1.5861346232431908
Ni 0.9844152830114485 0.13325362899498933 12.661243418961401 1.166890798874229 -0.11509363324275017 0.7294332797107179
Ni 9.251093419329994 2.0148213270028767 8.135729183483166 -1.8194974592431952 1.883901793661194 -1.5415257262845645
Ni 3.8036498652861335 3.0323260423505203 3.6180921386728806 0.7334431722010594 0.2721682389029764 -0.290500461553261
Ni 7.344433991702743 2.169132801686465 9.862149296080734 0.5645186091807827 -0.08808059498901605 -0.6389988397775446
Ni 7.466384711554999 4.351026801727318 8.936132844074372 1.511794517768719 0.42911248963292553 -0.08714419921767573
Ni 0.4921936284767846 5.031387382805922 9.656425886621372 -0.04498042136543221 0.8661740589095986 0.029433988990400922
Ni 5.564386951555009 8.622777227733305 13.27373796668328 0.7342666965436192 -0.36916182011090615 -1.2526481450467073
Ni 0.2160724984322666 0.14622502278347232 5.019901370085042 0.14848172178489266 1.1027631151563846 0.15247438788405354
Ni 5.9220181341338405 4.931539880601163 1.6479508873431605 -0.5083117229719116 1.0239374631067333 -1.4532700391702649
Ni 0.5820638540765012 2.642838573982185 10.260785403942808 -0.46538766991487596 -0.678174995756374 0.7884910051048227
Ni 8.257840586067264 8.637070517251765 7.424583846227979 1.987833239639538 0.5911454677396916 -0.4771810630053781
Ni 4.620908397085968 5.288928170678372 3.7131462507783444 0.7688513764970242 -1.9589962608031877 0.12787895793287654
Ni 5.917169626120716 2.7910403680480798 6.573850056695144 0.4698835009027004 0.6263397562526374 0.22796609046446545
Ni 3.8206149723224208 4.266743103664881 5.891130615745031 -0.20761632316351986 0.006920381268917114 0.6002014072943728
Ni 1.2487477189099914 3.1487089187040826 2.801376378193976 -0.8494462046319563 -0.8284878572127344 -1.919859442702726
P 5.452469560423554 6.592205256202246 0.06835088415803808 -0.6485137212465154 -1.3127649078329457 0.46986627451151974
P 5.491799461647546 6.683140472001377 7.575478944456076 0.8946364280153496 0.878791490563293 -0.32369571735830704
P 9.25333550396034 6.342212819918627 0.29595610540764883 -0.5834784381127371 -0.4346437038637998 0.01668620240642933
P 2.6562163456099186 8.952877479455342 4.988699959847985 1.096949336688085 -2.04117900225053 0.6313243539514224
P -0.02255910818900162 7.411621794458789 9.189247383205748 -0.4285463327168103 -0.4236182992875736 0.11927450409331715
P 8.793465262237715 7.568212721849896 5.31179276289826 -2.02384462473714 -1.196610694536165 0.9888275067774777
P 2.900089759256551 8.89194882962568 0.6482539291720429 0.6862783415897987 -0.0337819815464515 -1.8507260782401742
P 2.974265392443843 6.055310065407931 2.486214015321623 -0.7652343485697273 -0.6524295113611538 1.517714997018212
