# total energy = -340870.79949394916 ev
CRYSTAL
PRIMVEC
9.20696468786637 0.00000000000000 0.00000000000000
0.00000000000000 9.20696468786637 0.00000000000000
0.00000000000000 0.00000000000000 13.47532347494365
PRIMCOORD
 96 1
Ni 6.960750806752105 2.9694394951324687 7.03782507120497 -1.4854502234472353 0.04391007111938889 -0.5381136368246926
Ni 1.1031785226598343 0.9750636074302266 6.822556106456498 -0.8808339749146187 -1.0962024312197316 0.5561872064969519
Ni 4.090912256855273 4.773765215377323 8.3510356370335 -0.20241292458570947 2.5765605848560402 -1.551310316475154
Ni 5.865711240977859 5.333005464458285 6.629939957908597 0.8858561107195582 -0.06149101742594571 0.943132318733208
Ni 6.572419445303711 7.687659091855086 4.955968286733367 -2.6675025605532507 -0.5314092282213235 0.378301063408013
Ni 1.6730988509119324 5.41828957942572 0.22443541890604227 -0.20289294954592155 0.19840740297074216 -0.3081701109188822
Ni 7.78026274384067 2.895056426491434 3.4632255900380584 -0.2373321050603977 -2.3103945862830852 0.44757635276506785
Ni 7.109259149019699 8.149618550830693 9.310302854951729 0.21923899500411273 2.4963611923873135 -0.25189586180718554
Ni 4.906999203037233 8.498912381515627 9.979500963974889 -1.3161957878913655 -0.30322922197383906 0.2262910167548877
Ni 4.053798981735579 2.4983191061781733 8.001067856525006 4.370329271874564 0.9354218374628277 4.145828000030248
Ni 3.46636700642874 8.723387390370322 6.117149766953749 -0.8002211490575573 -0.18197239734317047 -0.6576570783086803
Ni 3.939080200293904 6.179171564650675 10.380284745318937 -0.4143422733022864 -0.055650499484768676 0.2490416801878421
Ni 6.553075612253234 3.4561472754977403 0.4830820776259671 0.7813284259181124 -1.0237479728037466 -0.4164531489977021
Ni 5.617086363445678 0.9993792014741644 13.87473207369944 0.010122433145982566 1.0930772553271884 -0.7061668529836096
Ni 2.404187098035341 8.792494868179407 3.648470642564916 1.321119707555544 0.3176968194623948 1.446479755721309
Ni 0.4062545598298147 7.71560223003129 2.972670219081737 2.750682632916856 -1.9733612712756077 -0.7655973883361009
Ni 9.447726932293348 0.4486590776216224 1.280117051541694 -1.906579951985 -0.8830512942809113 -1.1852255926276747
Ni 0.5120315370551052 1.3252873415602335 3.3863216544340435 -1.2800892719767953 0.03267717851804695 1.283165596909274
Ni 7.94575793616925 1.416905848311928 12.985630213846127 0.9752780502278172 0.9149759109036499 0.5247001916322641
Ni 0.6258959121630897 5.285543560900353 6.364624694582074 0.921084337794233 0.34648597577994517 1.786259780235988
Ni 8.691752259308235 6.938414710140748 0.9003647398964589 0.7732829299058166 -0.8211846386831019 -0.560812363973789
Ni 4.144100892520487 2.3156437175277493 2.1950361613982654 2.1797912874405103 -0.8369282746706039 -0.08177367893438174
Ni 4.5313550390869635 2.8119359482526343 12.136011501852725 -0.2666074569857472 -0.7769524083376038 -0.5123002753060145
Ni 6.276728563700113 0.6130494341738786 11.290528558448695 -0.7595064449470145 0.7787390679243814 0.22841731906927112
P 5.912206413231508 3.6943682828028694 8.74978375845967 -0.41989508479971555 0.6166204720823445 -0.4624951788584293
P 6.8746288579876245 8.529488711625403 7.059479852420926 1.5204331672803235 -1.1293922877081388 1.628319227031041
P 4.693913209643482 8.588118663489013 4.286311670863032 -1.8833281805459112 -1.1926090295759395 0.11285060284484437
P 8.031299846151162 6.156513224271224 11.783389353391614 0.3316262850592934 -0.27744337125898666 1.244496205363534
P 7.395337959369276 6.707411963240938 2.9033528224751493 0.2426100656298854 0.3531587598144305 -0.28136533202121217
P 6.650651025232277 2.80061138154531 11.949135895859307 -0.1350731616884706 0.13492429481543214 1.1118887316067367
P 0.6637669204860466 8.945579071953944 5.058515460705871 0.3618765993034026 -1.2542743677962205 -0.572365358918711
P 6.011853393291159 2.526851490101749 4.942142187689149 0.5036390000865907 -0.2573211465878149 -0.9835708863642286
Ni 0.5190260682157183 3.2422326552717466 1.5961249423754171 0.6302560605879081 -0.5696579872898769 1.224619521044265
Ni 6.007470878045073 4.425944499060821 3.8094875672134623 -0.29436405827372525 1.0769482109758097 0.7855877154150986
Ni 8.216056008846996 1.1012910948752803 5.509574794051557 -1.1230545184155691 -0.3492931062114371 -0.04569287405142453
Ni 8.622736851147176 6.923066699814643 5.075197560231887 2.0234335053416506 0.010162285244982498 -0.42822340215975285
Ni 7.269883856967649 2.6627831184488513 10.069597559444697 2.8193747960769313 1.7398922487150423 0.4191630917296975
Ni 1.5993142349830733 5.693089857891986 9.182611460103045 0.5928513946872048 -0.877210262119102 -0.8292468468659461
Ni 5.191696968666404 6.5247089536961065 2.3828149706388277 -0.15745384337651594 -0.3723353327428813 1.2167030944106658
Ni 8.909165526159256 3.2322891332848274 6.0474696159339345 1.1561710984638798 -0.3399319767115114 -1.2120275433118675
Ni 2.038698216262453 6.6371812357259214 4.822993935480893 -0.7364647326362026 0.4403135005550675 -0.5268180093062154
Ni 3.491851885002621 9.43400855473732 8.41467970192866 -0.6666112021781746 -0.3769057257223831 -0.7017419844430366
Ni 7.99968312901868 4.675011310903534 2.018535884041014 -0.5962604203687538 1.9759794256247454 0.09214345220448003
Ni 9.163194892030624 2.5164844477339057 8.230336931952468 -2.665377286680132 -0.41204267863483235 1.5781035254085982
Ni 8.511820546169016 0.5390548994475177 10.56275389795778 0.31416438082910414 0.012498903797959118 -0.028955506692085617
Ni 6.706408404077443 1.2820974696707552 8.667287512434493 -1.4051263895855026 -2.9966785842998394 -2.439577864849682
Ni 7.945850005817277 6.703370105692551 7.393452372977682 0.31828868741012284 -0.7548108392435582 -0.5394511246891935
Ni 3.1056381254588494 3.509520050459008 0.6338884783083159 0.4547744131754039 1.5995902345274646 0.019688993788495125
Ni 6.525344234267493 6.128551672165416 0.47544305892916466 0.199468754355721 -1.1466670156281864 -1.6505888370625188
Ni 1.323390706810877 6.155491251178123 11.485032134781152 0.15904407068177123 0.40842410804563856 0.31889701041808305
Ni 1.5398004144984032 8.313115831797088 10.052483653269432 -0.3356168942759252 -0.23614374117925135 -0.3809156182127246
Ni 4.355069284009616 8.641270471295016 1.639974032944769 0.6073547305097023 0.5738697113783794 1.7864047904542846
Ni 4.469226440598327 6.058578739664876 4.997255999694608 -0.5801244340388396 1.2091029134659046 -0.9264098637722045
Ni 3.346197701823865 4.762155232761114 2.8475512501989293 0.005100040230726701 -0.6797328271617971 0.5936407233577196
Ni 4.179114979665165 5.611773944754518 13.329871262247337 -0.28282520439619036 -0.7021896135034166 -0.08920031041575605
Ni 1.3834109103596957 2.504487772595984 13.08882463744426 -0.8981953490112015 -0.19057916517557502 -1.058883383054299
P 2.2711188357418792 2.223933141128028 3.049749087017003 0.3236543225974103 1.8420977131412144 0.44834536972060846
P 7.542888777297389 1.4067597730993497 1.7616698523139322 -0.2674600347940297 -0.1760514038730452 0.14520742190899508
P 7.641145505671832 4.988545290294771 5.53186301444594 0.33881431816730034 -0.12253440579151156 -0.09687762445535573
P 0.7156260704337497 2.005074380802983 11.13192477927494 -0.3906305315076434 1.2601768493235845 0.341846677235721
P 3.03522325864778 1.686246396650192 6.66221313163151 -1.3256811016739816 -1.9897024316377923 -4.717692765163456
P 2.880675147469612 4.271608148073116 12.004775425555001 -0.9155685501823265 1.4992845582271663 -0.5847701603409671
P 3.3780169721820053 1.4399692951426981 0.03020068594582531 1.1866237585267823 -0.08803637201464193 -1.5084765091390795
P 4.080959527903552 1.4018156330002982 10.182628704238036 0.1019090162316761 0.19523928965540568 0.03879948936570092
Ni 7.9036821070209 8.366875299280068 12.412538086219499 0.27867184434944914 -1.527608344872524 0.32487148283396305
Ni 5.942377636889965 0.7356024219661736 3.2994465759487017 -0.13641913419340376 2.0427129223965528 -0.15619785948222775
Ni 5.027306612114149 7.4922780917769325 7.707279133849646 -0.7144501760383244 -0.07195669284395995 -0.8188089393620738
Ni 6.050366127060865 4.62100325537088 10.684529817920726 -0.5184817215263781 0.1895172995699639 1.8288742724724052
Ni 1.99586741600028 3.4128561269954325 5.094858112871578 0.3282586541386411 -0.5418584485791056 -0.6011804833781904
Ni -0.17561917082563241 4.370693503279803 10.686605067787257 0.39945661443970565 -1.0088576859554754 0.1717923714863751
Ni 6.759210347220944 8.331732314628152 1.3735530131454419 0.2630714188080308 0.5087331267800465 0.09141274468604256
Ni 6.285696147417944 6.12280652612853 8.971129319977925 -0.8195167640623757 -1.9294041489683675 0.5498360674679433
Ni 2.7465296702942346 6.904496251807591 2.05524313201291 -0.47431145476706704 0.11192680547899435 0.15767778646186392
Ni 9.371677403023023 4.57320990108005 4.105001675092849 0.11281615006248313 0.6887244891374461 -1.131911968806199
Ni 3.77207506573768 1.6656135885273353 4.491257786674714 1.1197501366326845 -0.9706575207366702 1.3041293436451347
Ni 2.970829746817677 3.531441833654243 9.856916672502264 -0.24353951942269025 0.35602348295673525 2.740994716205131
Ni 6.063495258869518 7.090633459223831 11.44120974440973 -0.336396195644111 -0.36225609413000837 0.6672151543107606
Ni 8.612572362004991 6.6013016938897895 9.762198180701501 0.8724069271931878 -0.45769492925630856 0.3201936177423196
Ni 1.1055631265437345 7.534326300030876 7.425199829010362 -0.058227773293641656 0.7866904615609741 -0.2701365531849283
Ni 1.7977059125517105 1.627192924405657 9.365403777206463 0.013762601001731135 -1.246989404099033 0.149338156247917
Ni 8.638407105241376 4.349729244424048 13.04947683196695 -0.2065770832657281 0.498158950808626 0.057060749568733984
Ni 1.8806882863184697 3.3723823097227514 7.561717941015397 0.9347641492741708 1.65366233378152 -0.314601982587155
Ni 7.934451783391531 8.8514010289871 3.5010376737862776 -0.8016452830985936 1.609104858886119 0.2840714180984656
Ni 2.447588730115281 0.5432109233594578 1.5866657067371204 -1.555633112220224 0.10191441554831479 0.21760788715859297
Ni 4.359801663918205 3.6306745002977725 5.891047887418417 -0.06181677619648063 0.1613467506730189 0.029258382644485097
Ni 1.1317016996186071 0.17249616836455567 12.491180296778264 -0.512413146734795 -0.23309852659502436 -0.31900319697864415
Ni 5.820136765204481 0.6631583401125879 6.092409731832406 -2.0417803832799546 1.6105428768842265 -1.1813522257151978
Ni 3.0300305304990554 8.213220263687763 11.875842931850913 1.4424755196579222 -0.7316094614264304 0.850327064575013
P 1.4703983138156307 7.723805635670497 0.5257287385920859 0.05857821465452492 0.8543127886956383 -1.106220991797998
P 4.8810447692584145 7.586842827265492 -0.03468816059066259 1.0100267665629121 0.4298041163833114 -1.4212852587335523
P 2.9494511745458016 7.326147618876966 8.628061238892577 0.9840329136023117 -0.39602804837413086 0.30147958627258403
P 1.1525370609671233 5.339008405509648 2.258288930289313 -0.47981001598779305 -0.28765013658865946 1.385160230876221
P 5.267009940752513 4.332051872002859 1.7645258527957306 -1.689595557343019 1.1122219465764394 0.35690562845137247
P 2.8582377742454264 5.308036175913356 6.249073603522234 0.14192335184108462 -0.872570963574878 0.4402034573397645
P 0.005818801755308089 9.131725486334988 8.677003622390785 0.27059343821668885 0.051362670742692185 -1.3307307482827468
P -0.3066085004666439 4.665445274473526 8.574739102237727 0.5395208015848643 0.5360017326880123 -1.29824151740579
