# total energy = -340866.5978566848 ev
CRYSTAL
PRIMVEC
9.23541119221684 0.00000000000000 0.00000000000000

0.00000000000000 9.23541119221684 0.00000000000000

0.00000000000000 0.00000000000000 13.51695780947936

PRIMCOORD
 96 1
Ni 3.979446354682335 5.110082341884707 7.28746538171654 1.7589598068694547 -0.6299578126211989 -0.020714606839532065
Ni 6.356964450525002 2.273074829985714 7.648921830866423 -1.0324727542712542 -0.5263166441897645 1.325828425885123
Ni 6.437284822189865 1.181338394979777 2.8750574062601784 -1.8705893928230042 0.41293330876990175 -0.6531792450429847
Ni 9.192706711082375 3.0388289540045723 7.659087248032286 -1.317890144874653 0.492118915262133 -2.526821308649384
Ni 2.373639223116527 3.789898774131614 1.338479840985847 -0.8792584028973824 0.18757380269034793 -0.47983187036466396
Ni 3.4761164414093715 -0.013027471113079676 12.040068042536786 -0.9889537479426969 -0.032559421993260056 0.8470211401302316
Ni 1.9874882078180105 2.249432177178764 12.90276073722864 -0.3179387602698718 0.12057368252071492 -0.13660271095911958
Ni 0.28420223402092176 4.561517384295946 5.793178611650641 -0.2081811945280544 0.19035033699422055 -0.22033197095797538
Ni 3.690017801433502 4.689427830146048 13.181994319995601 0.3065292328813495 0.5596872492304102 -0.47584151825834825
Ni 2.1793076995368996 8.70740432057471 6.39719759610633 -0.9103846919885418 -2.6819549885331555 1.27576750467299
Ni 1.8321024134910817 5.621834950220147 7.24837373296605 -0.7907021538235286 0.5595941752959717 1.0035912953502133
Ni 0.8699489573131133 1.6731702212431105 9.08965429816008 0.08808830829849991 0.3353929511905772 2.1308292557195108
Ni 4.323096007395858 2.523225179176751 12.740516726505446 1.0357964193278484 -1.3131017223470738 0.18256297973931784
Ni 5.6274316094392915 0.3875335563630479 11.47269332284962 1.0004306382340447 -0.9582810014491883 0.2617856101170717
Ni 0.6846921488304035 7.092010832128583 12.893191004088578 -1.7087415341438508 1.262745124271393 0.9272737544343965
Ni 2.641429207800249 3.8532721661477436 11.117238043931753 0.5394308129742194 0.2929226978415084 -0.6503464035798799
Ni 0.4966582521840023 8.65940788829435 8.856459240487903 -1.6227023950648956 -0.8016488826430194 -0.9718615683471002
Ni 8.688037663177766 3.102266993899471 3.8708240652335286 -0.45548120943444137 -1.0730118520358813 -0.6709381116883025
Ni 8.573315384596542 7.2548403679252 10.746860187511748 1.1843303345069152 -0.5598443436335648 -0.029438616976091236
Ni 8.769032219864076 6.105373377178542 3.340716077033318 0.5453888303298671 -0.9822791641359987 1.5313148471898337
Ni 3.4123643975318805 8.836496899065159 4.02909407849468 0.2025409655231415 -0.03817316863561168 1.1018434315555927
Ni 2.208602424030511 6.371796520996862 11.455405556525664 -0.1899811265802599 -0.4333681795854859 0.0967200158315689
Ni 0.21602642815338013 8.501232999769101 2.4731027552260163 0.004064914097992999 -0.6232390058401266 0.610155433183291
Ni 7.151200582847234 4.477567496008767 11.439360876556322 -0.23002451565539092 -0.08008215016457176 0.4265280167352009
P -0.12272291534945176 3.587837211333464 1.849268272386503 3.09234650471781 0.346961372754467 -1.5421854713557503
P 4.8456171052519625 5.258975642100978 11.321250125586474 -0.6912655103917449 -1.6968537815673292 0.738193028181219
P 4.127683940699662 3.250541521561809 8.99850910096591 -1.4138534850458555 0.27650671837733026 -0.24134354021263596
P 2.4753211010089187 0.634426576005252 8.134058907512664 -0.569621991845619 -0.17641804318384455 1.6370504362564517
P 1.8371541834463168 7.230403469750517 3.4350373321572953 -0.9547557619047492 0.4629795746940155 -1.6020101568228666
P 5.381169368385649 1.1670881554168382 4.895963949696139 -0.1637301633035309 0.5476359744928311 0.18604862429507313
P 4.87577995840333 8.283498944075093 9.743996114990686 -0.24468803120483665 -0.9672382106424762 0.8750554205596285
P 0.5505478003847191 7.1722203788584125 5.53950587660782 -0.4409261944384019 -0.6327402604623424 0.9732589629152593
Ni 7.636706152402457 3.1930049094573953 9.538200675423063 2.216163141201325 0.5837864562714591 -0.9064370201947035
Ni 1.4506060454639336 4.58170599329438 3.497972042138921 -0.6853483735763616 0.1592369034188677 0.17547753364744617
Ni 6.293184700413753 6.587194017643934 10.537076897365202 -1.4393781116795212 1.6278461440493643 0.8832335854950466
Ni 6.181888759407285 6.425352670851356 8.043454905417903 -0.6198752315742163 2.136819411864675 -1.6507181635515313
Ni 6.938915419792328 4.355724715351699 6.996323659680329 0.6045519709535846 1.0092533787319973 -1.1392925775409861
Ni 5.769370644982267 2.5789239444418746 10.737749454310944 -1.0205826877018875 0.5099310037428895 0.6893893764149547
Ni 4.815611254091892 5.498228206013811 4.688938353349654 0.7861854969000976 -2.876588269173446 2.2800627680687633
Ni 5.134186765254293 7.372850452912392 3.774245675599387 1.3317951849915193 2.303265945658104 -1.1597199921574026
Ni 0.894035833401319 4.4374581049382265 13.210974116965497 0.05165603361339491 -0.08638778066762541 -0.35730954875801046
Ni 8.897653792380636 6.599772647770131 7.714019474163435 -0.84037998066463 -0.5850308702015214 0.20585666015993576
Ni 2.688382038609052 6.3712423963216995 5.067845112061541 0.09980971050048618 -0.38438146527413797 1.5093141745490266
Ni 8.66005436708204 8.787032036395617 6.476285040368953 0.8370280334732617 -0.03283247314898862 0.6749734580999408
Ni 1.6533140870497736 1.718516090493941 2.185449248019955 -1.8860859457967065 0.043792828815234254 0.7671449353288788
Ni 6.593326330715736 7.569897187400318 13.003381466368094 0.4390014666118633 0.33305710396854893 -0.826769074749415
Ni 4.593453436407834 1.178235296798865 9.120188414843804 0.5835607134138981 -1.1881502224736376 -0.5767848281426453
Ni 7.078831900270958 3.124117976923395 1.4958272366628524 -0.8002381183384217 0.2204124464869236 -0.554729905225135
Ni 8.803415655957933 1.9130138514761172 12.979821008721295 -0.46401778615054284 0.13776073582296272 -0.4232740285742775
Ni 5.901086080268487 3.258160735845299 3.8693639467144743 0.2851847057673024 0.1212352273641138 0.4075170228503368
Ni 3.979446354682335 0.654840529038253 6.701031543827147 3.0504799463910106 1.230781426880603 -0.6950555735617965
Ni 2.7271338242254437 1.4899119557554883 10.530102314787152 0.4295662893408924 1.8975564083301513 -0.5205167496785358
Ni 7.958430938802034 1.2257791939278415 10.684952455261422 0.30715581072175485 -0.9822747932606244 1.9169651518740662
Ni 0.9403218675176758 6.198484793428414 1.6169394962898305 1.740067855060958 -0.3914897941841451 -0.9832425564905325
Ni 4.7662941580023945 3.131340068523018 6.071020417941819 -0.08165900773338838 -0.39048654973061137 -0.4567503059548521
Ni 3.522801445291845 3.7633100251350475 3.193245953691091 2.1087437366743815 -1.3012497081044945 2.0914888062486754
P 5.2751376117932285 7.384080712995694 6.154163131285509 -0.10582892011137258 -0.8252973752998949 -0.5310832123404724
P 0.4102415855512234 1.9358807297378395 5.376546121512539 1.747973740171596 0.4929007877334802 1.0724186985365725
P 5.0358758124691425 3.7508606907663875 1.6030845323285074 -1.2853898582541023 0.4870219603552 0.039798362943860494
P 6.615953088284887 2.1272292154828403 12.96288418802494 -0.6989783056549704 -0.20740189315986862 -0.8966989669713331
P 3.149533828690866 0.7872495437095521 0.48365202251680384 -0.3504321049118868 0.4604930608267359 0.5084335932617567
P 7.668014196549161 5.519968364102701 9.347679682526305 2.475391275003866 -0.6393078863775313 -0.6655027996053442
P 7.246685499789053 8.490039681330812 2.5660054511815766 0.4248549999081522 -1.1498937500956004 -1.6927150768086074
P 7.992444958445783 1.1669403888367946 8.594176331534173 0.03607746244884754 -0.8463410833440714 -1.9590926771717356
Ni 3.0759737780629917 1.733837637762195 4.696872495156861 -0.515970267958434 1.5827397386290292 0.3428820604787708
Ni 3.6898977410872167 5.9713398536678906 2.627439406834636 -0.5413789378395256 0.2302348318939841 -1.37340129056808
Ni 8.467052742722803 1.2686130313179333 1.7009060083172642 0.47598909957980606 0.0444209493175364 0.561388291081917
Ni 6.406309252848258 5.365543052546055 2.7114068424031954 -1.5084857651104602 -1.571026821067475 1.3719092794035856
Ni 3.52213649568165 6.01008240387303 9.69009086659084 1.1465613432882575 -0.29398070679237753 -1.4628864792141063
Ni 4.385462739585441 7.1451975655329685 12.395983244935039 -0.03668012902985295 -0.7043208009138063 0.019346008626779588
Ni 7.010997804619768 8.496624529553996 9.291097088404296 0.7504440776344301 0.5891240664342886 0.1661248887879526
Ni 3.0443702007562017 8.126810956761533 1.8809115619616803 0.1492239992675559 0.610580950756484 -2.2682400644022227
Ni 5.180465411041648 0.15053627987812804 0.7398681898186236 0.7534581818704056 -0.4307919342178775 -0.6094216403410602
Ni 6.402522734234646 9.093730808687027 7.124612757391792 -0.7810941984201193 -0.20777521733888735 -0.9458751715856678
Ni 0.958811160845611 0.34682201647883 11.544725836456296 -0.7876194011331468 -0.6930956216219483 0.08251287109325144
Ni 7.310779253882894 7.062725343046224 4.662430875972111 -1.1435832344965402 -1.0713840866244708 1.893688697844629
Ni 7.553504332426748 6.628624072523612 1.405479979000918 2.3212994061210472 1.6251850522774332 -1.5505492699394134
Ni 3.836528365546571 1.5096665004250456 2.3962862985904345 2.2832576208569773 -0.17038443539525494 0.1451500863084984
Ni 5.794324726187104 4.501468740330794 9.201236536915381 -2.0188062909822846 -0.2531873269250995 0.32750557802270047
Ni 0.7362266671616781 4.4144988725639775 9.57581835253762 -0.7028329035143701 -0.6641660830717916 -0.8160478316771687
Ni 7.660736692482021 1.68731887128227 5.845300502137589 -1.2545715873216652 1.5099641494281995 0.34097275927119985
Ni 1.093546575611469 0.12243107635386598 0.5169937042213553 -0.14006752957926846 -0.5480409232407336 -1.1783962284106675
Ni 1.1958102844127816 0.11130794704109612 4.643872317059781 -2.1757703392065757 0.4124923645777412 -2.5299886506337717
Ni 2.4117168237114703 2.8894738832256666 7.546057820333685 0.7292237348030731 0.5520790978658492 -0.6591233784415615
Ni 2.3728357423375406 8.428956671305354 10.020363949645928 2.0585573456279778 -1.0277969460621397 -0.25938419976443067
Ni 3.8507324280532473 7.644547016556012 7.8414302842647645 0.38881764666862073 0.07278381673094561 -0.11909555531329168
Ni 6.0464976304424844 5.145657146030166 0.07463043479206406 0.3121082696310238 0.19807444511135563 0.2507434933702972
Ni 7.6837051602675235 9.233684230810669 4.3776421933366425 1.1253402291259522 0.7131725948774814 1.2653468235602983
P 0.4819499362229285 2.917263235685086 11.086148879031736 0.3714930393472441 -1.0431644296571454 1.072604332184817
P 8.426010575115738 5.5653511749985425 12.765049672957158 -1.8528744920417444 0.8241095256393807 0.6163299374251191
P 2.8043418622981404 3.9942691897429428 5.359338703266481 -0.024189452762009952 0.5599803549907969 0.49628024572867435
P 2.690099825102057 6.533406982508121 13.640908369930884 -0.6283938105681888 0.2536059025197568 1.1823721823392799
P 8.313098437140045 -0.560895155152261 12.387602109223199 0.6275204068243 1.5788920827481647 0.01682607041840328
P 5.385787074012006 7.1481159554888265 1.2827986230021033 -0.7060524388929323 -0.2532099526329188 0.3879761246039318
P 1.256634702923162 6.403510923238685 9.368914663619673 1.0834456457746955 2.203416125948302 -0.36305647854411666
P 7.536631236068038 4.545401591659958 4.837380965496791 -1.7911862710033282 1.6625251834887884 0.4597435842552211
