# total energy = -340855.79965873744 ev
CRYSTAL
PRIMVEC
9.34940505792589 0.00000000000000 0.00000000000000

0.00000000000000 9.34940505792589 0.00000000000000

0.00000000000000 0.00000000000000 13.68379935461537

PRIMCOORD
 96 1
Ni 4.14655462015712 2.6198996239431995 2.0968228516794345 0.20427517460542885 -0.2683334385379185 -0.2693040299813039
Ni 7.5608731885993175 7.21107454920323 11.107317548775772 -1.338081018000231 1.0399261252255059 0.4640617520146008
Ni 2.4780878486088365 0.09597912204822658 9.50411055920345 -0.2389364734330401 -0.8415269497848797 -0.2149030866329202
Ni 7.146825437909866 6.933135436786304 5.198626338061936 0.932213357827859 0.9589870263772775 -1.3521665495590196
Ni 2.255469165691741 1.325296860310956 1.1614634963938826 -1.2174600271813483 0.03436639329501178 -0.15940865311004157
Ni 5.027820187881389 7.011904174074807 1.3713221113404919 -0.2157366382778091 -0.6347696321875456 -1.1124726291346647
Ni 7.999659464970119 5.763758603983996 7.076481449484352 -0.5597078180557006 -0.20053859038113203 -0.9187004109430889
Ni 5.07696066066339 3.6312902107275717 7.00747349103611 -0.4799766234726443 -0.3664806737343172 0.9282073219922595
Ni 3.124468314030547 1.0485357729264753 4.629721587214544 1.7694673912689978 -0.5333388411438686 -1.1111179148789831
Ni 7.862690681435809 2.7544095139574054 10.97600796009971 0.6208651062913113 -0.5823340400956487 -1.54811880612105
Ni 6.702560410197694 8.797098267290385 9.056417104670661 0.09990638397935052 0.2280535079719492 -0.8230584586670471
Ni 3.706132197907923 0.019981548407476266 2.5223759801857666 0.2131285112310007 -0.28541919037561164 0.13885962531409635
Ni 3.3126344394511285 1.5208116180767917 11.228009018171296 0.31915720605800524 0.017459590237344128 -1.0667962101434723
Ni 2.1310379342884556 3.4711255533401135 11.506761528824908 -1.0933587911233493 -1.6026953558153494 -0.8649610124381039
Ni 7.213533442723334 3.5921816495313923 3.35933191270156 2.4961094813878235 -4.425348822643552 0.7073061087943754
Ni 3.3932917565535514 5.095743615347379 1.9462600332469069 3.1008861667577046 1.9927355620371618 0.42180747133108
Ni 3.4902544360098195 3.683702975266366 9.413413850991189 1.2317885279888787 2.2373523736844305 0.7667338159333892
Ni 5.988181722069837 8.739141305575082 12.704339906927755 0.5644774715302021 0.8581013092037931 -0.16490027235223215
Ni 2.8135538501101727 0.6301545730105297 7.036236935578315 0.6899545048898054 0.11906110253093044 1.0982857961113215
Ni 7.642446747393642 8.182337489644308 0.9993878206204574 1.484315852732476 2.1759978818363495 2.0105507358417114
Ni 8.982777450975805 7.204296230564161 3.230320407779267 -1.052857231464877 1.1741842472118489 -0.18546626942904187
Ni 4.895021238985733 9.216316238955567 10.365314173637074 -0.6796281832631328 -1.2796822663463638 0.6755735535777849
Ni 8.109374732872858 4.967479127886136 11.397140689912867 -0.19311761532671257 0.9153988573736815 1.278313153912979
Ni 1.5207368228366362 0.4523354341249254 12.348698824335044 3.9401618586145624 -0.5064119348460376 1.2678130257126037
P 5.170220975731974 6.552437013801079 3.515655834507046 0.5376618939992547 -0.42218465216484063 -0.045026187001703105
P 0.8866274515028976 8.248952000407582 8.366685318054964 0.2800931501770079 -0.3063261157316079 -0.20686016172378568
P 2.884422340157277 6.686974952030343 0.21392186636804364 5.029455992750235 -0.9077153726864947 2.22125932477731
P 7.658032205560993 0.6073392199416711 10.849528274056672 -0.816592134216413 -1.7467380679922822 1.3111877931538127
P 1.334926747480945 0.12754084351274012 2.9882128900992178 2.5178180767095086 -0.056850433330140795 0.04649325846553284
P 2.3533761350549693 2.1887892090933314 8.774722336257438 -2.0502781363383207 -2.173064510239638 -0.6730587575757312
P 5.376646489155457 1.1481443340032356 0.6299423415165891 -0.7706696606526856 -0.9767245528663565 -0.9612441978425703
P 3.1078450719060418 5.656745314131865 7.011154351792251 -0.3497559047804686 -0.017834457078259605 -0.12503994582218464
Ni 0.5145632040530934 1.2141604828452672 10.578767634813646 0.6206748446573762 0.9473396719463362 -0.03058301499317959
Ni 8.271025945658403 7.030387947798174 8.971591822810586 1.400998226349742 0.26777190960749364 -0.3975126033394573
Ni 6.549192770259345 1.4118256037655663 2.3745637567099487 -0.37718160509158916 0.3295583467866711 0.052136572794239236
Ni 5.67607053430698 1.7679537903597915 11.376149405763295 0.868956249640426 -0.513798971338728 0.6503379189394477
Ni 2.4055364656582396 6.088482139118034 9.257801418907679 3.266330484538865 -0.9162282952535123 0.9609886301883385
Ni 7.039232484946534 5.587428825317984 2.917782887147524 -0.21554843352640296 3.4750199861619055 -1.1641541166693565
Ni 1.965675007710207 7.142730398511367 2.222057196973887 1.1504496225990704 1.5885008094825221 -2.359786763562968
Ni 0.2893481913621082 3.5733612972273265 5.951973346310679 -1.5258329981396561 -0.6207995431606986 0.5361637121871734
Ni 0.49240791897860503 7.398829300802959 6.128836976003299 1.5573441813740598 -1.4341479736288334 -1.7081483806445423
Ni 0.7572485149633421 5.283806897312747 2.7571348655205625 0.13730745033562805 -1.7650538355823342 1.490672133967807
Ni 0.49969017054822096 3.5347763027122348 9.148098305231466 0.26704531585411434 -0.2112114967139459 0.09079130905195977
Ni 4.804977119243826 6.496368631899696 12.132808908210412 1.3299735584017482 0.19119443016207072 0.5978892142214284
Ni 8.380096104614802 1.2426200717243414 8.948219245202571 -0.3208111967216604 -0.7178951971641314 -0.47782486723696416
Ni 5.302496357946541 5.801576947287497 6.03599270945808 -1.2796578408663317 0.5272026463391436 -1.7889355272959386
Ni 6.379248635221587 8.216116889979427 2.8508140339340153 0.9700941920340325 1.007192639548227 1.4336527791599696
Ni 2.9423793018725797 7.640455324124508 5.860702584630226 -0.5665875758946693 -0.19738564657444715 -0.9120533379402164
Ni 0.8448608544597016 5.849586142062151 7.831402897538364 -1.308494819702682 -0.6959035233843885 -0.2648655345939761
Ni 4.7671400771302865 8.357816472453555 4.601656543227288 0.07058449508678166 0.5263860639751192 0.6950283198682868
Ni 1.9979678526472382 3.9422046746479453 1.068020867927421 -3.2823821386850893 -2.9049477941527457 -1.7342998422289293
Ni 6.9609405673140206 1.1940218644334648 7.154314311330412 -1.5503700640490718 0.39070200817552714 -0.9319788732195499
Ni 3.549847543603519 2.562110951518246 13.26534908523626 0.5272368420111888 -0.3056990236705703 1.3909261868257208
Ni 4.681237743811978 3.875982838895487 11.680121936456759 -0.14682747401092133 1.1718226889582077 -1.0221783143237815
Ni 5.124736120312559 3.9390913227764828 3.843491786572044 -1.0823017619782394 1.1232432373876073 0.8964472559718433
Ni 4.651843214430962 1.5795071827886278 8.739527436002383 -0.31469351385969674 -0.5539248928253364 -0.5055624423615487
P 3.593733650764614 7.591567285278031 10.741604352155651 -1.4816272501567191 -0.2713377725818811 -1.0968331228251949
P 5.688804423943411 3.150300720099168 9.677045568906918 0.5966594555793853 1.2770204032434846 0.788505660392842
P 6.327686666539558 7.436441957196032 7.177631727448813 0.4330964139813379 0.042317015600656156 0.8012012535826395
P 4.775704132128064 1.5550771874729177 6.5922664141242535 -0.16801207850833644 -0.6719822366821008 -1.9950850361059447
P 1.6259643763300602 7.165776681884204 4.181550378085262 -0.0437689175558343 -0.1887346557676685 2.5910479798389376
P 7.237823196963753 7.038718267670466 13.23618829098073 -0.5500129593654399 -3.0652231661384564 -2.8786343530691973
P 0.5124137758391317 5.403105305360378 10.275616916821388 -0.07193226736392773 -0.858381045227741 0.08850354145904758
P 2.9652666453600878 3.5195554713406403 3.862307464173601 -0.1169365999887599 -0.6956893504910534 -1.067043293157272
Ni 8.574376740918076 1.4661923939534167 5.1070947279814405 -0.8446647240829132 -0.11850497291714429 -0.3920356393852861
Ni 7.76935557112707 1.189450005378975 0.14650985135661462 -0.1455079838685494 0.5888947240323018 -0.2728225846575237
Ni 9.024391652717185 8.828615111610805 12.4418030043398 -3.9108194008967034 -0.9650322041300929 -1.5670038159510111
Ni 1.313142633785727 7.0021059976144695 12.92874058644155 -3.5158046242784353 0.7477994409227314 -3.0179457212087315
Ni 1.481637611045477 5.3675962650966715 5.591911865024789 0.9165028890711376 0.25308319724706735 -0.9713576321274885
Ni 6.796624774097945 3.4223216591388095 12.848608705901219 0.2546975929220388 0.13279027919156486 0.9723570199262801
Ni 1.204801728420841 0.2691516066391856 5.455566686805274 -1.1659425760283468 -0.5867735639242411 -0.9476456332225293
Ni 0.5507921485032948 1.8576426327109612 7.291521504692716 1.680579469887338 -1.7374530431459305 0.20765386126967467
Ni 4.8502656371578325 5.809234109998391 8.243640603416058 -0.6529491313100496 -0.8708246703077326 -0.6179443331000906
Ni 0.5738702198531986 4.619372730798562 12.834473340452378 -0.17288380477834098 -0.6389551310238029 0.35865526415262744
Ni 9.232266323918676 6.155003155831114 0.8411080032849115 -1.521088284365819 0.4601017389255882 -0.18099923479662378
Ni 1.1262199792327265 7.40432675095437 10.514549376556847 -0.6589716833550459 2.339216909831417 1.0182293569783625
Ni 8.635905175350791 3.6474927296262036 1.370582573403457 1.0721932127893277 -0.08649705255198006 -1.1552706981367975
Ni 0.8038132266624978 8.662373340960732 0.6579157613346542 0.23473169132307317 0.6502191339733963 2.501731969780924
Ni 3.448528041408207 5.622358202470488 4.253499659352609 -0.9557317526647734 0.7372617746162012 0.7421628114622444
Ni 8.553649109990051 8.705231013569694 7.017024843203936 -2.7582288206952303 2.624064029753642 1.388377709372254
Ni 2.7277356614370376 2.8788968417908074 5.860306169857402 -0.34797644428254265 1.379880213424204 1.5712340519822745
Ni 2.68498083228329 5.554294533929206 11.689754628448254 0.3471686036692666 1.2214164407259351 -0.09193339307620296
Ni 8.729109393989258 0.5123614191710231 2.3716345881173684 -0.37897469243626986 0.3499284258025909 0.7739951254814929
Ni 3.6207721300807387 7.763250409649397 8.024139012132432 0.3382332488528498 1.0805384994302294 1.2382090868032418
Ni 7.47398916775397 4.715372421537831 9.16230285627745 0.7522603049075625 -2.332010107670332 -0.9059060873918978
Ni 6.067202893293864 1.9134492312718006 4.719884444400197 -0.5983234735453695 -0.8481845643107133 1.0013852888378303
Ni 3.9388949852710753 8.83817020354064 0.220930180370591 -1.1698131147273467 0.2502164172222336 -0.6724478634646097
Ni 7.006135591177833 4.139645409847779 5.74057301447637 0.006411045732666379 -1.6064188274135238 -0.01644297604737168
P 0.6304163563510731 3.152778312429311 3.049571165360581 0.26047126218102234 -1.0399130125993832 -0.114687398943267
P 8.651911356744016 4.791532674825919 4.575971857757974 0.07472962760340679 1.7554931884770928 -1.0028950406141373
P 8.091087296654898 2.977224534379909 7.758536439638613 -0.10199129153283724 1.7101247876446224 -1.155500040538784
P 6.51394551333618 3.647464681411145 1.3169319476400927 1.4399473539194299 -0.85890709293454 2.196952115490513
P 0.7668905563598564 2.254431381734587 13.001757569762114 -0.1211706926747655 1.5242664249834845 0.8137621209667856
P 5.990416229869476 5.929916229988895 9.819357537409818 1.0159305336418567 1.8886652764881084 4.579777506040499
P 8.063132575646872 8.80487697226653 4.4002170675006544 -0.40491069557574133 0.8557099261534811 0.1963759743630102
P 4.9576903008308175 4.292564278345197 0.14624432825406347 -2.7374555927036206 1.2455698980436871 -0.7406859698064018
