# total energy = -340870.9894978452 ev
CRYSTAL
PRIMVEC
9.17371707674273 0.00000000000000 0.00000000000000
0.00000000000000 9.17371707674273 0.00000000000000
0.00000000000000 0.00000000000000 13.42666223534229
PRIMCOORD
 96 1
Ni 4.367157212443941 2.7913511265196482 7.388974130137018 -1.9274179717762743 1.1766815597124058 0.07623398006307516
Ni 2.1618690046388447 9.153975288619836 13.259379747625717 0.9344805565954809 1.0228424302703416 0.5085456933595887
Ni 5.676677811297289 2.4403647092069964 12.606736742112158 -1.905738944140944 0.16510441794323824 -0.10853757729178727
Ni 1.0123930747984742 7.7125549849018435 3.9871414846518287 1.0360082782283384 -0.412513961844296 0.061532926407474674
Ni 1.7978650827217326 7.121198831404505 1.6799974955758918 1.3511982721084794 0.4022436902665395 -0.5832449819456923
Ni 2.2489734487680564 8.48964221537022 6.586516067579778 0.16899218303341865 -1.4206453111567083 -1.3342148501766053
Ni 8.388272641107157 1.7020456073210362 1.5531424177598676 -0.0960489579064733 1.7550224194882613 -0.8827653876093765
Ni 3.827797687627421 7.170590124421006 3.9282113605657596 -0.5851951636935278 1.6563339670764121 -0.14965594459865195
Ni 1.6133999787143412 0.9295727565679823 8.113235427896216 0.11640849539943178 1.380865717265925 0.7859515265124205
Ni 7.9711437233024975 0.30036584620101525 6.769507872616432 0.04105177573498737 1.605437437336861 -1.214885581585953
Ni 4.182719629587933 0.5487735933331492 7.4576916930268204 0.7142982238414923 -1.954760111234653 1.1455329020237432
Ni 4.031637682208893 6.5647211504273635 11.077640471687888 -0.9504501925508599 0.3486372177949931 -0.7141619553739442
Ni 6.599269369130956 0.1226415895391892 8.897271749088961 -0.519787327711679 1.3915779614771067 1.0487290682291164
Ni 6.379100158061858 8.121913764299189 12.768245536378744 -0.26810718145972534 -1.170407810888552 0.031208307282004317
Ni 7.047882484118496 8.908073801007038 1.6020695206896978 -0.34630548433802294 -0.6181903876726257 0.10027148062825311
Ni 4.553025895171897 0.24751147496874024 11.150426578123906 -0.7496064122244832 -0.47421683817073174 -0.3004832837975857
Ni 3.2468628767873535 3.567300816064168 9.786600325988651 1.0884814084263899 0.43118094212618 -0.49394182740348486
Ni 3.045472264679025 4.192407074874973 5.655081963806549 0.6699940026074784 -1.9146187631290768 0.628916001620246
Ni 8.61619364314931 2.4670510523319966 7.596550579704675 1.1654954611885993 -0.9430485007701501 0.5210849634771799
Ni 0.6852482309294672 3.2568805758909973 5.602207410396593 1.3940194810390636 0.3154530177335406 -0.027302544469694913
Ni 8.904789610275259 3.463280037551148 3.0430182953473177 1.3514183585390853 -1.6102669975150203 2.5704570430614635
Ni 5.20660737194764 1.9954944708076305 5.380171347891972 0.9847209408082719 -1.4874808807240187 -0.31430064929665225
Ni 8.437021773924707 7.266180256893505 0.6400502440121201 -1.9236937288471516 -2.9165429551895126 1.3472020064648926
Ni 1.8116073109792954 4.8957100984838196 11.538793140617527 0.552854542579293 0.14865784235144075 -0.2110806275630365
P 4.882389861214139 0.39202228876908024 13.354668982176422 -1.4329683514984355 -0.5716346514002736 -0.43855435177211566
P 6.542529928695023 5.999877039429595 1.0982443891680174 0.7947585832810894 -0.38396726055485486 -0.6055678138126087
P 8.108813696240578 7.880810130744273 3.680046716937514 -0.7851411147959833 0.08440957389533203 0.2772273985934387
P 1.256368081814417 5.594765691062457 0.2749674929607694 -1.1845252241265405 -0.5832768636248922 -0.1035871752650474
P 2.363553175695265 9.111785363548721 3.4263099575257954 2.5344027205410677 -1.4162636371492447 0.31966885558710106
P 2.1785559960944565 7.8266209836698915 11.282625346166919 3.5098540631219555 1.0614375169347205 -0.883990004045097
P 1.2170862250728391 2.102496707387212 0.2515112156364955 1.8657683172852768 -2.2746264275445407 -0.11530034993691755
P 1.6016667945077838 6.7221146151903834 7.564621457241092 -0.7181818751666147 -0.5143059928821336 -0.008813998747204174
Ni 7.322075715353672 3.33649926684386 11.18089157533388 -0.33768586098981196 0.6412040749589796 -1.0606808412743538
Ni 4.011648152587245 7.222449147344906 13.29371146660509 -0.5900648330810031 1.3714709063145862 0.6106380292466644
Ni 2.388285517072027 5.344873636499032 3.2764682967024448 0.31832185464090335 -0.25517633233067016 -0.5403096160347469
Ni 1.135256668292158 2.9066739245342155 9.643055504601875 -1.9278267771789186 -0.6160424880916875 -0.20535709481569794
Ni 8.573141388668175 0.164017805901062 13.09573531201176 0.27110431641483634 1.7829250594358002 -0.12773806147963807
Ni 0.10421067445756745 5.00777622691799 7.3233582010081495 1.4930953986973188 -0.12294089720131085 0.33802781771026297
Ni 4.2855661723085845 5.923368238583084 1.823287287626511 0.6436134557314206 0.8897503035676418 -0.4679371758096071
Ni 8.809171956651374 0.7400052310940644 3.957603032871771 -0.16128298731461901 0.7753236144849293 0.9065691748971936
Ni 0.19926689659322439 8.907615115150644 1.9359634682496851 1.0316397168469973 -1.8081732924796277 -0.0014881545097522758
Ni 5.746599883245983 5.491295335577109 12.607085343363018 0.03134817529397827 -0.3194022321892757 0.08158341730044659
Ni 1.1185238082509066 6.427601600516955 9.992552110252962 -1.286272775079688 -1.1547251100459728 -0.7297346130012207
Ni 5.526338935005607 1.5460832424299646 1.5400111590630217 0.008711925951701125 1.0885050625754737 1.2560371161235981
Ni 2.725373752935942 1.4917564895986652 5.838503098804788 1.4450227115598082 1.9876059541200803 -1.2318216952196592
Ni 8.438828996198898 5.858143109803864 11.735318930532937 -1.1441761308855327 -1.4059972222262302 2.2186689383423146
Ni 7.271950524966941 3.7598663122954767 8.765206917316014 0.19664619730526134 1.4323245472668493 0.4548032095308103
Ni 0.02837614181995542 8.418756903123098 8.636378572945784 -0.2245051284990585 -0.43078884889408386 0.5140385981533598
Ni 1.4842707364223158 3.701099480374284 1.6995466867754019 1.0710976657323037 1.4136100015764814 -1.2355505661344721
Ni 7.748084791338119 2.4916182668004567 5.353532708096037 -2.0291256706304215 -0.07180525486776021 -0.7203773401560368
Ni 5.645514694213884 5.144648086465945 10.137586743301304 -0.2921197423242388 -1.4898511807284085 -1.475690058736678
Ni 6.724857556611619 7.062505389220335 5.3658309932776715 -0.31601917464965573 0.76885497604145 0.5013129230565753
Ni 7.069367329631989 5.27274069872252 6.987154311475362 -0.8054996238476773 1.5086600859047954 -0.31006887060349175
Ni 6.899992990299959 0.7297756191247665 11.216378265299653 0.522812230580932 1.6610329152139782 0.19497009515441907
Ni 3.9302314130773186 1.5072784189790365 3.4483021095964594 -0.7237326297815149 0.10592199404581114 0.013314200610402876
Ni 4.5666488651067985 8.692977655509658 2.000156553852019 -1.7119369011526968 -1.3607676609644692 -0.3844732536569959
P 8.868076394329485 5.07654241050857 4.726574275797113 -0.3446957166487419 0.1011202017817936 1.6064651072704268
P 4.96430198144897 5.317334137681139 3.848067932993183 -0.3743145679564392 -0.14757309392769422 -0.2300787659320941
P 0.7531520851100278 0.9886423211543954 5.923171921036547 -2.0514119928324477 -0.8365837468469914 0.4459344462862707
P 7.269895612330297 7.790348106146258 7.720894811142798 -0.39774503106523756 -4.388898036015687 -1.4821347859207572
P 8.867012243142652 4.5305411144914665 10.23710506144796 1.0691353997996105 -1.5892885954911404 -1.2451592928688295
P 6.949797100587213 2.2046735687575283 3.1105818046224343 -0.4269005695832712 0.24547658854440305 1.5910166339258405
P 4.244284445233129 4.03290365517254 11.61903105747652 0.5418347944300217 0.5673959307285776 0.06555284620014516
P 4.594692918366725 8.596011465467978 5.563928240937091 0.23510578683304026 0.1506170229603406 -0.2436495626379933
Ni 7.056588341672852 4.52940357356761 3.49239558097161 -1.7049980079410185 1.0164635233271915 0.9196609750841452
Ni 9.164671842790943 5.958622833505523 2.77977573024769 -0.6697163234660595 -0.12747529473655464 -0.4664559632783902
Ni 1.703724397555438 1.4022668790162052 2.267991481745862 0.058588241956853936 2.528571201460955 -0.5289409691864889
Ni 6.085587078555369 0.04665569056896718 3.792172474533016 -0.10996608220819773 1.0883698225491902 1.6175727871478143
Ni 3.2149750360508462 5.38995328246543 8.39330167283666 -0.9554463602138706 1.2287834226139678 -0.020164647873333014
Ni 6.158921773275634 3.7144472387953478 1.3504674852536362 -0.16231579945450755 0.7778286402949701 -0.6576051420248223
Ni 8.289609313396818 4.36646918365935 1.0381225992270366 1.2779578274560894 1.0530500642019736 -1.6018456062205444
Ni 2.7299881326512656 2.404238611157409 11.828742231019833 -1.1307675707891107 -0.4364956694708741 -2.3365951559378533
Ni 4.9682925483995986 7.439967154164045 8.696798508693421 0.7343584849264772 -0.4929966898813961 0.29117203369898886
Ni 7.999875805347014 6.3401669025711405 9.449912981563225 -1.7298358929203046 -0.07796407538030443 -2.002204163649229
Ni 8.27900449639699 8.034469892636245 11.169975769323415 -0.8155009580347633 1.2498554127929182 -2.29510809243766
Ni 5.4088878346173725 2.61725232286676 9.478686345334816 0.2525743759314489 -1.659283793733355 1.1451629202788343
Ni 3.5549805139614263 2.438190538247689 0.35221661277950034 0.35319706925153366 -2.0728879033180365 2.1775791102805404
Ni 4.003731234705885 3.662028619126647 2.1658549847309083 -0.5354553732662392 -0.006243409806550537 2.009327662067888
Ni 6.296711004536378 6.992014546809713 2.971965104076756 -0.479640066068832 -0.8146270400702422 -0.5497419650922404
Ni 1.0708755214887031 0.7144178992809842 11.172553583836347 -0.17853586085779574 -0.3998566780916017 -0.747356696958358
Ni 0.7264739983304429 7.449003265535007 12.49354958544496 0.9434953584995815 -1.1073841588681639 2.1146706436817775
Ni 4.312408468624759 6.450150597217282 6.1658589381677364 -0.3728780926202288 0.19684648624152548 0.9522764471263213
Ni 0.32632287881434896 3.3155648443580397 12.315834502500262 -0.6719272150744493 0.7269411094164836 -1.0237112060285403
Ni 9.10053838634994 7.46983677713242 6.001677840101798 -0.4618734861140304 -0.7409829322215302 1.1739729025319912
Ni 2.5056540540061114 7.896561403052841 9.188495986172045 2.4334982343145057 2.2650171865895508 -1.0708148443845622
Ni 3.233661897840336 4.7117678963527165 0.0014320172436619169 0.6739244480101362 0.5686611705942464 0.5159651257521114
Ni 1.766454275275875 5.867711296768242 5.383755519173835 -1.974187109611013 2.0840986844321914 1.1972989788524413
Ni 5.318572589493403 4.314325775504486 5.672442306099347 1.75520779602619 -0.3282262582388089 -0.9825416737687659
P 6.245374883488766 1.734676519144902 7.452536064000953 1.0770456557856227 0.5586305258311217 -0.5190807885629577
P 2.163061587865469 3.2826587210203377 3.9375566262039294 0.27259761313091113 -1.2814529850935412 -1.7914714063439146
P 7.733324280479362 2.262330380906248 12.95223085498035 -0.1084640437413745 -0.6096530396255758 0.6615859810494412
P 6.296986216050214 7.043616705654032 10.827086074747829 -0.38992090703512844 0.7007839914051415 -0.11034969079986157
P 1.965432199779571 3.534257086969548 7.516164965999922 -0.5122429397055178 -0.28098635141523864 0.6211638684786528
P 3.2919792176222624 1.3053098626916517 9.553271417699612 0.14307957693271486 0.07855208667329053 0.4641049465477104
P 8.563031952393253 1.1106527589551864 9.761922109542944 0.47343342303748787 0.10766263088600167 -0.28101617621190955
P 5.0798724698259905 4.725611035498686 7.769942089767003 1.8995022192026123 1.433495427646499 1.0846337525455256
