# total energy = -340873.1740387625 ev
CRYSTAL
PRIMVEC
9.21874695103034 0.00000000000000 0.00000000000000
0.00000000000000 9.21874695103034 0.00000000000000
0.00000000000000 0.00000000000000 13.49256800805516
PRIMCOORD
 96 1
Ni 4.79472559246319 8.887185481045517 11.516892043734503 -0.7362263913731515 1.1491558434883111 0.8940605009072216
Ni 4.089426920841288 2.127594604723998 11.769418412852849 -0.43269686455007417 -0.3982170856056497 1.473040536928973
Ni 2.4385613762762746 3.8235674780333877 13.094227019010553 -1.0975396619739164 0.30845550336978494 0.002686545693227631
Ni 1.262387548797999 3.663926437390355 4.894847637281103 0.6806008315890472 0.4234702037454836 0.09386377732969642
Ni 6.927187695567944 6.65353841160145 2.598492807447705 0.5173946591097863 0.3266709979365471 -0.5861084195364163
Ni 4.951278352883586 4.967779909894097 2.4067640743541205 0.3929409248083749 1.0164552957970752 0.03300268017826574
Ni 1.858342663044663 1.2667111411096916 6.011317172120901 -1.119740623550988 2.5784279770820824 -0.04160996223130253
Ni 4.556070671855301 4.037119750742047 0.2073766341380771 2.0644222890491863 -0.10634674028805557 -0.30420135607912124
Ni 0.27039414442436466 6.723517919571725 11.283186668355073 0.012303499957701391 -1.0101506937352862 0.35320503967133365
Ni 5.633650000882504 3.0796699130019807 8.06466952029269 0.18678627379204604 0.07945865764795992 0.7729350596480947
Ni 5.711843412370302 6.284216971961722 4.468360747908313 -0.6279448959562283 -0.7843093629233072 0.5460020384338339
Ni 7.52192593521942 1.1831708564006103 2.9764061192292184 -0.7882686046813715 1.366595837610472 0.002459260173769958
Ni 1.1569158651347238 3.5581413163313496 7.688254254887828 1.0258277381509107 -0.5447373127887973 -1.3366954505066142
Ni 7.945850012944767 5.915955688219317 12.984086961900282 0.14490763128038914 0.1891588877892807 0.556101588761681
Ni 7.438357994269538 8.401929079973279 4.206929069252451 0.4634498294622147 -0.48942517048005396 0.8288056455634694
Ni 4.90585758674348 1.3684031385303357 9.685518824843053 1.0570471011765086 -1.845683373609944 -1.075182891545271
Ni 6.757654939465537 3.1577619182735135 10.400219696462173 -1.381447300801008 0.9258005123229797 -0.29339758059539794
Ni 4.271331235328112 1.8020898692579916 5.424025836242102 0.41514702859176883 -0.9147563386936762 0.3262184837801608
Ni 2.938199022564378 1.9024912421079812 8.227160997487482 0.7702461999620218 0.16862862904641282 -0.4909817163338963
Ni 0.3715818763877601 0.954361557517428 8.997303413163149 -0.22847491178008394 0.005305214262997315 -0.32230012256236107
Ni 6.155560139761331 8.895178134636643 1.710776337134797 -1.455677620170493 -0.06423849826409582 -0.31872268962374783
Ni 9.19192037967092 1.8307140784857228 4.392748585561823 0.7554245615681571 -1.1290395323544102 -0.2720720796447443
Ni 1.038233717116106 7.266621957650085 7.10097674712943 -2.290982243194745 1.1770399714930888 0.7813358821172802
Ni 3.0528894531608994 7.153434182803683 8.058166616205979 1.4750652806684854 -0.14252216176734808 0.17944243183246514
P 8.76427192818454 2.3755788972283334 1.6862203609287076 -0.9632792259947281 1.7463719429021147 0.08183898495467841
P 8.086371372448246 7.759612887399318 6.274111381573497 -0.21756700661832856 -0.509590075463703 -0.26556744575700714
P 7.687964786234125 8.368280653666929 10.196846764117204 0.8794221821687563 -0.5544756231224837 1.1422418899772973
P 6.054412048409748 4.81079386836784 12.329413960936996 0.96050372013212 -0.39841557476970096 -1.1144341237364097
P 6.57687531210457 4.145089714824231 3.771536870342143 -0.8200746934483747 0.8317896678924578 0.8256141352093651
P 4.288736229538081 7.786273503530267 9.862446859735309 -1.3942225981888052 -1.5867552875463253 -0.09749417499343209
P 1.4066793757971756 5.7899538551357015 12.807630926851008 0.4175736357553905 -0.6236704369505904 1.1662112563087013
P 4.438900398333736 7.371051922909904 2.2716218536861907 0.6997923169158335 -0.14853725761317643 -0.4225566907922787
Ni 7.138112625400627 0.9645390541317322 11.123205455950202 -0.7645933725516186 0.07933421625495368 0.7905877397328513
Ni 5.6140786011432215 3.959387276600911 5.91456181368301 0.37465292513246445 1.1488066876790086 -0.7859307005768141
Ni 0.9655070225597232 7.998931557786402 0.19596198168533105 0.3174008854885308 0.1873737708643999 -0.39501529083890036
Ni 8.790176607066963 0.7230106501047496 6.534828607342032 0.3721237309527075 -1.2541041607669434 0.2485194891357849
Ni 1.5920499391308995 2.0692768116242797 2.0240745297864913 0.8284405489145669 -2.3368265552223693 1.1527898406964727
Ni 0.10649035519939887 6.269245726942129 1.6791772382717072 0.5301231624200483 -0.13482993532941295 1.219284481984597
Ni 6.847058347224163 8.121301204578318 12.415429479197654 1.1303759917776468 -0.023575216216778754 0.38718319638899124
Ni 4.724017803485189 6.586554996384479 12.123032029593016 -2.3329770995692916 0.2604653486437514 -3.3713289383291425
Ni 2.5468724339949897 7.265847582907693 11.677548068414884 0.5826029774863192 1.071284070711497 -0.1205482285994182
Ni 6.113513434998793 8.10691074061552 8.785024249405971 -1.3319278539146415 0.45260671610012376 -0.9075793613292626
Ni 5.069084719943545 5.4980791084821785 10.054418967747932 0.39678112449007147 -0.4619513905398173 -0.5362349317447411
Ni 3.311069679773406 6.551625164254408 3.92540605353027 -0.6103359246252134 -0.9147805070633923 0.8048771597723299
Ni 8.400776736606623 5.994416443368179 4.72956380164023 -0.39821528583343674 0.8943577204326661 0.36778962235372786
Ni 2.712846753781163 0.29547651108034223 10.22063389682906 -0.31249393510521667 -0.24350532375064515 0.4527586682969557
Ni 0.366200893802824 8.91853843936549 11.464770170448618 -0.523490230484563 2.703906810213898 0.028267222375809385
Ni 3.2835609389245977 5.890825384079287 1.085441998286569 -1.7464326209367214 0.7526727098546327 -0.785434477666686
Ni 4.157221585788384 4.896168683716637 7.8111853233679795 -0.8755495865872277 0.061801863798145174 -0.99909340747986
Ni 2.094545396968309 7.970657660942134 2.501373308505951 0.4872250775049416 -0.9443731331188445 -0.9981876078361389
Ni 3.79100686386516 0.7382252700433799 3.149596874114737 -1.2659888280196714 -1.7087469334604892 -0.7950264922304953
Ni 8.612540572410232 5.070172532081668 6.962583074418144 -0.38399579979994514 -0.13409845648002713 0.830430582761402
Ni 6.998125953219277 4.615642214537941 1.4890663952649077 1.5394680724245875 -0.704931952135244 -0.7321139118666746
Ni 0.9007490128524387 8.050952946730712 4.96291702088681 -1.397872793346883 -0.8947881231018654 -1.3069043352871106
Ni 1.8803017182396564 5.564186742740491 6.103606047669633 1.9643228152224235 -1.4101986619020874 -0.9792421770818879
Ni 5.698347166860029 8.457794686388754 5.934341557102984 -0.6083446052267973 1.2861133666836881 0.23647695614895398
P 2.17243458980731 0.7089446860340017 12.520077928759791 0.8744072454526683 -0.9282618293792788 0.06742229530871614
P 1.1587688332683064 5.795356040838584 3.885251957513128 0.10294877035010012 -0.20340357063375294 -0.18719636474627116
P 4.05763146266852 6.619115610552707 5.983063556519887 0.3977848831642375 0.42654704289859446 1.0597501019299684
P 1.796641589820443 9.198613189944457 7.774687382384562 1.09898256506803 -0.3910784176783394 -0.17196797783229095
P 7.937175172080582 7.711408059685371 0.9783109401753095 -0.4692517808559725 0.2865520184284742 -1.1531652217580204
P 3.096383501191957 3.286575469171769 6.328796988381515 -0.8230715712931697 1.6069327909354647 0.27817664988058544
P 1.744583325888399 0.3597293334556848 3.7866888028016277 -0.5183889047022556 2.21495009472983 0.5815477967489274
P 5.760831833573575 0.5723919970852855 4.071233723768526 -0.33574570654430563 -1.0325231478932153 0.27173243691713844
Ni 8.176042123867937 0.7187451358987363 0.5437622566093947 -0.9410733793216502 -1.0245812673383192 -1.7177046568744097
Ni 0.10696327691707443 4.190916105829401 11.569674901175498 2.434702281924936 0.451291596833126 0.025887666400039287
Ni 8.675818051360038 4.071229114395059 3.3123713668403805 -0.4713081491643689 -0.4223417465679952 -0.41601914678407703
Ni 8.300495207466767 7.2380622796508876 8.524901632814629 -0.8870113073699241 -1.342535711337475 -1.1560931940380927
Ni 6.362124602294589 2.4058809183979157 1.0967755257663026 0.40243369479015856 -1.1271423153316975 -2.274499672158689
Ni 1.7059936512258285 2.7313579976231224 10.26302722647629 0.6411084299213797 -1.101412771776077 0.05151179472604677
Ni 8.811702381156094 3.731140321280656 9.36598783738979 -0.6696461323497565 1.2210719129023229 -2.0800895632727983
Ni 3.118517712578683 8.805959101816681 5.551786606240581 1.7350202653347215 -2.6130381109567833 -0.10442021268930404
Ni 5.758490271852531 6.426711143308915 0.3223860333784892 1.498147873519562 0.28199088142035306 4.816695149271299
Ni 3.6791281510832787 1.750750667586741 0.5901989286615448 0.39792912205158565 -1.5563162543301776 -0.5192481673787575
Ni 7.1479490283784015 1.2796450430570365 8.513473152241485 0.33520783176296465 0.06879834972063636 -0.2260588461394236
Ni 0.09198926627340186 4.199996571558649 0.4702344529445126 -0.5579527830378068 1.2742785788322895 0.5928760772775531
Ni 3.5820178708884587 8.378974400109495 0.4620730962845093 0.28255523856425535 0.34720074245878274 -0.5177389298230826
Ni 6.695824803784252 1.8318572031054452 5.694619105600224 0.5357160831267935 -0.514145041824237 0.28905627290756675
Ni 1.4410929580989853 4.335005120396046 2.1921783801142443 2.9340951051406634 1.121599016915965 1.432851623414913
Ni 1.077164485415207 7.744706173608257 9.454485042324876 1.5098566773160578 0.02539170060022724 -0.0832309802061986
Ni 0.7138647312722756 2.204875360265405 13.24205146983455 0.27874152124511997 -2.092827836775073 -1.7338550413820268
Ni 2.4625485557965825 4.768820913580767 10.864485932642102 0.6506883603003311 1.5607526928349766 -0.7510423733400614
Ni 7.726434617186563 5.6174526625207895 10.62454684058641 -2.996566484202007 -0.235561129202904 -1.3279840387755453
Ni 6.25919729278489 6.385254438350104 6.79179472498343 0.710990242514182 -0.9065930861565935 0.7232104387294577
Ni 5.298327299932589 2.3680471809838712 2.971063855381402 0.7687616449966954 1.569281299131278 1.3381663786251856
Ni 7.677639789668889 3.3017126516361603 12.656487727131042 -2.3971724033002784 -1.3449484345440257 0.440236624570545
Ni 4.037175063223646 3.9089883871168514 4.156155898642901 -2.053040015354174 0.27010030063035423 1.3025861675277308
Ni -0.08086131685027982 8.883627044729284 2.457670916794202 0.7050502228806632 -0.3028913790184461 0.43361551970960155
P 4.129510032507045 3.245312357898557 10.023628352990887 -0.8015964321385292 2.3995648147918547 -1.4921368914387914
P 3.46446962874263 3.2384167351924886 2.034476963825967 -0.38864949652187264 1.191644094559509 0.8813052581240822
P 5.0422305101269975 0.8172787906200499 7.40551713019454 0.7783986538658272 0.5467252897531035 0.7237359722156246
P 5.774835110165176 0.9008697784372642 13.052966673361421 0.3353667259383321 0.47181414226651003 0.6545262459891824
P 6.831266633727512 5.288887303072946 8.561654933088098 0.043322831157351194 -0.8515056582641465 0.512637089820143
P 1.4031670332156088 5.448509906222111 8.803765961921261 -0.013976259674433996 0.8714679603186862 -0.12130618981136528
P 8.267031156099081 2.7685279852579727 6.985655754242674 -0.03313380643949132 0.4097914207068104 0.4656319247151981
P 8.87739517180241 2.071664467079991 10.628932198502557 -0.43064126757262605 0.5994329045594644 2.166531337106811
