# total energy = -340897.1606252001 ev
CRYSTAL
PRIMVEC
9.02215557182207 0.00000000000000 0.00000000000000

0.00000000000000 9.02215557182207 0.00000000000000

0.00000000000000 0.00000000000000 13.20483665282647

PRIMCOORD
 96 1
Ni 6.371464246853646 1.9812021891177496 11.497358578534262 0.4146397499380472 0.7808833679608939 -0.08502201066835036
Ni 4.554934439623194 0.2783542476277365 6.029156450080167 -0.5425040525829044 0.28774243919214965 -0.1248622825937398
Ni 2.6548414283033193 1.5016385365406415 4.813757525059959 0.3141651521600525 0.4287047126715456 0.4490904754167492
Ni 3.3521367591669784 4.219102746055867 4.684481765781605 0.16699315032551884 0.6331205266198967 -0.17082435114615097
Ni 5.0803667306791 4.683355800777248 2.618228619135182 0.22156892868887001 -0.4361477992131521 -0.4916918550270435
Ni 7.509708404824458 6.163404319245552 2.4145435347211013 -1.0328671614961953 -1.173182802530528 0.3042656336581534
Ni 5.037177672378942 4.547581382904032 11.307446716681499 0.31731243953978255 -0.027208442093991852 0.9643534328955135
Ni 5.606421550463376 7.822181737844655 12.253877142423596 -0.5994750706513096 0.32224792916818695 1.0788071185614194
Ni 1.9689230355045229 6.382281811278524 0.18645457187143552 0.13564574636248897 0.7631368426107502 0.43342088720029226
Ni 2.657232299506482 1.5616809812842292 0.4877413343074742 0.16236722151773325 -0.16368902565295035 0.6641270023037401
Ni 0.3804480568649961 0.007234866482326501 4.837433465480112 0.4749560303296013 0.5587261708687216 -0.509642011747561
Ni 8.63162246136989 2.4425320654624323 1.429727446258333 -0.08342895514961761 0.13793274262445276 0.5606902365736279
Ni 6.745071705430952 0.7707726673379268 4.933432808688178 -0.5231539301910667 -0.6491359282115466 -1.1043685119702917
Ni 0.687422386117918 7.270251376133316 2.396017440651006 0.8152718727430927 0.754010969050082 -0.03638239528377605
Ni 7.623342453140834 3.955141543071173 3.785535846565425 0.5287077701297604 -0.6108822840469865 -0.8566684334120084
Ni 7.769375061798943 3.7551835110873815 12.63989367365309 -0.45465511398872027 0.23882334489394355 -0.9260229127464311
Ni 7.973771994280682 8.756552248351777 6.786638580175152 -0.43002343148296907 -0.15449887451325003 0.5696824127699092
Ni 6.9518865755823045 0.6363335284762892 0.43033516339620465 -1.318526235796755 0.45064984948406905 -0.145291239872053
Ni 1.6188814470504718 6.683621804431917 9.417926769372896 0.7172809606189001 -0.6293687728869484 -0.3249848684833758
Ni 0.2279447582940255 4.861814036243538 1.041393123285092 -0.6886632968822075 0.6131901062445568 0.8041328254071376
Ni 6.280259277069585 2.011254989033736 7.1381516821885835 0.7905080355348515 -0.3679320614688631 -0.6821674047452188
Ni 3.4525984604772484 4.26021670859479 0.5769181235388143 0.24936023986952538 0.2527173292672164 -0.7041405665822003
Ni 6.056771463584475 5.539522267552226 4.725574977362916 -0.6233889011544296 0.9214566335319873 0.4826801384467366
Ni 5.408628835795657 2.758957102584461 9.185878734764913 -0.5612533081659494 0.11608582195269039 0.6160586860416035
P 0.3051256895943251 5.630907680445961 12.14121297582171 0.026757727709818435 0.08309651151086335 0.2703612676012247
P 4.0344102011503855 6.183289149931482 12.576589719702168 0.0828363158709412 -0.5672527202824941 -0.28724081696538273
P 2.213441493421985 8.46470356276717 1.3377420600249372 0.8187289780537577 0.04224399627087563 0.41560159963068427
P 6.154526518249655 7.682212017671549 5.802588472712944 1.5661664076513802 0.05131176290009873 -0.8075796463051577
P 4.650154268597472 1.076866434215646 12.727230845381317 0.17119844665611805 -0.25699435937601545 -0.5435054972642253
P 3.8186994856921688 6.197165225065312 8.28363160885727 0.1674405222755826 0.1594305074869125 -0.5709252840380749
P 4.668000092144101 1.0537065610891563 3.8625336281094067 0.5125494152023431 0.5425775861333172 0.26719701094063014
P 0.23832023710020517 5.5575214677420774 3.5850076143550678 0.7385193011723862 -0.8625899411027661 0.48524481385011914
Ni 1.4180843546067026 1.073708679796374 2.739475562248649 0.05488791028713128 -0.082757897224522 -0.8456530561381113
Ni 1.9099722715744551 6.329402957988943 4.857821732442029 0.0018133990596549414 0.5045404288549374 -0.922122292140444
Ni 5.844922230673254 5.380136868778339 9.194382116308239 0.6146623199147092 1.2248336939376 -0.04660792966652619
Ni 8.756976289659509 2.282533160115658 10.17073452071181 -0.559436823782501 -0.16489641569749022 -0.2229033312295774
Ni 2.438363829628993 5.059976659286086 7.022609447987419 -0.6177751545120781 0.8449848264264932 0.1954434352464118
Ni 0.478419643261783 8.934433065867115 9.142131205040316 0.32784599208125476 0.8842049482693803 0.07958824124728874
Ni 1.45235952328903 1.0575409771697009 11.565244885255323 0.18261337336127906 0.6675290860067535 -1.1578965657954188
Ni 4.08667554786708 6.963344713046521 1.5239169450763803 0.31403659700198816 0.3707895855223163 -0.027132851661050044
Ni 5.59694828720556 7.712364061297856 7.869594067126703 -0.8082406769279241 -0.24953070400911867 1.0719993516109665
Ni 5.2137232108827005 2.858606809901204 5.11268860269922 0.11384176311352007 -0.14720336929310132 -0.801764068064645
Ni 0.810801264572168 7.255942237536271 6.894377552098522 -0.633388692679619 -0.02653455595541882 0.35787004924717075
Ni 4.95773759334554 4.788572178027393 7.013300387959404 0.7059840475488421 -0.5188324199975773 -0.6429084592445959
Ni 8.099703240521253 7.02624718107842 9.137455924068698 -0.5951566457816136 0.4019654969044884 0.5605413697005894
Ni 4.764916086349304 0.5751506832795703 10.487980573982849 -0.7798076183982118 -0.9492695419791974 -0.3067146094192782
Ni 8.114851439578274 7.135974636070382 4.665876276743254 -0.5589907373840179 -0.33095342736198485 0.3285653867457825
Ni 7.352822143119538 6.09073987898036 6.957932321971888 -0.4407986677216022 -0.27339619777280655 -0.32794677932517713
Ni 2.390384006767025 5.364357118837463 2.426718933546266 -0.5888075636351343 -0.2542085691007622 1.43146245637687
Ni 2.5028993078034305 5.093575166307141 11.314590459393441 -1.0819968291433106 0.5524886745994421 0.39013585125941197
Ni 1.139317794473364 3.30276752436053 3.849975689891736 -0.4078245267884267 0.4839520631806246 -0.3938135572213153
Ni 3.704397797870003 2.664594378381128 2.639792472956617 -0.7952823169950433 0.08705806726177265 -0.03259284633435677
Ni 1.047120387586103 3.2849126786584173 8.171615233019109 0.09994032254107948 0.1981675190457942 -0.14037966150304856
Ni 3.6823837384899347 2.732215433730968 7.11263973312751 0.2768389049057684 -0.3159029607867656 -0.42917933831511895
Ni 4.041267039317948 6.918270024250282 5.910828174265656 -0.0036440245104904984 -0.29411800370119023 0.43050911287013605
Ni 0.686519268354006 7.736561482304964 11.546190092873886 0.41653722407107613 -0.7231633875416063 -0.1743565326691255
P 0.23746583897590498 5.5643873280651235 8.051570041016063 0.3685979771876362 -1.2009460886867251 -0.6617286772748926
P 8.385768724440851 1.5883324285828855 7.925569324178268 0.49948975380490745 0.054174172049558315 0.166457589537023
P 1.8041965206843245 3.19540387410528 10.286528473050968 0.3239397150483131 -0.20451711541290585 0.2021630133584325
P 4.103456757066641 6.200304935173617 3.805343086714196 -1.3640992964408636 -0.14516191338304033 -0.48592178531248564
P 6.9503076983726695 3.808540538617596 10.33686488292526 0.113361738153308 0.6137305521290591 0.32471695953396984
P 6.286989805060377 7.6729733304563075 10.226763008480727 -0.3432713254973894 -1.2493823298112419 -0.7099101220761258
P 2.236637455170409 8.400429727101757 5.7819755540794855 1.0375172586736972 0.6418149690701012 -0.39237193967878226
P 6.944407208686372 4.035528948430357 1.5467881092273936 0.5157548095135183 -0.2846584009501872 0.6405492149838001
Ni 5.381778901076361 2.8654546259132827 0.430455158064137 -0.02606095875310996 0.5334833371415328 0.09786904183434757
Ni 1.3427403341628708 1.1121250178456896 6.943089973985761 -0.10554018522636018 0.18697602120534898 0.1760200364144775
Ni 6.927589910864877 0.3759586322963396 9.086709908335449 -0.5479223953849982 1.1431859990581217 -0.33831783814685606
Ni 2.851713883111707 1.6504589912431926 9.02586268732272 -0.5567644191566605 -0.9238541872298863 1.4263076516488082
Ni 6.253544674682543 2.0703320631405746 2.5992929192061296 1.0001028225809807 0.30534086900020313 0.549425462293086
Ni 3.9838410196646143 6.916718213507098 10.338568265880571 0.7836498749624375 0.5065134934209083 0.322054067989826
Ni 8.28085910047715 7.1542084123028085 0.3316003026455022 -0.44965560389159975 -0.5250709447081215 -0.8055266204308706
Ni 7.7049027387128906 3.81723789650382 8.118610971768305 -0.4315992606105212 0.03278722173334998 -0.061493845639423124
Ni 3.056372458102472 8.494648096817352 12.392593685200024 0.9552926082448259 -0.9727293156640344 0.4160083481507997
Ni 0.06607826676213903 4.78558584456231 10.10374682067692 -0.14552701003194293 -0.3898108638198254 0.5887911085749021
Ni 8.396270513423802 2.405730693244687 5.653835684176521 0.7275113800976567 -0.22741304617447286 0.7932184924874791
Ni 3.5227096307405716 2.7952893227170574 11.61941120013242 0.49073540465104515 -0.9659323473468588 -0.16107961305456128
Ni 1.2989738579117598 3.2829368266075014 12.56569636917123 -0.9459170805671967 0.6076763755151792 -0.11127400238634384
Ni 2.8509469998955983 8.29612458755546 8.008363840620484 1.0607206933733537 -0.046044086743256184 -0.31262377581486156
Ni 5.835394834482536 7.6477383615685826 3.5016059068488024 -0.9464127892566926 0.7526665392070457 -0.00414307563409609
Ni 3.1762047272361054 8.433631259281531 3.686288527383252 0.03455665492894694 -1.2225675236112428 -0.40551413348769516
Ni 3.518775970949707 4.303622298626555 9.317425370578498 -0.2003197895021066 -0.4800128760272184 -0.7245512690280683
Ni 7.193301412013397 5.9619666537624445 11.443733592986185 0.5439155882184503 0.0020175446506610416 -0.8627388079758045
Ni 0.2724745088990519 9.201335491539474 0.4930806459226891 1.54190059312548 0.10406154379830465 0.22932594692646954
Ni 4.693108750855056 0.4130974331291726 1.788872389595371 -0.3447006017447483 -0.6415198064271854 -1.1601640216733569
Ni 6.0997620344639945 5.591877835823757 0.32656593988563415 -0.9098043940050395 0.5861274456998099 0.07949928107790825
Ni 7.697847413124689 8.973498999111253 11.319489489821054 0.7234356673663863 -0.40388071164933026 0.14765614055980378
Ni 0.1712820129946074 4.791414157004738 5.768876286532795 -0.1962026820099395 -0.06709910764134251 0.418804422838698
Ni 7.856619305325688 8.800787876688037 2.5955559424048085 -0.004749855980159561 -0.021055020898086318 0.1827954074650981
P 8.439630992678149 1.5813492802385525 3.5656758418002843 -0.438988868206373 1.0536074793673402 0.47543322707633606
P 1.6772187044076525 3.3635497858537753 1.6233230541950652 1.4778230459192807 -1.094655655557902 0.2614971323423754
P 4.706542740370189 0.828418827585061 8.147305035068456 0.32969487236453543 0.6945673210714683 0.4134670697861847
P 8.56007676838467 1.7110878760932162 12.377936291401312 -0.634004728997063 0.09608212513725388 0.3279578350687707
P 6.350271203622589 7.7385102678894295 1.26927021541299 -0.32698107297779816 -0.3886384407782791 0.2739181317145476
P 1.8574091937268005 3.2290384697482692 6.029566055939124 -0.5063134615949603 -1.0090695448559652 -0.6203580847479059
P 6.904538303604191 4.021734072695879 5.9415819956627205 0.007659316317470679 -0.14517836844327256 1.012459544374121
P 2.4802536975395078 8.60843552177695 10.23347098108281 -0.8837100109108329 0.5654326363546197 -0.07721382747784121
