# total energy = -340859.2530410418 ev
CRYSTAL
PRIMVEC
9.28523305338815 0.00000000000000 0.00000000000000
0.00000000000000 9.28523305338815 0.00000000000000
0.00000000000000 0.00000000000000 13.58987713937471
PRIMCOORD
 96 1
Ni 6.308489273144572 6.409234048565663 8.579778842228148 1.7584234747500103 1.3369355915418781 -1.1606520170533687
Ni 2.8833061873188566 5.0894496348511025 9.992120313118054 -1.5684426052800666 -0.11743642244331387 1.1227518995734858
Ni 1.2656700772026601 0.5996598304813289 12.75401743951355 1.300614645623657 -3.8056206581701613 1.5376320476571133
Ni 7.005299565446484 4.817438741214157 0.19633531813837968 -0.9671726475118634 -0.5141239587783145 0.08119620916435694
Ni 5.579839917716493 6.08184602676177 1.7826523381628392 -0.14038146127526147 -0.3765930795779708 0.7553548846724861
Ni 0.8992803637233069 2.436695776906042 12.071982738098972 -0.9632000360173605 2.9514557079062977 0.1795470757311295
Ni 3.638799150649459 2.1863659017583363 4.1221085150138235 -2.008159609901716 0.5892497933788755 -0.3003267036150634
Ni 0.968941893964707 8.511559308634018 1.4043645274277636 -0.9000187753731854 0.45896299733545476 -1.0836585331164499
Ni 5.776101882516087 3.1374987192937662 4.39447689011194 -0.21756392129453497 -1.3590023415339305 -2.2391755429360987
Ni 4.419882215460294 6.833764175480657 10.259500661178732 1.0037900416245809 1.231203859130002 1.2001318203155462
Ni 8.276466500441705 6.229880492617848 6.780790994074678 0.23802450314173204 1.3876742555473263 -2.3115209865780453
Ni 4.241717169305466 7.040128473520633 4.061756359135298 0.0012058473826430847 -0.08096095322509929 -0.2893864025534758
Ni 4.01954011987912 7.817395307668052 8.172014131580463 0.4534412961862771 -0.24198348778948 1.6566838942166628
Ni 1.1045898593220078 4.292915942731447 13.524033435400476 0.7581558444563911 0.7437790069094288 -0.6780227864492259
Ni 8.64655730769828 5.330596414801438 8.666128721304968 0.7783991680864594 -1.9581866204176985 1.006379399618312
Ni 1.900817138760659 0.7767403614500572 5.059769388341101 0.03784483876191547 0.03009939048854171 0.8859314440421839
Ni 7.454426273936637 5.765173163560268 10.356872111538948 -2.1545703080901926 -0.7971124282252466 0.7410839765757689
Ni 0.3562827376225923 1.6196231499263447 1.1654879868866865 0.5546687129698964 0.37409216753298796 0.11780974662233258
Ni 2.90440223614436 2.362061075999615 0.10667153949033323 -1.2359699130600779 0.9315780382367053 -0.6970777461981479
Ni 1.5485354079333613 1.610978598228922 10.026406963599152 1.8753641885038284 1.5698567120187739 -1.4811436256520814
Ni 6.823411140955817 8.13060477905093 3.1573904734305964 0.702400443962642 -0.7046154493360898 -0.38276989781264403
Ni 3.9038368344853676 0.5844283346655909 12.690892713133572 1.8859054543547842 2.566139646633032 -3.1915756601244776
Ni 0.22702301240259207 -0.003975936666848941 10.576851346371546 0.004732886699295075 -1.6531216307867012 2.1288914152668497
Ni 5.647705683942552 8.477779631861491 5.735308140918389 0.7032285962908921 0.4752398801186073 0.5573130925712789
P 5.564686417855919 8.77019946709987 9.328376591712878 1.0653810749635004 -0.14099106983480236 0.4230061196248715
P 7.974724291514591 9.297210707961645 1.5223380522307746 1.7447107531496082 -0.19281962447031956 1.2522097719577079
P 4.222441026100472 4.185875779500633 3.203704285902749 -0.7388085502780308 0.8389057101119489 -0.4504567596366565
P 6.3134290169716705 6.3626221801219875 6.002308722959276 -0.6043426831562559 0.9080192770801587 2.00780402633451
P 2.756915599020987 8.270969642649144 12.338914609417452 -1.2651388213145502 -1.9900173917750503 -1.2290731859402446
P 4.801700271689849 8.023898884199394 2.26953651713892 -0.41243837141135425 0.857859368396316 -0.3476203464947046
P 0.7586768696432195 6.5035348724529065 0.4054034759573991 -0.18885472628530056 -2.183656169712555 2.783070819439575
P 4.039373377049576 0.8981382800941093 5.765369081971456 -0.010722271513510566 -4.571598055553501 -0.5315447253579233
Ni 8.805966183682546 0.04098223182267905 4.289617828055911 -0.21798635354393422 -1.8817659782651142 0.04460246920072318
Ni 7.373607608013579 7.603556397258124 13.59884641277585 0.24225499628331182 -0.2733825709260518 -0.4280974181048498
Ni 1.6334024353387775 6.147520478057012 5.985905430769515 -0.7469700030429006 -0.02330370772294696 -1.615921110477004
Ni 6.2355259141345325 0.3672792387775414 0.4532994920914647 -1.9851490079391552 -0.17148923842365948 0.7027930514153703
Ni 7.343764869930318 8.397137385360828 7.959182668924747 0.7541860611753657 0.8611249265214652 -0.30014029863587016
Ni 6.043897280481033 5.445594022505604 4.23940236077897 0.1653990663655216 -0.451755423843422 -2.3302792410221547
Ni 7.95451033980107 1.1492982550503534 9.556618755176558 0.14210821415838107 -0.19091417991749055 -0.4538624428840957
Ni 3.3690817095036674 7.825232044115554 6.1488751935163615 -1.5141118530479858 1.0120173146303797 -1.938708971309061
Ni 8.404314870282535 5.73956449161452 12.226580934991471 2.0200239654394694 -0.47721371601552653 1.5579972415770265
Ni 8.093454562787356 2.6834229817437576 4.848664050455041 -2.0279337072048493 -0.7326854680994285 2.4129798026461797
Ni 0.383288837098375 1.973947631960337 3.6007872647859696 1.8633265406130037 0.6603706205851013 -2.455131239203249
Ni 3.398088776638735 9.15130256040708 0.9998561479082073 -1.0744079610524593 0.16095157211712927 2.9608302071426618
Ni 6.142292892014424 3.967199262823941 6.3498698414525565 0.23554493125298787 1.6220447068762387 1.2457053951802868
Ni 4.480858338980138 5.455297090737406 8.265417073460037 -0.32894462446207223 -1.3691818531700934 -0.33315094923393596
Ni 6.119980477697661 3.1615103312051898 12.151619393891973 -0.6338838871484825 -0.4711091457796854 0.4280020301775661
Ni 2.763990946382357 0.4021211461775507 7.6416416364604 -0.7547383341344098 0.8612938479991619 0.07848163844667129
Ni 4.11013613589604 2.6838315319850965 6.488880918114698 0.505847063481503 2.6760357948352427 0.30604560837671163
Ni 7.179769088963746 1.7390590988886936 2.900528437037846 0.5607899953762858 -0.6777762176560586 1.093164415724356
Ni 1.312207663784274 6.379214891060005 8.220842385083403 0.8949863551556007 1.3110335269641358 0.5678204198605059
Ni 3.646338759648715 3.237593528421818 8.579941333801408 -0.2833445672347701 0.40307981301458967 -1.2821934628039917
Ni 0.3589615272731899 4.091946364923697 10.596488685130815 0.8690845476881742 1.371592262383799 0.3521012650841936
Ni 7.501641682509563 7.944788701103754 10.675785501404885 0.28991373581185553 0.8150710695861964 -0.7000543123279686
Ni 4.735357283636052 7.49064796692444 13.313703414449686 -1.560041782810881 -0.7734317967788551 2.144877249172145
Ni 7.486618175907598 3.3106125988284036 10.147574608470814 0.26786781175540963 0.5002520858922288 0.26275465889856037
P 3.090236884557052 4.858442329072179 12.289923864341253 -0.35474024536893745 -0.5711847083470485 -0.00980130236113796
P 7.4635443725047015 0.753732483199742 5.796572106653721 -0.8529809572580922 -0.5446450101853071 0.37734255614948564
P 2.703024108095271 4.928257994177358 7.374533345719523 -1.4663878074991454 -1.4340528428118657 0.1418711584469105
P 5.0886882457649705 2.22315399394436 0.1440213882581984 0.6931473007954901 0.8886043628886567 -2.070485464524131
P 8.18682686339883 3.4845342936129615 12.355127554335679 1.6747721191769414 0.46231083076176505 0.38800800628313176
P 9.105201379765079 7.02841050978041 4.740719505553627 -0.21287422912834952 0.9698849042367039 1.2597474750956497
P 7.307023203908082 4.065659870986637 2.333422632605028 -1.1868266185662077 0.09467444615644986 1.0239552037185462
P 6.387896583688458 3.4876262761212766 8.384967230785307 -0.8217986181180169 0.7895652120056079 0.056283762193393386
Ni 8.063723247497187 6.170677848554726 1.763992734412957 -0.10107957835184526 1.0913098790141207 0.3552837765772333
Ni 9.058125249683519 1.4944489271197343 7.296092627905713 -1.9577189367526608 -1.2915525354213886 -1.252364038147385
Ni 3.66067515902661 0.42630453489499126 10.133984741806637 -0.09444947462983734 -3.0148742813722595 -0.3267954393295533
Ni 0.04432955823183142 4.297679267136149 1.967270621084272 1.4595597288337185 -0.9329990869539481 0.7569271142556125
Ni 4.131130047161209 5.446606112876195 5.874564347725332 0.35240928324291565 -0.023501425556049848 -0.7839018430722435
Ni 2.344493415622039 8.437853131003362 3.387412616013927 0.7996709329810422 -0.09146468096990054 0.28686312191098984
Ni 2.3242887491412745 3.382870280148858 2.0442711992973615 0.030012744312006377 0.2689492177450465 1.2138764235951482
Ni 5.303251404329999 4.540088838741533 10.427498377463873 -0.5106568261653205 -0.14480890091899576 -0.4784771561089824
Ni 3.0632911390941944 6.810318962767454 1.2430540357747202 -1.3582472085354607 -1.382083134612794 0.7767474914156494
Ni 4.439149073432531 2.0185167491973175 1.9855486017678128 -0.05009768798733953 -0.020858845726880206 1.9323413772198208
Ni 8.381547479560645 3.8017457003144104 6.952472162194802 1.202209528780181 -0.2861686669471265 0.14711286646182406
Ni 7.417805315940251 2.3005556942125827 0.8465513839388563 -0.11835096383778325 2.3152269746747223 -2.9950685595002415
Ni 5.406011075259512 0.5927934008570065 3.7796849158053805 -1.178905563946918 -0.22040833272186558 0.5592401343906627
Ni 5.760790533698632 1.537430269555147 10.330847461165655 0.42350568496910934 0.061206910526623616 1.188512748019379
Ni 0.7486153914269712 6.757337424651994 2.9056789556485443 0.02897633262769203 -0.44159956635634273 -0.5953343090100586
Ni 0.661781751723473 8.418874115246615 6.529867792553756 -0.3490586216031279 -0.742157926366238 -0.7063733125674608
Ni 8.518662511693663 4.8725651680966475 4.41609848311153 0.25375399806184684 1.268337787867822 -0.5693129452456324
Ni 5.824385092856148 8.803440600372449 11.963059529664896 -0.09080056502334038 0.4597903783327565 -2.840250868194992
Ni 6.250577276434772 1.3699246706061632 8.066298042540899 -1.0207382394431452 -0.17435061913185454 -2.532224481942826
Ni 2.1137739520586045 7.849132233233885 10.104671261990566 -0.0059040241892608 -0.13925634653188276 0.3174811039071629
Ni 0.430200618560124 7.634606215599887 12.3974877146996 0.5063615412240763 1.7894713451947504 -2.0937187240204587
Ni 4.522437611269138 4.505659195675966 0.32618187006866683 -0.8469959433192509 -0.6403720659759874 -0.41566099211370994
Ni 2.2215197929790045 5.335387594904414 3.8143253336545477 1.152484393640912 -1.427069212405181 0.06282464863570471
Ni 1.694415699789652 2.5960396562610035 7.123215521806397 0.966206169833536 2.017397840670532 -0.9478477219310063
P 0.5293483339468895 6.3421760975895225 10.33088831618979 -0.41315750896556586 -0.24204647981693156 0.7974507854012718
P 7.6449035387281805 0.6371164594259076 12.041350755231305 0.6763664817927254 -0.18295455875078168 -0.9511307635576522
P 0.9218434793245281 3.501461272930256 4.944798707811932 0.743307466589649 0.8394525837543543 1.07051813907975
P 3.8051626659692452 2.3990998694700973 10.324718279022294 -0.31581322928643674 1.280084643991105 3.3515723245275053
P 2.040559891764107 1.1380352677152583 2.503391603804631 1.2286132155846905 -0.06329876005864582 -0.1535066858033098
P 5.857895497878702 6.430097966572224 12.005202415582287 2.1702416960788624 -1.5628252590932892 -1.3109674496128907
P 0.3495073032792955 2.9844038015847394 8.786833961585296 -0.9021399354812464 0.5191378670531381 -0.15533962524699055
P 0.4098743155302336 9.149009107915928 8.47683532369003 0.6737969212933362 -0.8649419862747103 0.7411924771291751
