# total energy = -340896.64339094347 ev
CRYSTAL
PRIMVEC
9.03051499314431 0.00000000000000 0.00000000000000
0.00000000000000 9.03051499314431 0.00000000000000
0.00000000000000 0.00000000000000 13.21707151091754
PRIMCOORD
 96 1
Ni 6.334824924906326 2.071654300230595 11.49401497723203 1.0354441781947523 0.3811647581090532 -0.45848760036093295
Ni 4.508592928004182 0.30427055669969216 6.22428871342488 0.30127312668873274 0.8058114986611412 -0.7993647145945331
Ni 2.6933330067006733 1.3801787441293734 4.712216590085033 0.6416519611296756 0.0678670961556186 0.10236358727059144
Ni 3.2436164624030157 4.387475662219099 4.924402986390265 0.8212185772448308 -0.9774663161283875 -0.7101219809766157
Ni 5.0629672069544105 4.47861161854948 2.655824763080158 0.19480014523545805 0.24941988946286722 0.21888675387101655
Ni 7.204039075190519 6.081961477303574 2.6478553336844426 0.7044365005560642 -0.5384244831968921 -0.034496748225288976
Ni 5.309942758844974 4.698911029437275 11.248084255914932 -0.5252455226127728 -0.670650919465187 0.017525153367956913
Ni 5.5665177480699795 7.700834791163883 12.265125225892094 0.1096935452731014 0.361147691557178 0.7982879365905864
Ni 1.8606111671111956 6.514694720604751 0.3723696695303894 0.15522443982536493 -1.0320351525132032 0.3967237888895748
Ni 2.747841194612898 1.4641264106025416 0.38829678865245554 0.5500818649301623 0.36830641408914633 0.034008752845276914
Ni 0.7819233871965272 -0.12922847426466555 4.468930003529484 0.24490554653228144 -0.2870662390607314 0.6127422200738609
Ni 8.490788112205928 2.2476861270982234 1.3180831176015337 -0.03585454780476406 0.6782385020044578 1.1297337302079575
Ni 6.666795682997993 0.7873091862804985 4.828354429956464 -0.251782733268089 -0.5131747074911678 0.27592282084940223
Ni 0.43508298327711525 7.3906456350013565 2.382099923016169 1.4952219581220183 -1.1416662199794854 0.25389232341192397
Ni 7.684489559202133 3.8603464467100883 3.820169685937807 -0.5717747765225637 -0.21151797221077118 -0.19489656160400629
Ni 7.611965494072398 3.8054318856275433 12.711518026024953 0.5545473569006837 0.3460859121280491 -0.5020487727813353
Ni 7.7657732237809824 8.926952951167584 7.04013884203417 0.8643490898857179 -0.6007032866314559 -0.25946493240369506
Ni 6.928689645496739 0.4619857902037735 0.2541204952762744 -0.24661353036232367 -0.14380051425913945 0.3927095255238591
Ni 1.793315770106242 6.647939967895156 9.062879358330608 1.0657243172355322 -0.061925276749886904 0.8353537310946323
Ni 9.108719154994168 4.876324525083989 1.385241250780068 -0.15671079456290432 -0.5610705027311821 0.26777910869634525
Ni 6.42459727348741 2.023386198111503 7.083570200374968 -0.31351620572214395 -0.11011674885344908 -0.5354587157003488
Ni 3.3886375011177967 4.34490581499938 0.7662373828221841 -0.16274054569675198 0.41721856640881694 -0.6802354778298284
Ni 6.105115717496905 5.606378440820901 4.8619000836406165 -0.5258780139904491 0.491342956328057 -0.49552614117146915
Ni 5.5079097063949725 3.220417069635205 9.095737789831176 -0.721037599447855 -0.7567815898166838 0.3469606014235186
P 0.3040809158868763 5.555012872092482 12.44519459596972 -0.06149230297752635 -1.9025510333312654 -0.05318686843562453
P 4.155526887115472 5.981478938055839 12.498604673270592 -1.8769341040941094 0.35370871878062954 0.5547656435590769
P 2.2225632346575654 8.389574101251618 1.3802058356740614 0.6424400042486097 0.5132788371691999 0.5432594426916902
P 6.291713246792846 7.887179466042737 5.82921723249745 -0.6822363103099411 -0.8091745015961033 0.2023954410842127
P 4.867221766068826 0.8888482957710647 12.751539461941023 -0.9223590907415986 0.90641799403131 -0.7348706486762053
P 3.997221960988682 6.14514799003085 8.284024540095741 -0.1016778740574765 0.9852035368716453 -0.795559739026146
P 4.629186423925297 0.8753991499364595 3.7392815579114016 0.23058270215170612 1.0275084682874434 1.5526426621333325
P 0.2590610899758731 5.623455144489227 3.8210817679423026 -1.3383612682448112 0.14794770365829357 -1.0430150485634746
Ni 1.3535387251861886 1.1132818763782455 2.4489645644605833 0.5188193073714549 -0.056035136517697044 0.26299351438224383
Ni 1.898521268644582 6.384926221549305 4.938386738706714 0.4427177391211859 1.144356365217139 0.1432883505094113
Ni 6.018260225227227 5.664516895721317 9.080141187554304 0.19286924676133235 0.34923782749346954 0.17505201607425336
Ni 8.76897312357705 2.412204047473457 10.14025590748238 -0.33459462365899795 0.007242540495026237 0.22424956084482667
Ni 2.2773874905911504 4.946762541272749 6.960585424109394 0.8576181989197875 1.5630072931971082 0.7842430284617462
Ni 0.4618015676998952 -0.01653306667158738 9.196465056032594 0.6009082035534102 0.39277328888225904 -0.9159814693500289
Ni 1.5296879487474644 1.1995232936349964 11.315174660231747 -0.07151009222484458 -0.1033927998660542 0.9732911017047755
Ni 3.9878482865266394 6.9234880689166465 1.6458826808627405 0.5923937383244959 -0.7509652402452227 -0.7261039582271689
Ni 5.704206008689213 7.9415973488060025 8.030388983469383 -0.3205489441992092 0.015740293553392248 0.8417640054963501
Ni 5.263652339488105 3.073797629783832 4.813023324817534 -0.10970408679606268 -0.9946094035665775 -0.12224824200966043
Ni 0.5915718728583205 7.348283489624245 6.958655603076119 0.5292721272736626 0.563221487635914 -0.7372556039686141
Ni 4.9658078971884025 4.619279949084391 6.905840636706894 0.005418857022726151 -0.06590405889197683 0.4194538834972389
Ni 8.28330300195555 7.004798825040184 9.240926796123023 -0.6311736873061711 0.07719531553507995 -0.47429962769252504
Ni 4.646263127593625 0.6270446384212779 10.552814077454414 -0.6574045959782421 -1.1328884737868554 -0.753826878063734
Ni 8.076016563032885 7.4557285558567905 4.741479070554015 -0.20868307386513738 -1.1174829378650626 -0.19260468024603603
Ni 7.30903687188625 6.174271400570433 6.950117251241956 0.21113744894290087 -0.31203293630839807 0.27774059078443136
Ni 2.1868746397885936 5.299079049425092 2.720258389914571 0.3773386994947437 0.07885059175031582 -0.28693382724792516
Ni 2.2857497473848416 5.298483035441956 11.34845481677796 1.3029466361909432 -0.03894372825304906 0.7258167660040532
Ni 1.001971749770213 3.4173906605466446 3.8082476001721144 0.5718069153120797 -0.7315593249147853 -0.31328609198920887
Ni 3.5572372142260207 2.662006150526467 2.7366343256269685 -0.15259240151915654 -0.21094127377169475 -0.15757725632825767
Ni 1.2171869807715623 3.3063514493854917 8.228830033051421 -1.0955267453089457 -0.6030694728707872 -0.34339628111102793
Ni 3.5144416041339013 2.734178025575258 7.14617966320039 0.6060069582325563 -0.5960999835314895 -0.23779541785006145
Ni 4.268390262285616 6.879048905113455 6.099176347849808 -0.2655507335864588 -0.33494352235798447 -0.32342909396048164
Ni 0.6892955898053288 7.323386360055987 11.39225642622949 0.42899190489466116 0.7214919133764542 -0.48084539923084285
P 0.33665759532268813 5.4936866454337805 7.987499456022344 -0.7319053954002943 -0.6245001319407373 -0.4571994776771287
P 8.612230476527268 1.6375213271205387 7.921955978907214 -0.3894498809359809 0.803503676463571 0.8442021826241977
P 2.0110053621890938 3.167787228821347 10.37166014253778 -1.2484274220971403 0.0987730417058557 1.1669234518843774
P 4.0413450567705125 6.0755407812125215 3.874650782305344 -0.17214152729567772 0.5712070769445518 -0.5989346247668071
P 7.158281456212512 4.002342262934711 10.308588317349683 0.1796882292946841 0.28035334581693006 0.2568141250444093
P 6.575126926288749 7.8736969073030165 10.318501113551015 -1.1304922056405369 -0.38794604269694477 -0.9795363112835387
P 2.488864088425558 8.291295007638507 5.8747373489336905 -0.6001062764774052 0.26753922477139735 -0.21487917537352028
P 6.923894442086966 3.9002161699759057 1.6435826087187306 -0.041030949799380954 0.08229561287612279 0.288857012412567
Ni 5.262966020356009 2.942512004225859 0.38597775242716403 0.2891719725498246 -0.3318697685286671 0.5642905523303766
Ni 1.3838993162665232 0.8806260119582613 6.840825444713178 -0.0863705542764448 0.6265562431388177 0.3503081777395128
Ni 6.889271447975722 0.8330162343750869 9.294561733244805 -0.6509688676552272 0.21952233057248643 -0.6046859254282877
Ni 2.5539650703107846 1.4963382572365553 9.084120032417479 1.0206443941777585 -0.7828281503920905 0.26714018956076574
Ni 6.292733694976094 1.8253470064423358 2.7183818489191838 0.7049607484906505 1.58564122854654 -1.024848919177409
Ni 4.183900764918688 7.1288148861068805 10.329194146239363 -0.19233240042125585 -0.433328327486486 -0.27289766086983325
Ni 8.075501823683814 6.975458682143096 0.2817195549014138 0.26063838388650595 1.0489463264462449 0.5772903070241542
Ni 7.740000134267813 3.8570864308326342 8.117753796779194 0.7949033363890697 0.004691491938398372 -0.0707089364797879
Ni 2.946033905035297 8.297300300044343 12.469103787208356 1.3271088352594436 0.093225115304433 -0.7267657601808839
Ni 0.3251247247490131 4.852547179362834 10.119267184761108 -0.8414120214735703 -0.5371031932823073 0.2579901476303815
Ni 8.570157307626829 2.221705335742446 5.578344110377774 0.10780147045671112 -0.030653206109482693 0.6214644304382071
Ni 3.861222406654999 2.7457190236123394 11.478894283090176 -0.673420511790524 0.19802533704097508 0.281578733583599
Ni 1.2640102005072957 3.3230308103983943 12.688877622129203 -0.6921587116299757 0.45049275508091446 -0.3638540347447476
Ni 3.128658007777001 8.358021482205013 8.012215072241192 0.4839986001478438 -0.2195071610638349 0.535800929531116
Ni 5.579395262311668 7.708438484706311 3.5311914031629925 -0.33394182056634747 0.5929642661159852 0.4691841608428307
Ni 3.0754773055544873 8.296884896359128 3.4524579559907718 -0.2575929121919628 -0.39766198443312806 0.6097741385844724
Ni 3.2785103719611395 4.388432896798075 9.220876343899446 1.1746372755888672 -0.3119712298325273 -0.13549790793071503
Ni 7.4258104600063595 6.04557753278761 11.383995311202636 -0.3246169436209958 -0.3958627264408602 -0.4717802037047811
Ni 0.47386814170392355 -0.0007395991699819785 0.27395331209085827 -0.2518359551035276 -0.018345078166090985 -0.5235995023689176
Ni 4.665091751151774 0.37435728585899786 1.6798897938580777 -0.3715359767700375 -0.9260594224113211 -1.1604987793049562
Ni 6.014223585068717 5.5280929071875216 0.408493535217348 -0.46204883534963 0.1642076171605817 -0.07518085620821247
Ni 8.172290882339087 9.077112352858187 11.136017372158618 -0.17731021598081076 0.15715225297569707 1.3703763876988269
Ni 0.1781359368383945 4.675964491086551 5.862379089298522 -1.1487202986127893 0.03382723296209013 0.04342258996000909
Ni 7.72395290929763 8.752691105219572 2.5905196915582818 -1.0251973036557633 -0.1326069595361652 -0.5949674125889431
P 8.510862946819726 1.3940767065543096 3.5079829798802855 -0.6890291648620585 1.640519882862291 1.121225178516314
P 1.642226225381352 3.156183017179993 1.6660252443382568 0.898086077126847 0.44219837628260616 -0.5043792206867248
P 4.723844281065116 1.198466723392165 8.300426664301337 0.015651590494327884 -0.14553318067953 0.24578075004838315
P 8.471860152983924 1.7607517333912848 12.457367730049521 0.5694073047316516 -0.38442645957946053 -1.0579590714678166
P 6.242939435839578 7.596017604766071 1.296042339894879 -0.38605576765276733 0.06900866595922954 0.5855461192750431
P 1.7681025725166244 2.9419250207576195 5.885138695990897 -0.5329709162814885 0.43885182840787645 0.3801977662100936
P 6.864600081279864 3.932211284252415 6.037783295380877 0.7545948665780101 0.22086598908457447 -0.36675758154478777
P 2.3316337935713913 8.459641866329642 10.316122475927411 0.32144163121680774 0.32304085738312754 -0.6347632044296423
