# total energy = -340877.9384217312 ev
CRYSTAL
PRIMVEC
9.20130858487648 0.00000000000000 0.00000000000000

0.00000000000000 9.20130858487648 0.00000000000000

0.00000000000000 0.00000000000000 13.46704519648818

PRIMCOORD
 96 1
Ni 2.115288794403167 1.453328263510337 2.5891469771121525 -0.8457805828549112 0.4473858340208166 -1.3878210655378356
Ni 1.7958653723417202 7.4189321733356115 5.522000549356825 -0.10374478388883424 -0.12856132871188183 0.7214690305583188
Ni 4.786686267548943 4.859339798892662 4.415655466910051 0.8281934659007673 -1.4296395442355185 0.49745421143211743
Ni 5.423297193723948 6.9998125744619575 8.94579453340618 -0.8307959365206208 0.6018392000081119 -0.7940960099964259
Ni 7.059234624286899 1.5964454147920233 5.203114483707547 0.9817112074476706 0.2370351426452692 0.2871089193732087
Ni 3.5709633915625223 3.7162336490162486 10.260878658578047 0.4331802319443959 -0.5579242437927167 0.34138542132858624
Ni 0.3226457202727649 0.7505341660778475 5.0568486446819625 0.620714182535744 -0.02125685249624726 0.3424071777248812
Ni 1.6849804044816457 4.885729151462796 5.092926975026278 0.14262937676917373 0.42959765679946005 -0.13359529159136346
Ni 6.680113113147685 8.366620934828301 6.000713342392173 -1.455735727101938 -1.2540393689672789 -0.8029766003155074
Ni 8.415148635475054 2.741465436821361 0.5319037167931691 -0.14425431396710642 -0.12894288042101665 0.8816613559119203
Ni 1.6088395772438964 8.602781716929094 3.4727467851454605 0.6309320036090101 -1.2460982597433314 -0.6688205511246675
Ni 4.284175210396652 2.27962416291872 8.049239283106921 0.09973489139849276 0.1958941496305852 1.8219626329542364
Ni 8.914972910566508 0.4909873384776616 12.828841463297515 0.43198672585692705 -0.09431320616228918 0.7447300579687884
Ni 8.662866260960817 0.9383770373640357 8.920974924053782 1.5995480684356194 -1.4033433295431508 -0.2483819351166561
Ni 8.70192581523565 6.218713502049566 5.962076128174162 1.0841341872012877 -0.14387610469208126 0.6957698260200017
Ni 4.114898739255519 8.41330837378955 6.595565970530552 -0.1223595707765441 -0.47563711555702604 0.3465988472087257
Ni 5.233713434883273 7.275520580184244 0.1749573589642854 1.1923773731811078 1.8848590153681408 0.37926908374823715
Ni 1.032616838278722 6.753143898136932 1.9709156645211234 -0.4936165828535822 -0.8893744082854619 -0.31659227354430636
Ni 1.482238774589613 4.257574227732685 1.0020841365236737 1.0121628390693085 -0.7484833543636336 -0.3149143716212512
Ni 6.377528085508605 3.6676507405189294 5.995487919336182 0.7561434420120526 1.5912608887261628 -1.7151186413147883
Ni 7.133314358436883 5.967131327024243 4.268945204687418 -0.672574618850461 -0.22819723263866507 -0.8271611679815108
Ni 7.833221085284816 8.89030420267232 10.718542538454592 0.10188870451670194 -1.934118009504269 0.6581479019021698
Ni 1.6323489202762165 0.09102854427348092 7.26056845398952 0.869893930963347 0.7200973470217727 -0.3835551127181007
Ni 4.284902113762427 1.0310986223881808 1.4360850115171597 0.31686583892066716 -0.4828601156680265 0.8735963195155987
P 8.872002800209978 7.385384202808865 3.751878597733628 0.6362341325482139 -0.7901226271709747 -0.004661924252043584
P 8.094694666869724 3.958780139165744 7.334892942943677 0.17051221922237086 0.36291892452498786 -0.5986379194619948
P 1.8444114756053294 6.3465564813415645 7.399642550348153 -0.026636885861237993 0.32182909646321345 -1.0142348911069887
P 8.136155762644142 6.889139236695716 9.943324942389074 0.6659213752000015 -0.09155004159485523 -0.38969156463314175
P 4.367161811104479 6.487814968320891 10.665468471313801 -0.13582983734883702 -2.079789001313244 1.5658730447806775
P 8.213345539042628 1.7121518682681198 11.108238193238716 0.7828253221786131 1.2188229689671461 -0.05617423319872261
P 4.981487168268024 0.3418460905684763 8.612457812871478 -1.9741020060963743 -3.2772353043768265 -1.682509082809883
P 4.348897213875846 3.608725561349075 6.379002135118695 -0.9967511324999285 0.9955596832949888 -0.6208383668184341
Ni 3.8909756973633303 5.976452252461324 6.42033257231344 -0.8083232093394014 -0.11072995695741575 0.08732726176275928
Ni 5.120242899355064 5.640963345885423 2.107120792912055 0.5746896361765135 -0.03288132410905305 -0.49682917625360884
Ni 0.5737485071290134 2.929015706499554 12.048682764606417 0.34583908622456566 -0.12061430595066323 -0.29131035904906605
Ni 8.288538631512344 3.10173346699258 9.450121928842064 -0.30222109242429884 1.4935965067034536 0.3117557713876115
Ni 6.3567975376213965 5.939306570339415 6.8013826776990625 -0.282112751710198 1.0643096962761929 -1.4922603043905331
Ni 3.242099427054437 7.9040711601767395 9.687397909524275 0.19646647719428745 2.677528577330685 -1.1581225657632959
Ni 6.961489124861327 1.2692284844924653 1.6884042113475266 -1.4524951086774534 -0.22743027256565349 0.020045862907281605
Ni 7.212611234465273 3.8814707457576993 11.999581822444625 -0.5285756154272704 -0.7233639335881865 -0.8613231585752005
Ni 5.542638164028916 8.634286996984931 11.359210321515294 -1.2257716323708374 -0.9876933931730344 -0.030044883101522445
Ni 4.801868426454356 4.770629984342916 8.384985826318792 -0.9527009362582495 -0.5614911352083685 -0.6564165210333598
Ni 3.0688295880557597 6.319173387461257 3.6332332463457813 0.22635452300297146 1.4050821666111286 -0.37818664931733575
Ni 1.8736716364048513 0.47324445543686977 11.786626740198045 0.3253049708269559 0.16647301615599072 -0.665686633481376
Ni 7.563917190228085 9.068846391399969 3.8799497694746297 -0.6312186816114935 -1.1967490198862423 -1.085864025408201
Ni 2.0577438114974407 8.76291208749327 0.6290741344420212 -0.11488897343111182 0.32715076578644303 0.5114284142240225
Ni -0.05704719211979727 4.309902068760006 2.8199719204558265 -0.3185918204728384 1.0363877730549442 -0.4544915918276624
Ni 0.24835343589810482 7.680341345761528 8.068321876654759 -1.0228259752101094 -0.3126384311028809 0.8850791233442176
Ni 4.958980767854303 1.2509546859554053 5.963961476270962 -0.043775345313737515 0.30276848028733666 0.012997183590616327
Ni 3.1789416460079227 6.164922652982268 0.5931531464718157 -1.1258547068685256 0.19806441780902664 2.0607975478124057
Ni 2.6258970029716773 2.243472222106984 6.280720199411797 -1.48201240141028 -1.3958045979639446 -0.026647427384199267
Ni 6.732652584268839 2.0434357768926428 7.4982759760369815 1.0255796266958466 -1.000247061468329 1.669696504426247
Ni 5.4654575889388575 7.99283618257705 2.824012214986352 -0.090699777779418 0.8594791633879263 0.6470916440880081
Ni 8.63863921587115 5.012928039164869 0.14541471799603867 0.5225116686213775 0.3942899826371016 0.44000933905108736
Ni 2.5442353906774144 5.712567928068403 9.339907736366357 0.8111894751436031 -0.4114654659751236 0.49026797809632344
Ni 7.423348801380823 6.887943066600138 1.8401770334669836 0.5983710389538534 0.03791734387106373 -0.4106262579032799
P 3.442825970400843 7.961689753549886 2.1503908659233226 -0.706163767659816 0.014852748742116357 -0.4354787981705855
P 7.18186966300892 8.73342189398306 0.4167723450937927 0.2203970198679559 -0.6980601647160751 0.05638069278257386
P 3.819941596302856 4.034571316683247 0.9977098344972295 -0.5969551324429332 0.47555612580744544 -0.46165417101437267
P 1.3552239130560912 6.778134651826083 13.00903068623369 -0.9871624603702288 -0.1387261850600256 0.784094932919656
P 2.697658007397926 0.332565650888477 5.087028016193393 0.08498267278998267 -0.5597643823252488 1.3608327098744497
P 5.829222116312534 3.578499263164663 9.884016068657791 0.18008957849816082 -0.03712210166327801 0.7889018673899961
P 4.439631316279646 0.9409994102658795 12.799187486497294 -0.3965414976754396 -0.6557968851714899 -1.3800231667599716
P 5.581421679050924 1.1594476736436934 3.576174092525028 -0.04376454668046011 -0.5347691458324919 -0.30357992044503845
Ni 6.59512062720266 1.2771692136654174 12.383406122321146 -0.1780126413644741 0.12881792480737816 1.2992481042934334
Ni 9.459773181251693 2.1466284509073086 7.0538362166324715 -0.7854182797167699 1.1242009733151863 -0.518713892141842
Ni 3.024681710220506 2.668186216504571 12.881700219821104 0.25738490994621477 -0.41232755686510286 -0.030521565627624852
Ni 2.3807649451540485 4.825294957710828 12.098389152862735 -2.004276729907542 1.0450505909362648 -0.9405285625617738
Ni 3.9284158213549194 1.239591070047415 10.615654427748877 -0.47420501109618984 -0.20759446878664894 -0.2281761495927425
Ni 6.465115340430192 6.146188789023833 11.128169147423572 -0.32538956012096215 -0.18467334121410128 0.5665425815893469
Ni 5.078008893672736 3.2323828453549734 2.549904316799611 0.6311986270068356 -1.1896995692386283 0.9238361895077574
Ni 8.190581501992938 7.014589875796559 12.538693844259917 0.6655382808289699 1.682543278481928 0.13542925947630868
Ni 4.615836372666704 5.0698105278638135 12.54070064962796 1.6145360572040195 -0.41222008475296107 -0.827671017738394
Ni 1.9054437544050866 2.0916506330528613 8.769497463934849 0.11273233209942521 0.09395710837445108 1.1593633801489325
Ni 3.343461040692026 7.619327469578626 12.201560663868017 -0.4213711551246098 0.6438409983611943 -0.44749613434643576
Ni 1.1265069894731623 7.1163471456965315 10.893775936671704 -0.1299435537713891 1.5578936261196266 -0.5991806793393423
Ni 8.85468593774938 3.6967636803836106 5.166658899717702 -1.2886978395814128 0.18274192851934334 0.9254690971254901
Ni 3.673061109874313 2.173220232262849 4.265551762139347 0.6931509003399159 -0.2633601536930432 -0.9659351755603365
Ni 2.870651807143778 4.036485188836172 3.1050422575031176 -0.528850723465528 0.6754267435872755 -1.3604318748916056
Ni 9.143993477327545 5.101775873341027 11.01590766382274 -1.6022832079785956 0.7898809434738139 1.0739726732872537
Ni 7.034372688915733 5.303937820802125 8.854380454309586 1.463931375538853 -1.078563892202362 0.8754760530368149
Ni 0.3435731761603223 5.205373404926504 8.605293674129808 -1.0571208918372375 -0.15023418569962513 -0.653999426951435
Ni 2.376182693557142 4.234543352738595 7.290115695611981 -0.03559203817199677 -0.009056196664997306 1.4229428489416334
Ni 6.986985950513991 8.50983009919426 8.402762754200767 0.3729619105832867 -0.017561663032847175 0.0898849951876065
Ni 6.199915228932137 1.335937970592004 9.812601033428418 1.9209786439088337 2.2989022693727694 1.6699106773195822
Ni 5.808335146182058 3.1030400527892885 0.3299598403418026 -0.5682171410782924 0.27087625956443023 -0.5044465835895506
Ni 8.933301916954132 8.990110795185657 1.9178692013056131 0.19006520165363397 0.4619763302404818 -0.7225224115234976
Ni 8.437783854206758 2.0732388148893883 3.367636558454499 0.9434552492902656 0.36154852654002245 -1.2566279556300617
P 5.0507270141851315 6.943298138100114 4.8186028460914905 0.605806412185976 1.0945486976663923 0.2865710445918678
P 1.2238384300194962 1.9513398808415694 0.5681338687265391 0.021997844427329858 -1.1350227465210387 -0.033996925770734994
P 1.3274635655302558 3.8749102128488757 10.112888494353145 1.7105112244497638 -1.1140500009241134 -0.617035448132576
P 1.4908696018946292 -0.10238111861135828 9.628129521550074 -0.9462587801773317 1.3193613301035405 -0.3483754794931742
P 8.28509734216045 0.16302510219547411 6.79506689959441 1.37768423421415 0.7513964142453704 0.6718079158877656
P 6.988780205657359 3.7872125422261576 3.36719213525745 0.589310728523798 0.7741427068029507 1.0636198692980199
P 6.582312405871548 5.673121918839614 0.12762030762805274 0.3950739119909777 -1.7240041167298759 -0.51037991835485
P 1.3687866416782595 2.852414813840429 4.055317506794783 -0.7752076577323552 0.2914126889548852 0.6661509747123043
