# total energy = -340868.22643025353 ev
CRYSTAL
PRIMVEC
9.30181664986887 0.00000000000000 0.00000000000000
0.00000000000000 9.30181664986887 0.00000000000000
0.00000000000000 0.00000000000000 13.61414890911933
PRIMCOORD
 96 1
Ni 7.760710264584288 7.440197568542735 10.1048294504178 0.031204450627262393 -0.49714799304560825 0.32129713521914344
Ni 5.9517766803518555 3.1748867545116206 11.308184075245697 0.7262646521747492 -0.6086626506878485 0.35485440234929855
Ni 8.35556143885533 9.0676248046352 2.778157763448572 -1.8845242577365418 -0.05186146475598165 1.086234264263426
Ni 8.089259730204734 3.083914987750545 12.335453450672723 0.1307285115665297 0.9311142112264095 0.8974283889381899
Ni 5.93449390503058 0.4254530008542761 11.932761064960337 0.5362963811102958 0.1716890131392914 -2.984795716819324
Ni 3.8777413218156753 7.829311162320785 4.857147269528408 0.2684393679881635 0.6456399992431461 -0.6371255340142317
Ni 0.39892421979061676 5.652713973487301 6.437682187564029 -0.3995592014558409 1.55428122617802 -1.0016614253173524
Ni 0.5740095239024473 4.877798232655837 1.6058572534807822 -0.028964762663466245 0.7403825796333701 1.0919256582212484
Ni 2.5162623253414025 8.796839620363045 9.432767616926206 0.15945698984947376 0.0766749242552357 0.36554119263918333
Ni 9.321722529851183 5.4408557976437155 10.645651952904075 0.12852404771604317 -0.8776676613714949 -1.5216927507190374
Ni 1.4214664120000582 1.0037590338637727 10.83001488893487 -0.18408353014890233 2.1757045189656465 0.5160237469041886
Ni 0.9478272103940028 0.6706116802770691 2.307830008567153 1.4370661757168928 0.19606332821859784 -0.5700534229560829
Ni 3.5367181200779902 6.836630592077916 10.303841817478455 1.0059680231125063 0.38175508339488445 -1.2044733851136935
Ni 7.008193298227331 6.919956265559073 5.670619970523607 1.1316342896647802 -0.7179183370925829 -0.4921297138954105
Ni 7.849533311701007 3.8499567955053142 5.2736854093127645 -0.2714820114692293 -1.306693761938201 0.9962009164234134
Ni 4.192803153304878 4.947515348389403 7.28921978262259 0.6796901468493197 -1.8363350996258245 1.095517489337565
Ni 4.14432208496554 1.3128584008853013 10.450234737975643 -0.5749248921157711 1.0470758488964096 -0.1872855820259678
Ni 9.285222201347045 7.593296168657311 4.614202422466467 0.14151094689401436 -1.094292358681212 -1.0298599992387556
Ni 8.26119450901984 2.566538644292692 10.173104784571818 0.05437163277234507 -1.8674801577700613 -2.0277089927885528
Ni 3.3039866676892253 2.915031204794094 8.452521715170679 -0.15364886780812892 -1.4671961623330538 -0.18149982858212613
Ni 8.904880220662625 0.8502902214468362 4.749813607293637 0.3044047303391789 1.8006690136827828 -1.0060466988692416
Ni 8.945789610255183 3.8455663380501783 7.871660473129561 1.0836400211736885 -0.032993424206885114 0.010223477500221102
Ni 4.639820555680852 4.941329640322315 12.166788260407364 -0.14857942370502153 2.04015158942728 0.5882128674739289
Ni 7.052330418194745 1.3547537830419358 0.08324753822136242 -0.7268315804218127 -0.0442851950706205 0.686684575889282
P 1.01693040622918 2.0565107359822066 8.578329715438596 -0.5322029277672125 0.15677764324509774 -0.09465130622799828
P 7.612318383690685 1.9754919130283242 2.613657926675607 5.1936283857975074e-05 -1.7603435745908587 -1.2460100709048991
P 5.882757200866458 2.947531752142069 6.052251182994641 -0.8068386543740749 -0.07595501537007564 0.040048274171137474
P 3.933105734470269 0.26241354929414223 3.359195740005893 0.0925579140340793 0.3832491514419077 0.09385734957179319
P 4.542932833535313 1.9152812539031252 12.609860762345363 -1.0901819360572644 1.1470511384404825 0.06758170370471586
P 1.0263717501210503 -0.01600191516963996 12.875172757705228 -0.19427409752865896 0.8585121714889666 -0.2470768431519874
P 0.6690712994411147 3.3470447769261398 11.162812494215826 1.3834920991451787 -0.09931348759035799 0.334124883111431
P 4.665781925929335 3.7594966286595617 2.43618391605005 0.7474009199327322 1.1510980548163465 1.1295915482031385
Ni 3.127261453303369 9.161498738188653 11.983201095884528 0.03881928686004282 -0.44373126798736484 0.861484109633097
Ni 3.613113940160681 3.4995666644088965 10.753966026612936 -1.6251007200937433 0.7343006351053482 0.6277739175960027
Ni 8.915688931600904 2.420723366608988 0.7791108601371118 0.5909333517288855 0.2871906804537377 1.0702070355972342
Ni 5.3511583797626265 8.324018978621506 6.87036642067598 -0.07619592773628814 0.27256933099613706 -0.2789081287299712
Ni 3.0042635318430713 5.755936232766203 5.452943508370303 -1.6214379265301755 0.19185751766736636 -0.49720198621199535
Ni 6.74204041864301 7.7763652219931725 12.782283886534188 0.4845418742458235 -1.064168285602322 0.6864274655731534
Ni 7.645823527236021 7.95800179556613 7.8280675094357175 -1.3834491617223852 -0.8103289269155206 1.7278422595290435
Ni 7.8753923619664254 1.8108404566440903 7.4410310113138785 1.6764173680898482 0.6981997756177329 0.13867090634205798
Ni 1.4219501064654545 4.468471791314208 4.360707454968901 0.3367337814891878 0.7492415726858968 0.9654726341016212
Ni 5.0451100085997505 8.823135856010648 9.584074687155486 1.5331801825333466 -1.9420730026852875 -0.9940974969271655
Ni 3.4844977214484727 7.0800963408718225 7.701632566726114 0.08631090468310297 0.693984966205437 1.0038705171535292
Ni 2.1930148952070314 5.776679283878391 11.622194801454325 0.42433975083463044 -0.1829933824085171 1.0092014424481393
Ni 2.1734159675418385 4.804555728414866 9.297156432099035 -0.5571580550506533 0.6619842449291244 0.43116063041120584
Ni 8.548490417831964 8.855813137874826 0.5772130695540336 0.7933205652829821 -0.11733434964781084 -1.432767805451855
Ni 4.391127185934009 7.3733268087016945 13.066287882436624 -0.797021411173337 -1.1718275740542141 -1.0110850326240974
Ni 1.8588843396012433 2.3021066007871847 12.949043134569552 -0.1536720077365805 -1.042717571927714 -0.1908239341965294
Ni -0.1437214387575365 8.92802314046851 6.559922941149648 3.6387293235298306 -0.30055141803135976 0.9499064042322479
Ni 0.9213802853167951 4.53501698757277 12.9781773544747 -0.9129858770568147 -0.3608319600889721 0.49890148540160534
Ni 3.6997231549165477 3.519072573907667 0.49437853199158655 -0.14226813677501307 0.023897889663520133 -0.6051569515274352
Ni 1.8958962680207037 9.279315547779225 4.807850431869546 -0.7819421482427114 -1.6901781693193667 0.161944789268334
Ni 6.650091961134499 1.4978994393493181 4.519067162576326 -1.1278287998757608 -0.36211056969107963 0.26009948066390043
Ni 1.943595983762094 7.605648981158201 0.2811892661864972 -0.22519546969786375 0.1549570450965912 0.5978992415237574
Ni 1.0172373661783738 7.346342238622565 8.357712018863015 -1.0230098090861415 -1.0438190325220087 0.23302653570650836
Ni -0.016445611823474655 9.468877269131369 9.223300007959674 -0.4599402736470595 0.0004154902708638006 -1.0889159248606473
P 1.1979158526371814 7.55636795658763 2.6689990847885947 -1.7114908147542136 0.5788118858750032 0.0040790551653800715
P 5.53494367297994 6.87561450562553 10.848448298974793 0.9910551105564159 -0.08235012026314203 1.1120088021243688
P 5.028310927743871 6.214301851445705 5.786693619675423 0.8888190500026241 0.3786779871314575 0.47223374630243187
P 8.487033315276706 6.041399683699808 8.205233849918478 -0.7541001863297787 -1.1434978738715855 0.9425252812768284
P 5.6895398655739156 7.738423111909489 1.2623532572446126 1.011042095201304 -0.46175161582418545 0.8974993513854415
P 3.663632106344669 0.2869712754113116 7.816005843795729 0.7036937088527687 0.38540347878074915 -0.8464210446523873
P 1.5867410900993217 2.8688848924319568 1.5857216109953325 0.34858836683492866 -0.0990689756797197 0.2933798399835851
P 7.2036244658807265 0.3474935453940253 9.825249398510408 -1.0978798189221544 0.3515852446797235 0.049841091891843194
Ni 3.2600727913212255 7.610374304012457 2.3232412583800106 1.6049923793796421 1.7730509948551978 -0.2981860031229768
Ni 4.96730031238744 5.62854785385077 1.073383131430915 0.23967155182685176 0.4712970934207754 0.8296024304331518
Ni 3.226707175025522 1.3185976217535613 1.468585694382973 -1.7129059499341857 -0.410862285173486 0.4226963016939365
Ni 6.535940067300969 4.652294291798091 7.321880321216811 0.580116977839672 -0.9449935403116627 -1.9114365087463532
Ni 9.263809419436615 3.260649503953044 3.234436054473557 -0.45634921386169147 -1.8121626161446789 -0.11179850743124617
Ni 1.9920863539180744 4.148917182386805 7.041482639626569 -0.5300511715315323 -0.5050579919213044 -1.2472287738033487
Ni 5.878096990728698 6.272121943693849 8.697834804749734 -1.0689453952759913 2.2031659576107088 0.48109479623748763
Ni 8.396284792115043 -0.11081347184063117 11.629451148616935 0.7505988580447396 0.6739409030703684 0.8368007479538039
Ni 7.259351649384366 4.5587645254604 9.46209252407252 -0.3597757509103159 -0.3705360747506135 1.201055617681396
Ni 3.9540906328151553 0.9577894560178384 5.427906738696057 1.7071896162756985 0.5355286497063358 0.06494169497870751
Ni 7.164594043249901 5.607535050055957 11.639715703281643 -0.6517458550305678 -0.857679391175026 1.209069232014492
Ni 2.904603868338146 5.424168338587543 2.5166297470987704 -0.21020825226041218 -1.7467843478491853 0.3420397670831335
Ni 6.278568102626919 3.9984509963819823 0.13893100318678456 1.3630058062663688 -0.5941071214711768 -0.05570860641621373
Ni 4.831670523926986 0.16891075822471374 0.2801549041758805 0.03357243663880669 -0.05153056377912416 1.213638339442413
Ni 7.935491399291918 6.705800541004855 2.2966389929648776 -0.020353881066003655 -0.2589041748042186 -0.4597268720846727
Ni 5.6630203863269 1.3922215004768657 7.718364674502169 -1.733907234776201 0.1540273341934702 0.6645743742538037
Ni 7.1130805826851935 4.089059992294011 2.683158310081408 -1.3803602383844165 1.0187430633899874 -0.14526398617854336
Ni 2.137045864470693 1.8065430173553771 6.562033523345772 -0.7432601582914812 -0.38174942696792963 0.39909897398997074
Ni 6.338648536319127 8.25275776132533 3.742856608868264 -0.9714273090231591 0.3135676277853696 -0.6006616347602429
Ni 9.277762144399972 6.8977156219674844 12.517774637950549 -0.4694034759424884 1.0124366615559854 0.13787437858269158
Ni 2.0634964002805263 2.1209444198629805 3.9264977239276235 0.46910497086546304 0.4884455801756039 -0.3708965434138258
Ni 3.8384225428689405 3.530383582944627 4.955141907854372 0.5691517370774198 -0.08991250599143225 0.08619803325432251
Ni 5.269572145993567 5.9033142156458025 3.5596508188277607 0.15335370516521332 -0.20914767220638175 0.31347558229219563
Ni 5.348246911153606 1.691088869191934 2.154425378685048 1.8156752572836279 0.3752396508738699 1.038764757927553
P 0.41280532076582677 2.7690391925941875 5.515405207122923 1.1991555724452057 0.12004377815917391 0.34617024431173926
P 8.108254039788182 5.555686724092129 4.18372365008039 0.29602319114370307 1.9430063131328343 -0.795007980287734
P 1.1042651626831412 7.419352197447482 10.605435548651364 -0.18576734560922845 0.3027114017971561 -0.3790047743432569
P 5.223928131730111 3.128340464033868 9.28337951147022 1.372891955031829 0.6517306855219163 -0.6456523405383203
P 1.8750881041920202 7.528109037628515 6.415490843600645 -1.1372868599648671 0.13971477422554004 -2.4385046863901616
P 8.176250319442932 5.548849888860085 0.27304273517122624 -0.5485068071335587 -0.8437154727957663 -0.2215630151515991
P 7.1837185782663395 0.12885434521824943 6.388670915676084 -1.9181882256478897 0.3078767480481795 -2.3962876867024794
P 2.9501362608018957 5.664536582439585 0.21082195346964008 -0.1985164177447807 -0.3708713466028451 -0.8035219312960161
