# total energy = -340887.1871427999 ev
CRYSTAL
PRIMVEC
9.08008111480155 0.00000000000000 0.00000000000000
0.00000000000000 9.08008111480155 0.00000000000000
0.00000000000000 0.00000000000000 13.28961654017885
PRIMCOORD
 96 1
Ni 6.694707259704554 1.89825445356011 11.500820363821047 -0.42141049300297745 1.2730195096142076 1.2685887275363636
Ni 5.094878741993072 0.5486293785400447 6.423509762176053 -0.7673128283653109 0.5393107424565874 -0.7255254600158795
Ni 2.95668315307119 1.7732943814750126 5.005719612519305 0.4639949033324074 -1.1339719366590213 0.807850640578357
Ni 3.1688937216441313 4.4672453963553655 5.108169256272316 0.5330022837400563 0.741554231343968 -1.907330714108096
Ni 3.7191738588751413 2.8881285429678267 3.0735555971802526 0.0034830734525940015 1.148325634277532 -0.5719979482769633
Ni 5.163324391126735 5.048361488011677 3.000742429177753 -1.080481678050365 0.46376324693757554 -0.017411510608228077
Ni 5.332876740061847 3.630170906791278 0.37133172067537284 0.2098632102161676 -1.8668759485271589 0.16368825432200196
Ni 5.751522945813592 8.630426126680092 12.51993503745603 0.35900339152066557 -1.2876058920688147 1.2589548039910252
Ni 2.587214664977699 5.445660423782891 11.622420806007039 -1.8743483456448042 -1.055004616825183 -0.36673701271949743
Ni 1.1937945442025952 7.766628959296905 11.861899765255664 -0.7719950643323286 0.6302910275909015 -0.6658606971653953
Ni 0.6540191524588139 0.29016578633723317 4.694517094965187 -0.36008196929682507 0.3297748336728514 -0.28892463242570887
Ni 8.944351760468646 2.601969796291337 1.4091640728887758 0.27659644987765913 0.06838054545692739 1.6335833036434575
Ni 1.7641234998585362 1.322141486429223 2.652979874256724 -0.10247594447873964 -0.14489863241932466 -0.454318813695224
Ni 2.0512992155855656 6.779043050252904 0.4541447816721549 -0.4697773143421394 -0.23924500581239444 0.554468166923316
Ni 7.308938406069074 4.4568759440721815 3.908330102275574 1.3168015397961645 -1.5250763224792894 1.9094716717104985
Ni 7.6797779863646305 4.0106262926629235 12.88329898722204 0.11217697381658745 0.12960673925726066 -0.7941505173834452
Ni 8.440788638996814 0.23395554609287939 6.990603485039964 -0.2653357893621753 -1.3688789772176941 0.9202996371094085
Ni 6.886306044842444 1.2866020501451747 0.6004412276408131 -0.6095558519260792 -0.5595090717813331 0.9096694110890721
Ni 1.6264967150457312 7.02968960088777 9.544868352780169 -0.09168476740050661 -0.3219771920053035 -0.49021269937835577
Ni 0.11768238731717096 5.005185703767771 1.332895026130602 0.2059880435314775 1.0537853997061013 0.3133457415825507
Ni 6.3492283451068365 2.591772865543512 7.22782332018346 -0.5283624709751997 -1.4227775270083627 0.4091861830226437
Ni 3.436111419754314 4.878082732611892 0.6402946103169287 0.43193787489686253 -0.242099444542054 0.25505189093766395
Ni 6.221290006516587 6.338631890803442 5.09998356342355 -1.5197484825084728 -0.4870067908465484 -0.7403789800889443
Ni 5.33286765998104 3.2129775139688768 9.803922150235527 1.6534543315357717 0.0890370453650144 -1.6440186400441688
P 0.09280841395066056 5.945273710103071 12.389284478728312 1.7877294228029792 -1.1584832915368242 1.056784077323109
P 4.0315377187646515 6.586518096872558 12.710454200985803 1.2968996586659147 0.7101160674393447 0.6655583354336279
P 2.4910202888935893 8.492000294756147 1.6741462551039326 -0.25304180248617064 1.4750208005837953 0.553522515180595
P 6.725307132028838 8.253493812162102 6.182555289796064 -0.09596642549499602 -1.273693909973413 0.26605364136480636
P 4.8174005525694055 1.5590226345585665 12.94267726766044 0.9626927573636387 -0.4185138881814728 -0.3506812448082154
P 4.238636201842468 6.369068321673174 8.308189494927618 -0.584284221843484 0.7284665449220744 -0.05823291549996422
P 5.196139803168265 1.2533235539824163 4.1915850391095395 -1.4631345906691704 0.4305854746340262 -0.23576681745580685
P 0.6607692845317729 5.667277956073327 3.8982966129823002 -3.152614191259616 -0.719079961500852 -1.86238705951787
Ni 0.7517317180540873 7.417944776173825 2.54486880011968 1.262977037776541 -0.5114389557469837 0.596122866349625
Ni 2.0685332089598947 6.719150837240747 4.896798595174151 -0.3519649966166455 1.3005819926135085 0.29241310519494157
Ni 5.997411534104861 6.200405820657283 9.569919387722441 0.7454072865414711 -1.214242291574999 0.15931172252086112
Ni 8.721136133955934 2.6265677352012724 10.484417002315451 0.6094483798139375 0.19156081236255396 -0.16045252099352364
Ni 2.4289942568914604 5.380901287457436 7.046327032952988 0.314642091796471 -0.3739003632371561 2.2536943053775635
Ni 0.7837271987986199 0.5309904135616614 9.337297705500315 0.4302414610310461 -0.6789134165842953 0.3975257159655799
Ni 1.6547176061982152 1.4366140651806272 11.778626344161896 -0.41440295133689276 0.34958672619245595 -0.5844181763181872
Ni 4.361961859382054 7.466586769064384 1.5526792901058235 0.1156767594397298 -0.9062637278416328 -0.2860267420526235
Ni 5.562312221928309 8.158280084805298 8.327233148407059 0.5088336569136527 0.40207913966421716 -0.5595036724646945
Ni 7.281225999441859 0.9348215594664327 4.952628380032634 -2.289413356045728 -1.2961177861945676 -0.9967156512763028
Ni 1.168252276888587 7.398949247122668 7.135142027364117 -0.10366019459482792 1.639066952465848 -0.42787553190203087
Ni 5.222617318805538 4.76568949236561 7.099180367322479 -0.978668821076921 1.1744575554778935 0.6240836132286091
Ni 8.29208415559777 7.718504531012425 9.185676700145615 -0.5760358657917628 0.011703661590173392 -0.06493809543428172
Ni 4.975466599281902 0.6300622672539512 10.588395731676597 -2.2896429555580307 -0.4862516578480787 -0.2864867124081776
Ni 8.422773758672964 7.3958892598902395 4.919190982455728 0.18436583727601152 -0.09794514648792164 -0.13715652658006056
Ni 7.3976235553246426 6.261360403124023 7.061583384727249 0.22553614086673418 1.2890562513620962 1.0556036838617626
Ni 2.498511355560513 5.61602997999076 2.72466348020666 0.9313312123332219 1.3714945604636701 0.9979019582749201
Ni 3.6279826073164556 4.7335460063039 9.42701616795188 -0.6932722564091286 -0.26557284507364587 0.1898255748390021
Ni 1.3010121383880937 3.24577476584879 4.057385984801902 -1.790685934328142 0.6493326176033849 -0.7133389452520167
Ni 0.7961796216192494 0.21067603491632272 0.5668658128356202 0.1388367424959609 0.48197385640833124 -0.10806115187600099
Ni 1.50172732465761 3.7306692411785662 8.546658749190348 -1.0223282096380846 -0.6486880420408506 -0.6175488974338849
Ni 5.097157842275978 3.338464230740861 5.162895811312578 1.8854058890105465 -1.033274424236943 -0.8606819254467757
Ni 3.7479395548761287 7.18547654731736 6.391122929948679 1.8457980448109372 1.125957293884661 0.3930465971483037
Ni 8.422864559481047 7.430202885265155 0.5759349975470426 -0.7123375005706958 -0.5049137530339562 -0.5747402869087908
P 0.0923099175142798 5.963760754628959 8.18859665860836 0.5933195925728749 -1.5747994007360298 1.5360577611914579
P 8.653235289670775 2.053732677242215 8.331778636859738 -0.01820006794779446 0.1827938648032013 -0.4603778754051104
P 1.9724114735222518 3.482365351392265 10.671774481707741 -0.034892183891494746 -0.2396658953998969 0.03839531194874677
P 4.116418314161505 6.61576503715639 4.315018749610746 1.5521307554939205 -0.8895520715139068 -1.7414331108396008
P 7.04392716759533 4.312375538087423 10.631573331936664 -0.02559507486028495 -0.1158528800062779 0.6612900470755773
P 6.434108940503689 8.141708937329982 10.47136711017763 0.5975698832087967 0.8465390582874903 -1.0297468706996589
P 2.3301757374537244 8.73809772490601 5.74965971323171 0.8706827454132295 1.6086232912640104 1.3786617676360708
P 6.8327426481537366 4.312330137683381 1.7347203821847996 1.4271185775858777 0.9958427617530462 -0.39493301553773913
Ni 3.029714243013091 2.5084177237224687 0.4652923968806184 -0.6664520508924909 -0.7408428070992403 0.7365984300005896
Ni 1.515102283688372 1.2399667551132711 7.191050808925633 0.6777607910370909 1.1369888691084742 -0.8862093802939189
Ni 6.950084532440593 0.9808575691649826 9.225239520235862 0.9374555800634049 -0.04885867337391585 -0.13159908709694107
Ni 3.0699208408326526 1.8362647418812146 9.540748720117401 -1.1000202623039248 0.19350173813900867 -0.19775074322334976
Ni 6.2592265841340495 2.475193708044561 2.676501823590865 0.7680448214353288 -0.1919215381360824 0.6446670938069156
Ni 3.8016209926153457 7.123840958789992 10.602787659757897 1.626227891719651 0.7227234717907102 -0.7822843620734785
Ni 7.325155430392862 6.700227948836057 11.692642518946823 0.13886219641725764 -1.039196446148333 -0.18725138635392266
Ni 7.350343574555343 4.311267768228799 8.46187077061774 1.5837900342704143 -0.2978417324096806 0.904402763373494
Ni 3.2632448413241373 8.996680266167411 12.774098303387987 0.3135339463339568 -0.6331498371959353 0.4202470688224956
Ni 0.17998082174355187 4.937956785462432 10.262320949766414 -0.23890227776099499 1.4043044079048395 0.5666477397086435
Ni 8.390321549863769 2.414974612123302 6.163471683961066 2.719049322282291 2.6798628818908172 -0.2610854987262536
Ni 3.979999180096216 2.9800371209103758 11.515106962964973 -1.7401174773519708 -0.6187362328737667 1.4338445834558016
Ni 1.1433274550695496 3.626502554144688 12.735505235928075 -0.7684615972577733 0.8108768289991906 -0.0955751035938483
Ni 3.21126137869609 8.854104837314033 8.201766407812853 -0.2632125723715854 -0.42655758442155567 0.2727750192490399
Ni 5.7526216355914075 8.222639697575184 3.554227834934126 0.6332112865614901 -0.06646610204303392 0.16032088051166582
Ni 3.3913647815305556 8.744898705431496 3.714461296935586 -0.3937523649660767 -0.32822702956975724 0.46190742467575935
Ni 3.673755294671562 2.9323757767471235 7.183316396093043 0.04774332882255003 -0.4045276012047098 0.7739449889698478
Ni 5.15849378813667 4.900819254956107 11.611881556212738 0.6013586608272676 1.4961305859792169 -0.0702754484867951
Ni 8.134481193006502 8.837406568707399 2.6467200665474184 -1.0729943685343843 1.5171089880030968 0.1633172441358284
Ni 4.446742573890016 1.012093047145853 1.8504332999746302 0.1498356647096258 -1.3499289184777525 -0.4252391227204482
Ni 6.096048451926428 5.944656264608101 0.3611084576932037 -0.053966169803810284 1.3615824435562809 0.8815842228170817
Ni 8.39675932715692 0.21590252942963342 11.24834417690329 -0.2601642724635648 -1.1420130617959428 0.5771648371898833
Ni 0.345556095284589 5.106882608821767 5.925560854668051 -1.0894885095346656 -0.906894419447096 0.3817319434664329
Ni 7.558822229916035 6.3096755131054785 2.6983902663875763 -0.41151457404550423 1.3261827239007482 -0.6975168906180955
P 8.552564433748126 1.7731672603436952 3.495009363917952 0.9692984356056146 0.86441336746475 -0.6562900227578246
P 1.9703502951787466 3.8126623708783507 1.957441144293455 -0.7128141830967981 -2.4280073864032636 -1.6902722716950696
P 4.951931029826549 1.529076528052488 8.538365911388043 -0.6772278013517563 -1.0920020199851388 -1.5426546976826851
P 8.654125137589997 1.772050410404263 12.781859956463 0.5713723988778224 0.4041424499511491 -1.717029742294572
P 6.445386400867712 8.155583300805207 1.402346748217835 0.5711587402051197 -0.2577734036338851 -0.2401937428789089
P 1.7430758725446824 3.295297526577763 6.191658978814559 -0.4839222383839537 -0.45823203270670115 1.3886744146770664
P 7.139531338426894 4.307208972107448 6.190728270531698 -0.1986074347966902 0.1893766602270416 -1.7447994562086726
P 2.587405346674675 8.884622988911039 10.556672653356314 -0.31731886729768577 0.9543847517185756 -0.7834411013857411
