# total energy = -340889.80265652644 ev
CRYSTAL
PRIMVEC
9.12432642902327 0.00000000000000 0.00000000000000
0.00000000000000 9.12432642902327 0.00000000000000
0.00000000000000 0.00000000000000 13.35437402992477
PRIMCOORD
 96 1
Ni 6.655438770114728 1.9592483534510374 11.434522779445736 -0.13145304843738007 1.0270693238674957 0.9705793592005671
Ni 4.701008060988707 0.4267082471661414 6.15321486058659 0.42918987983808016 0.3502909513483322 -1.2334188645034498
Ni 2.887347459147449 1.7448814296405484 4.53673460139938 0.1842858759676955 -0.36826784754172703 0.7103135281621316
Ni 3.362432884743965 4.337494898282915 4.667567404831159 0.39426247183327584 0.19822356909471023 -0.12436605968361161
Ni 3.5302748683778264 3.1131471639034793 2.4129883299302355 0.13201766269159845 -1.7700111795876095 0.8215481926701077
Ni 5.207289558454979 4.7488469041630665 2.448845107711391 -0.6442726865819742 -0.10864710628645805 -0.10108112101374203
Ni 5.296470724426024 4.71858151358337 11.515971078815545 -0.1628780997158808 -0.7782875822092596 -0.9483753122997021
Ni 5.3793743538523495 7.74622461504418 12.483187996538872 2.2096993878538522 2.2579196563128208 0.7292538167100602
Ni 1.9791393849444767 6.672957476751152 0.3064779109799478 0.7653616181762108 0.47748188207524866 -0.8963598384643595
Ni 2.7657293129199014 1.8851770719539083 0.24714515387334757 -0.17060092228143522 0.28922673704715995 0.9318950552564919
Ni 8.313173758565442 9.139199025125565 6.615809995810918 -0.3669702117762261 -0.7653904145316173 0.561711992969923
Ni 8.848242505738963 2.213406464574778 1.2735625259708638 -0.43845305030756104 2.1276739979199806 -1.7716741691123294
Ni 7.11271351063088 0.8568773513256138 4.739200666321386 -0.9754914517902039 0.9390512066852988 -1.3447478884974453
Ni 0.7570061245758016 7.484548058988973 2.3436662603103247 0.5952538334811103 0.7236436696121343 -0.2211012450238321
Ni 7.668074759658258 4.059193819575853 3.7470907613868656 1.0405380477778916 -1.0159210205601599 -0.3420935031392044
Ni 8.01894160601088 4.08323641956907 12.489076836780095 -1.396961337276207 -0.3575944269882809 0.8881780739845155
Ni 8.358403044397084 7.8983727573162446 8.716186130140546 -0.8160169784392333 -1.5435805519310644 0.5748199911067906
Ni 6.91279951979544 0.6627883304467853 0.24024077610679453 0.43294291912260924 -0.6266351760058693 0.11481826809417645
Ni 2.0868611821057366 6.696188011697159 9.196276248752726 -0.2285152780997161 -1.001678651708533 -1.0684741120665275
Ni 0.3059076405816267 5.222216956401431 1.3422349435530074 -1.86949718820009 -0.45246993341194336 -1.1296969634327512
Ni 6.611678500829161 2.2056690358103577 7.064798023114986 -0.30799321902138566 -1.2654473536939046 -0.08310191082750204
Ni 3.401375509704515 4.490126629852757 0.5194515501532587 0.7790918232781099 1.244695980079166 -2.146729471889535
Ni 6.127715105671583 5.503410446568779 4.592689532882644 -0.4779377386657446 1.268009972214758 0.977920887167303
Ni 5.449430931745299 2.825019185692548 9.616685060990854 0.02650318849685113 0.4845683566083848 -0.18938720175000287
P 0.30264569390323015 6.129923192653883 12.377194346792685 0.1319217605436825 -1.7369149112542732 0.3860192579878771
P 4.0883551666644 6.1843315508169 12.42342730852537 -1.8385416203588403 -0.7815965919778346 2.5415272474009907
P 2.5805876064825717 8.747792796697093 1.3158756770936508 -0.8713987976436477 -0.32057156990702856 -0.31907570208779246
P 6.565755766193161 8.162394265249347 5.716606719305594 -0.1359769044496626 -1.547970967689276 0.6602176399470049
P 5.017567440178334 1.1009868418146185 12.715206842150831 -0.8099224355057213 0.7810592314171257 -0.44535029164802653
P 4.140893037920924 6.220518629212763 8.170166366453985 -0.3644898685565336 1.1403328458800426 0.2808158872756454
P 4.9259318304129165 1.4177925778163205 3.723119331139359 -0.42140972167202906 -1.249968798442331 -0.49027003497885246
P 0.4439304131954382 5.701481323476845 3.4730589549897943 -1.0723508214131146 -0.36989227051902746 0.7515385962501896
Ni 0.5585027545976493 9.344222638729962 4.3760816745149125 0.8197479062365753 0.21204350569693803 0.8867516259506342
Ni 2.1158947886250594 6.584706992070167 4.594919518248239 0.5391564762669102 0.45382207656446355 0.29906994838982687
Ni 5.992930556487598 5.433080138884637 9.14673115654659 0.04553320854510868 1.2172725937608906 0.015286750955741417
Ni 9.031869573998351 2.2834995397732194 10.14443609841312 -1.0508232317539838 0.794535925747322 -0.40658628350595133
Ni 2.7103446518349577 5.160317526286068 6.823444079190669 -1.066275304642996 0.4688941404062376 0.5896632267672103
Ni 1.2094477094121023 -0.12052231463013398 8.544889676541814 -0.7649075613579277 0.2776104929644703 1.2155913494037258
Ni 1.600835689187829 1.2341563852305582 11.316696703258861 -0.42367126401269617 0.6458145771477974 -0.44514357495385914
Ni 4.164880891955903 7.144028198743487 1.426367619741795 0.8248703150648052 -0.3560093418893482 0.44590873525465785
Ni 5.911404700343616 7.916119572111997 7.954292103926654 -0.28405856258265916 -0.16890733662909618 -0.2541813154072526
Ni 5.276041357676569 3.034924313906573 5.024903398582336 1.0508484285649644 0.12796508988877964 -0.6773722973494204
Ni 0.9812026851880714 7.365530345777769 6.677467631277393 -1.1077747094383632 -0.6936512370151021 0.7663964871986284
Ni 5.139057845836659 4.81260769685855 6.872842269742197 0.4430452976639337 -0.3948998483069586 -0.359745926113645
Ni 0.7173664010803438 7.701606659079538 11.03718938860527 0.6443621609719871 0.006508490542479113 -0.33410971360277947
Ni 4.820463741865821 0.4299254846453096 10.478896493514204 -0.3521889397019935 -0.31209284301205603 0.16607398094535913
Ni 8.439116835493857 7.3790890947682515 4.460440633997754 -0.6669531588986256 -0.33020806455552804 0.5462187824303303
Ni 7.541045887891439 6.115698367838162 6.608091728131881 -0.05995735439023867 0.612710595504977 0.9655199423997888
Ni 2.433585584284956 5.323159379067451 2.457738588627288 0.5970176102497525 1.2602406126819845 0.875510762929492
Ni 2.509353990487488 5.2535955147986515 11.195919819922919 0.36768446423443124 0.2733136653613293 0.48263077326603976
Ni 1.2787013465842147 3.573606294323856 3.7881420181722483 -1.0725552241144365 -0.47604694940093495 -0.362169447953473
Ni 1.4833599871336856 1.3025067140917301 2.5035445318857117 1.1837808897613484 0.4764058754022505 -0.6698487352788658
Ni 1.4022173526973751 3.4021145801407395 8.357715070188549 -1.3990495872638034 0.5109327055345264 -2.259771364809579
Ni 3.837600429277839 2.647295556596579 6.829453360540017 -0.4328434174302675 0.1842550227297601 0.7286066700443645
Ni 4.429057513437348 7.105058200803817 5.717568423305323 -0.19574194032343709 0.09655932188398854 1.237376049378985
Ni 0.9442582877032383 9.176608763255429 13.339924833238339 -1.1514364119923717 0.0097755913295251 0.46256948373979045
P 0.20540683531206808 5.6454214622402885 8.044407600918307 0.4611245237631477 0.5505474917126711 0.08389432482181035
P 8.784180610273165 1.6816498478747064 7.984914255667539 -1.462439878594991 0.005027278011262309 1.1952297550282382
P 2.013091003378921 3.3192109507144134 10.302725824766943 0.48136681895195155 -0.3205108918724222 1.8415649805661964
P 4.230913641918297 6.183510361443318 3.7516711732261805 -1.147547875571243 0.7189863733457811 -0.8155181844259439
P 7.091088857126544 4.091274951103804 10.472579722366081 0.9708333841929021 -0.313290462864583 -0.27974605125023433
P 6.491565868453181 7.863453960286248 10.134474158878927 -0.5018361425498971 -0.21138298929480367 -0.06933699583292575
P 2.483148925143838 8.53582557072274 5.793354165727965 1.0720008942728636 0.6565615312516563 -0.7604117303701033
P 6.979936313248985 4.102662110417479 1.4680329436920896 1.6524806547685928 -0.5461411351148594 -0.2860593950627719
Ni 5.389602723716637 3.3812746187044938 0.156541505420731 0.471716183236065 -2.3182102256727624 0.32411120762917084
Ni 1.2643579055256429 1.1204672786212668 6.702053128689812 2.5882020257497103 0.7899907295788007 -1.3585536840322858
Ni 6.911011151826305 0.8723147991163249 9.332236923606208 0.9539630908001248 -0.41469631420759545 -1.7458757199919865
Ni 3.034221740775841 1.6421506390053948 9.126713296916565 -0.44603009132387056 -0.034317542334947354 0.4485772832257565
Ni 6.494531274524451 1.8349567795961603 2.2745038664019432 0.57239929748044 1.7901845692116911 0.9789336447025334
Ni 4.197299623559659 7.118480084898702 10.551103675133302 0.23224826277958707 0.013748974154976319 -2.4861122609657955
Ni 8.20198471738239 7.484420318419748 0.21465981468706666 -0.03977316613287989 0.21824114986721768 0.28232049684562993
Ni 7.809520067094633 3.8470988530322745 8.274757607236621 1.062816656670434 0.6504351066389443 0.37479690690949646
Ni 3.1520897888640294 9.0683668794909 12.331816334441159 1.4962110615081652 -1.7866804127131746 0.16777965078255622
Ni 0.1568745433333505 4.92370549477787 10.464113259924448 0.4266460303703039 -0.24711515258909053 -1.415418001319498
Ni 8.726615235185042 2.536599229037676 5.775579977953093 -0.10654522945210684 1.1308205355142331 -0.28889840717346377
Ni 3.753565383381244 2.800803223498242 11.628668371148075 0.15557976628225464 -0.042944621882326034 -0.7228782522010195
Ni 1.1638899478310276 3.7325338110911623 12.604872750348942 0.5081453725973765 -0.5263654951498289 -0.8891828610999459
Ni 3.4768610617894806 8.5537731206987 7.9743108759893175 0.30809760580973394 -0.7909921742601216 0.21787039679136025
Ni 5.650622328272976 7.993950076074857 3.7215700205212006 0.016285624533900988 0.35966776457754185 -1.015523270901109
Ni 2.9946404129691713 8.632370068076906 3.474421216917303 0.6997398664113432 -0.13880408948581258 0.410332637922261
Ni 3.7330721463471774 4.165090751462484 8.929722740251078 -0.947851064365116 0.7392577220003076 0.41016345933424847
Ni 7.471454650643521 6.245263802336712 11.351778825730937 -0.9741128262751223 0.8965981797274107 -0.22706414747548637
Ni 8.398486210154276 9.318674524885179 2.2834247202969595 -1.2636077293820043 -1.1961476388568173 0.20321099500697262
Ni 4.523211437281753 0.5903968374349509 1.5489876170051131 0.3552148710125108 -0.2721582116006474 0.1176624224111909
Ni 6.11156504799113 5.697083398164993 0.2526416480805255 0.29920518841611055 1.0137142427168282 0.2910560769464149
Ni 7.950545655517844 8.964550294017343 11.293487154263513 0.20971897132881948 -0.2698609309260385 0.7159794681986573
Ni 0.4581598001743459 5.049730690643644 5.603561790138246 -0.3548999108752533 -0.3867466230722049 0.814878751069732
Ni 7.320593038390068 6.186813367590394 2.5319357858283658 0.7448426722872526 -0.2995144921264132 -0.22858161256127726
P 8.661385425943482 2.1054109376223247 3.541086282697357 -0.05082659573356408 -1.5654570402891814 -0.19814077957291684
P 1.6553991608991905 3.547538093875802 1.2818638381051441 0.3679220341665341 -1.6956582185973315 1.3329079584397237
P 4.9759422632640815 1.2420215545642026 8.219857447882092 -0.0943330036566311 -0.769042666572224 -0.39005588995109597
P 8.62179497381044 1.6723521593004795 12.328464056931669 0.8550668932528435 0.22896213582914762 0.8292890129577911
P 6.482797390808596 7.85636435869432 1.5146527768629974 -0.8865783335975633 0.7765132639176562 -0.6684361712020552
P 1.8795473625816828 3.1781944866175755 6.008440086456656 -0.15860929713719782 0.4737643240143453 -0.4703930935492673
P 7.033368368490077 4.052943656010253 6.027910486504295 0.5045131751614279 0.3702224001649366 -0.43369239569412404
P 2.5446103875932913 8.635691322876728 10.149470901705817 0.8609030403186464 0.6175481261029365 0.7492210038606064
