# total energy = -340897.8805969198 ev
CRYSTAL
PRIMVEC
9.01210242082365 0.00000000000000 0.00000000000000
0.00000000000000 9.01210242082365 0.00000000000000
0.00000000000000 0.00000000000000 13.19012285015173
PRIMCOORD
 96 1
Ni 6.336336942446328 2.01186168955374 11.343742989691181 0.6786547636062699 0.540679854889972 0.5239172907196524
Ni 4.740915482298558 0.29554828598924515 6.107396202422513 -0.729605286512208 -0.4931661255797249 -0.24636259069378216
Ni 2.796689619568419 1.527118737763216 4.722789441193919 0.19418436602833009 -0.4569043150342131 0.44462832588033746
Ni 3.487449227080133 4.4088285292508695 4.879025948130896 -0.6060905190852982 -0.11179465077650422 0.24564730979431243
Ni 5.0010137631721046 4.480096233251009 2.6008016654817454 0.7710506981411882 -0.23397295878017768 -0.17107451948374408
Ni 7.152905496321463 6.0372973680744755 2.5889309244967955 0.5484885523011135 0.3229896924302179 0.3751530046973346
Ni 5.331586683054386 4.438793768982846 11.697976282623788 -0.17085031928807995 0.2884104117934517 -0.38483243676862755
Ni 5.515235301177151 7.928955638817663 12.331273825457291 0.3458419144380431 -0.06067469217223744 0.022798228841438156
Ni 1.9666750092481387 6.259932340206421 0.4147711880831545 -0.3163752724374938 0.5358816621703804 -0.04494699702433549
Ni 2.6335074854851475 1.6349936007983275 0.2838884281951911 0.4948823369398831 -0.2289577649537734 0.5870497004037631
Ni 0.5948086568643851 -0.1679351167703826 4.630840765122521 0.03873983977235909 0.6060972039535175 0.19375524891071147
Ni 8.52646702512434 2.2547919157838536 1.3792643870592358 1.5924600512405866 1.2870675030668413 -0.9450660454208111
Ni 6.78633824035211 0.8094336725831642 4.7626103158645074 -0.11780563285727452 -0.2974352409998813 0.00621744166462155
Ni 0.9143768987807382 7.20573443927149 2.6713826472961473 -0.15329482690281987 0.07370067211826017 -0.4711312572668725
Ni 7.615496700965762 3.764589393166662 3.791883445813958 0.023556704274017494 -0.32473058638072466 -0.47394532967689995
Ni 7.639919497860095 3.8994555022159885 12.52544587528984 0.6073087077631154 -0.3124435414832555 0.19637186059795214
Ni 7.880803976896477 8.787538613032789 6.831019341725693 -0.0656412921488934 0.20353752510845594 0.20797216384104183
Ni 6.910894504513203 0.6527943246789644 0.24891696570498642 -0.20117519552386645 0.1850212114718233 -0.05137475492755024
Ni 1.866811905046629 6.5546821539429585 9.112779072058107 0.18429230372559874 -0.6499034025051904 -0.19280548340293246
Ni 0.05651669516004934 4.949825022817933 1.307262196731832 0.17363713800459774 -0.624599376522763 0.8454165146472731
Ni 6.204823335406112 2.0495773371562414 7.089848718612994 0.7605356575424773 0.2053025874286787 -0.8998166866647085
Ni 3.4176775320410497 4.18030865439863 0.6201669099644851 0.2175878325539349 0.6314174278858609 -0.8764523009071551
Ni 5.946572535478446 5.605302250314403 4.675608382676984 0.1555103464968999 0.07186773267457945 0.5424102073175174
Ni 5.30410878352272 2.917595982348624 9.22215084526449 -0.21310665685412977 0.34495822628150913 0.19052362934729122
P 0.10207647649569697 5.772215394698137 12.482709585565628 1.0960929022250605 -0.8590541600353657 -1.7681733550479226
P 3.9221209391861893 6.003078416115886 12.495899698309003 0.37704173707961514 0.41533163379874927 0.12582336095542845
P 2.3317462562564364 8.343485302562527 1.4044054484969173 0.2091633559356656 -0.11285317394800563 -0.23572002337827147
P 6.394149577899146 7.6635762660695494 5.687963053884215 -1.3709350884157745 0.2549436474945738 0.3217239383439169
P 4.6525608325745615 1.1561625880346231 12.577256450694088 0.15803594113223107 -0.22641083016220362 0.585413707462237
P 3.8985362677941358 6.2197203403014365 8.184537054081083 -0.2255464252793793 -0.32198130577036166 -0.2956912617255811
P 4.778513972572783 1.1055325980153037 3.7307074938294185 0.2808878781641614 -0.05409626762377135 0.1332214531917125
P 0.13441730636101032 5.448302418323203 3.712637327758265 0.5420456248892471 -0.2857086965915725 0.057906899619113175
Ni 1.3875843597872235 0.9586263204601365 2.4593513145833414 0.12855412962303023 0.3785861987485996 0.28121852203070274
Ni 1.8578628875868242 6.550960155744671 4.922646325078476 -0.18359399210699348 -0.5046607564828857 -1.089034966937015
Ni 5.852612358201582 5.579554674400342 9.170300616610673 0.47447317715591186 -0.3969078798759229 1.2247205653985036
Ni 8.597473378161402 2.3567458276899704 10.16385964752166 0.18542384622688066 0.2105800337775341 -0.3427023403677969
Ni 2.264858433913363 5.31020096459304 6.90020164528253 0.27841010604763017 -0.7700394832678544 1.0532994612086182
Ni 0.6036585412002649 9.073474590842148 9.073392580712355 0.4269486492123873 0.5630602794677012 0.26344782831084307
Ni 1.4357900943214599 1.191282750210716 11.390369803924353 0.3045037178108885 0.12838160860090794 -0.4697027523504621
Ni 4.108797623639765 6.748505435421333 1.5625417065723897 -0.30724014290544505 0.8889427200646819 0.007642861257238449
Ni 5.612439835237027 7.582755733763878 7.923095969983458 -0.17351346794253988 1.4925685796595713 -0.17149566618156273
Ni 5.105013422271953 2.838361580025759 5.075954800018785 0.5565366194165706 -0.44840861885837613 -0.8614990220314324
Ni 0.9592481555102137 7.61027869380642 7.015615131787053 -0.8515776491526625 -1.0203309767023976 0.314537962118439
Ni 5.151173409612457 4.622072890916435 7.110966777639743 -0.7363562320827963 -0.7644038822486319 -0.6225712903491406
Ni 8.21895607470796 7.266115523844193 8.955222292152488 -1.2427002898053758 -0.6087490397540678 -0.08809447894608699
Ni 4.673270643372781 0.590866763373027 10.468459688935507 -0.6696936977582403 -1.2602753225746617 -0.3608386449571915
Ni 8.306112114842676 6.941481579295255 5.150531747937595 0.5904191310966284 -0.31511980276383794 -1.2727210045371822
Ni 7.16696437571451 5.971896542590282 7.01308273107587 0.5740766851828629 -0.356440772999812 -0.15516607578360375
Ni 2.282368948439446 4.98647724236378 2.7256336999693933 -0.49148668099477294 0.44132497253871733 -0.11167612292076896
Ni 2.192734580206596 5.450906915851786 11.21891185641375 0.21514888409513916 0.08883752775969862 0.8269603648246144
Ni 1.0681053376824032 3.108526379028814 3.826691789254795 -0.3331769173758649 0.28789413427866545 -0.024984180749163424
Ni 3.5660978427616223 2.5859235860009884 2.5763734613261087 -0.3176276567873562 -0.1393406787155729 0.11475296207387978
Ni 1.0668526554800741 3.330936048606384 8.138160776288379 0.2690610607325624 0.07904599559057356 -0.06905391737486818
Ni 3.679569221247427 2.6298215356955605 7.169503986107434 -0.3304626037684954 0.5717943169065894 -0.30849921212352677
Ni 4.109644761244217 6.7718557921568365 5.934843284497645 0.34038166265442027 0.6226823620057081 -0.0043266523998119035
Ni 0.5921455806716638 7.472492663652384 10.908521539352448 -0.019194313540263717 -0.885989550973629 1.970324027111181
P 0.20710982371502135 5.564225088600616 8.002328569885888 0.12222175964709917 -0.25876713500572207 -0.7320902577175908
P 8.487282404867308 1.563509606345988 7.986381655087174 -0.322278011075174 0.8079462856159569 -0.08678707298857312
P 1.8928298440259412 3.325781126162267 10.400398490889243 -1.3039838192062059 -0.1558978117433057 -0.7519769693391887
P 3.970227540596501 6.112323118681602 3.6560377212582056 -0.05045018623075182 0.7536998655675665 0.661761330285041
P 6.943932871086863 3.907124801166939 10.251600573087538 0.04602917434492073 0.7555891121704793 0.46991204014779064
P 6.393167258762068 7.698092617399915 10.135514783760756 -0.6286830596738333 0.2710824620379654 0.04613433246421732
P 2.490016794654317 8.482695244860219 5.81903326549742 0.8750374228374995 0.34508909543241856 -0.3178665122710397
P 7.017805072615586 4.048903192584515 1.5275350968837023 -0.8946099456527883 -0.5097327716891544 0.45880847403546143
Ni 5.369581705824314 2.839325874958487 0.6124255141961342 0.007135839713832872 -0.029098202917536984 -0.4879370159703016
Ni 1.4382503982152435 1.034922777473942 6.9361581305404645 0.25710697369447977 0.8936002734413513 -0.004672208664688727
Ni 6.69227892995132 0.6864310948370472 8.959311984119518 0.7524425961216977 -0.7718845068963932 1.3411933383769676
Ni 2.6731427108509305 1.6003060195266363 9.203447128410431 -0.02886706074333738 0.08668397175180556 0.39417685409800507
Ni 6.596318065991599 1.780809413990316 2.405983447923248 -1.71515900763442 -0.014349840963768833 1.524295478449207
Ni 4.174063267591333 7.047040332071384 10.44002109931198 -0.41280758182531485 -0.2949261014247824 -0.3397378584228342
Ni 7.940283851251676 7.248190452618058 0.18545193976798877 -0.0901423626140512 0.7638472384142135 0.5129219680504135
Ni 7.61452339393086 3.7692126015824527 8.116911140569876 0.3987282209141133 0.054542868242886705 0.0582308586174352
Ni 3.1068681522286083 8.384165931780613 12.539124443971101 -0.15955057800454459 -0.28677698995508677 -0.5650302587098786
Ni 0.03995155015212634 4.901736445611972 10.144391704403159 0.029683385997045654 -0.37937835563259176 -0.04230467430548199
Ni 8.502188421864808 2.225250244854105 5.858815388128655 0.22878627237291563 0.17041040353718392 -0.45002789962935397
Ni 3.719303579737135 2.8740495046388785 11.427236511501965 -0.39488673568083604 -0.7764543856552628 0.14411958816145504
Ni 1.250456213091964 3.567017077183475 12.498459135326712 -0.9842344880901566 0.06213816409164137 0.38620720562896715
Ni 3.0634208076427876 8.35798577496215 8.165173651347814 1.3331128753616783 0.5900193245550484 -0.6937245134551988
Ni 5.548138486218186 7.941716775497506 3.6006394279780776 0.0884120101865058 -0.3623442829684405 0.0021489280222027505
Ni 3.125784554693997 8.347964317343516 3.631148097471207 -0.08941525464003955 -0.4130634065898628 -0.36684217083879406
Ni 3.4344039936779054 4.396743300234155 9.343447432068874 0.35334645034520434 0.14948496623842644 -0.7175529833333641
Ni 7.172119298158627 6.029447827080025 11.35728908047047 0.16815503184410396 0.47237130032156066 -0.49624990671137115
Ni 0.4935315538316134 9.008145862175354 0.16843258481044426 0.5422901367998854 0.03807109584010863 0.3028782663923235
Ni 4.551733433440324 0.32542070106881765 1.6501501542362933 -0.44058320927668637 0.1664357351601521 -0.8674410985474802
Ni 5.966173857709137 5.7302460348690225 0.44641988850142555 -0.10539183257395397 -0.34076835656987764 -0.41258441007091523
Ni 7.89367325880242 8.989950427883969 11.185303023772411 -0.3640957184419084 0.33088914978295275 0.06866645212846238
Ni 0.11370028588105091 4.631959167002442 5.904083177353832 -0.10981567267326248 -0.1510818784119011 -0.2860941049554492
Ni 7.949223856609306 8.504441447408565 2.469441264178505 0.020968374721550984 0.6476968817721749 0.14577563570763927
P 8.497529165040318 1.4285173278662109 3.5100894301642445 -0.01212146585388235 0.2723721273836664 0.7534504685609218
P 1.6409596124381973 3.1948623178656033 1.526505914815314 0.266151086174619 -0.3592247635028523 0.49292444188256407
P 4.6440894565300335 1.0419612292726408 8.287340807222305 -0.1860671362378344 -0.8392646361132644 -0.8254567836958946
P 8.582251937587777 1.836035576118901 12.358221813381068 -0.6018620828262473 -0.8266973409712151 0.18530968924651958
P 6.170784625491024 7.851406499601528 1.355020930998187 0.2360126149180258 -0.9308763841839904 0.5634570006854877
P 1.9507416126026853 3.1038310737956234 5.951766209961917 -1.118133426964868 0.844868612563603 0.20847764272255062
P 6.8848945897382405 3.904358085799205 5.856124374419191 -0.09572319913593837 0.26011156484875847 0.8248127223539924
P 2.397228190660206 8.503188765206236 10.303345360145908 0.41635518996725707 0.36808555632759193 0.24561928476985442
