# total energy = -340867.50524218497 ev
CRYSTAL
PRIMVEC
9.27526240071838 0.00000000000000 0.00000000000000

0.00000000000000 9.27526240071838 0.00000000000000

0.00000000000000 0.00000000000000 13.57528408133971

PRIMCOORD
 96 1
Ni 2.0447872762964 5.203848941362403 2.0084365949153837 0.2961095802099223 -1.4154951344143363 1.4362850745764941
Ni 9.13158871333313 1.8763485087530232 9.571077550262151 -0.6707139114926385 0.8679995421541116 -0.2978155071574355
Ni 2.5738018746904787 0.8163511012560151 3.4485296232573144 0.8894818803976037 -0.039045543938235984 -1.7049689544752957
Ni 3.2537991965466224 4.880429812206566 4.3766448554201265 2.2332776893944244 0.3623730793238469 -0.7305275412161613
Ni 9.185811898083053 7.560405617077058 10.587282733250388 0.872877181961387 -0.4484613264731825 0.6619011982970149
Ni 3.15586169949318 6.311519343210701 10.585707793672807 0.3980561345477532 1.7440949739424803 0.6927966023242907
Ni 7.475564790715865 3.1950033073694497 11.642828942259287 0.9966752849566706 -0.14428053921935152 -0.8950123232975296
Ni 2.421696844462294 4.483773210114468 11.679536721247706 -0.461452853636844 -0.7893872916668468 0.5019981220490579
Ni 5.653439466712763 3.7544407668616713 10.333505985274217 0.11619946471241922 -2.3890297195884855 -0.8983172193010465
Ni 7.908237237211648 6.757436864599213 3.5692137741391368 1.1090353213183415 -0.8571947382291237 -1.0410450693212974
Ni 3.6379434694858563 7.1831806899851465 13.203579223221704 0.3682781319543722 0.09541903763195825 -0.5936870032146226
Ni 6.86202472488661 7.61685486483416 10.271195699124455 -1.1456156915455367 0.08718970774363048 0.5343731959456539
Ni 5.868078316917679 0.44555764120235064 11.57362249841853 -1.002614790369557 0.927822684959331 -0.5666212573460823
Ni 3.7907812454539047 4.974137789546364 0.2736721861028552 -2.5362138056078773 -1.5899743087042553 1.5209759271576708
Ni 6.859130842977275 8.45697104374434 13.330209744911459 0.23877860769893716 0.6593270098119355 -0.004845758128075525
Ni 1.4413386960996994 3.0328346172963 8.5331524850076 0.8110580917720612 1.5523456997182041 -0.613602254081311
Ni 1.5243615710050278 7.588685892530789 3.4400316277274006 -0.6496159531717586 0.271587426698842 0.15612921102782143
Ni 8.055556231974393 3.8892938087842017 0.36799325829588114 1.3675088363430448 0.05884715204519543 1.1554691873008487
Ni 2.3968484161446346 6.528189475909671 6.0616224375507946 1.026262254585168 -1.5625138985004572 0.45527629251248686
Ni 8.189426096068752 0.6049214918864518 11.20802596796038 -0.9720466877747131 -0.5489567501867836 1.610440289868091
Ni 0.14208310906460428 8.548035571263112 13.261478194512234 0.5806383975607806 0.695482633796886 -2.317927661435337
Ni 9.141745125803393 1.4045066285933807 1.088652403556948 0.19110598421332248 1.7059955959675974 -0.34580129100809476
Ni 0.6775968839133997 5.406800960779617 9.150230135965765 1.43036999464364 -0.16196175854919848 0.3824811629276316
Ni 8.197133839231116 1.4734125539281684 3.5220527742794974 -2.026632729005239 -0.608491672327623 0.14412678725030661
P 6.8907965892544265 1.7724377426303115 9.666566378007696 0.025452121524517455 0.6211906079515301 3.371830560555909
P 1.610269052557162 7.03000900456602 12.181116020604529 -0.07538757290237984 -0.10415616039463997 0.19099157012264525
P 6.659777625421668 2.738484160909237 2.797459062653238 -1.1553331759436167 0.9156410552914748 -0.12097811704798518
P 0.7056962917477972 -0.05345333795993827 8.538338284288079 0.28647385689237115 0.7093146545839719 -1.3586290173549118
P 0.3832408623688192 4.001821293797211 10.710939605773051 -0.35860152809655665 -1.3599281957823095 0.6211253019312335
P 6.351662679440202 8.898928028032575 7.0233094824406574 -2.306134525455151 -1.0296311710574009 1.6719403061551013
P 1.1395587544261696 9.119159861543034 1.6678461722379032 2.75106161352283 -0.5095998456557159 1.4497651113407999
P 2.7166965692264515 3.066568747117625 2.3194593356999804 0.8903429428463182 -0.2318266018611362 -0.5991755371330197
Ni 5.191744723760856 6.550913869107979 8.612458762217187 -0.8142143780128558 0.7862628871052523 0.6262410258912441
Ni 5.784350522060077 4.347918439838706 7.854414743803019 -0.6918722907378084 -0.26451175079898315 -1.4307456328155037
Ni 3.746575344236298 4.445438550078302 9.20993407334462 1.0259164412099753 -3.1311526789517297 1.2863614781387522
Ni 8.083131587475851 6.520453906959716 0.8256857254661282 0.4536780947874316 -1.2746411043780306 1.1819957728364674
Ni 2.7699829524608512 0.9510761445556326 7.850247368348325 -1.428876955037881 -0.39297100671536195 0.29017881654778416
Ni 1.3242199561343793 8.316543569041327 6.492488062905749 0.2845704692220712 3.5638035207552177 0.9568108446615651
Ni 1.4105448245003596 3.3960075216553807 0.24808544688781345 0.1952968823662185 -0.33904623167244835 0.2650655664199241
Ni 4.748043990116995 4.020102836243686 2.436098544592504 -1.2563045108523718 -0.3991545098182545 -0.013411131199583357
Ni 0.14543704399542393 4.910472387540982 6.869066504199326 1.0260043729380912 -0.19162766104474738 -0.7155027856725549
Ni 5.4599945913887185 5.816869592489982 11.00965036307543 -0.3666285121660912 1.4151657760993757 1.3756342936636567
Ni 6.013041394997824 7.841056510707427 1.9828878842767148 -0.4304690036608199 -1.0259750623620525 0.3582078922025637
Ni 7.176956988827568 7.611298982578738 5.546521660477851 -1.8056212154817355 -1.3686648043243592 0.3028859797018074
Ni 5.225478853582181 0.14673650827586593 8.910748422600708 -0.23508598933869834 -0.5890114521158243 1.329357522084304
Ni 3.5274658174919598 8.726714228639521 1.765126053177974 -0.9857789497591409 -0.6926323088322845 -1.0516763237828985
Ni 6.567062101172572 1.635451390325899 7.717006367053495 0.6394001889810214 1.5903162654247063 -2.0843907617513135
Ni 5.521999721401244 5.884662486321179 4.016600497112388 1.0167000648180298 0.7579550412994946 -2.5940181182108555
Ni 8.474723896226612 8.495333529568097 1.7779277705217718 -1.812432324866298 0.5659298877060124 2.753449654139032
Ni 1.1863895549397439 5.216147939477079 4.432018172723758 -3.6545092120719067 0.568668369683098 0.08315564688357292
Ni -0.21392743756887111 7.014037002489495 7.797697440958801 -1.2997846935231938 1.5875057925591047 -0.028939051631853386
Ni 8.125129976211335 0.26748094836413255 6.100691698379331 -0.39098380108200403 -0.27467146494080436 -1.041460045371529
Ni 2.8644329508030433 9.103030180003502 12.114041032093148 1.753064781541258 -2.888300672514368 0.191250994431619
Ni 5.862596636762495 5.825616165055698 -0.026102443811705414 1.008183028485954 0.29214082537016134 0.16174450033206983
Ni 0.07183134313672496 5.236507140730257 12.747748301241213 1.3765033265321713 0.9811437649799748 -1.8311759240223882
Ni 3.927749047233257 8.365155219960647 7.158614229648395 0.47637065128894085 -0.9228427152462365 -1.009824677854435
P 3.9216459244885686 6.553789200492255 1.7801946446840846 0.4662924411173325 0.08876373709896972 0.8168129919779675
P 5.182951774882489 4.292851206198562 5.2963158885756965 0.8884868634741859 -1.0741156266230212 1.8622788160747799
P 7.595707266265939 6.659480817020712 12.376559715003772 -0.4127289060685795 -0.2993496844137748 -2.5136780863992065
P 5.17701560686334 0.3678661871992212 0.661942095815398 -0.10333186472113172 0.5423490150622788 -0.1185419968026668
P 9.12684905418034 4.968619008341061 2.2169936554794303 0.3294207927675423 0.9551447698130516 -1.2973154060470948
P 2.8199116906594193 5.851670377502248 8.302643660613986 -1.366231769402834 2.07841783199733 -3.1274878285056333
P 7.092338768767093 8.86654808654062 3.7868930554013613 -0.3012525578634425 -0.07435810319660097 -1.2432067971281493
P 7.541382053628189 1.8640031343256975 13.268360439309436 1.2103954070250833 -2.4341998883672207 -1.1045603162661235
Ni 0.8884143259559881 2.5071962144631117 3.287309792540976 1.1644341098036204 1.1267119126624983 -0.21800178016290195
Ni 2.4388282543550597 1.9696762003290944 5.483328369335243 -1.2707775076575663 0.07810908559860097 1.7134520522456425
Ni 3.2529922487065193 2.0372557631221033 11.644199826061211 1.9488365466613666 2.1003547412797374 -2.0639237521462133
Ni 2.03647664106959 7.635154957805695 9.037365031396668 -0.03934456323589353 1.0080681001746443 -0.5485867684418745
Ni 7.880494926984652 5.370274976936786 10.394907295696044 -0.1531287336386008 0.07102081129325187 1.160606508527414
Ni 7.906762470469391 9.081149835695417 8.78220441425103 -0.6172105402578596 0.38712688922975913 -0.5192371116351638
Ni 7.6426400946673425 2.8441386763875744 5.980156879224241 0.4413877074558527 0.473915504880229 -0.22649387679431315
Ni 0.26736408005625556 1.5692352911247887 6.845309774281438 2.450265683580832 1.447116103753727 1.9627181897394648
Ni 7.9152586109467995 3.702081909880264 8.385629434469196 0.7593524358676536 -0.3359046007196731 0.7720434010717606
Ni 1.1784870312642508 0.2842886515946035 10.582761970293307 0.9811072553150845 0.35930395348021993 0.770388381966841
Ni 2.7756315873415733 4.234259372797046 6.652106055783171 -0.22521192475809604 -0.2342848335936417 0.5776710874023406
Ni 8.354080556499921 3.959173636684631 3.8651688509438755 -0.7824388853734718 -0.5447825642044359 0.7283040512022811
Ni 0.694356355778715 0.5897026411273565 4.620728026526279 -0.5183030298566687 -1.4675969973158982 0.862910043446346
Ni 4.1930030050639555 2.6906145309923115 4.3507974813279935 1.2326243936266126 -1.1649267331693227 -0.6890988417577294
Ni 5.984111851166999 1.0947221353565286 5.403112188871468 -0.9233492225690096 -0.15888620494766828 -0.889430458334378
Ni 3.3697956297458225 1.9112049453404685 0.40261595826757257 0.9264126919856821 -0.6172714754027822 1.2125978139930407
Ni 1.4642856955987256 7.041417577477824 0.9536472473289268 -0.051715940317052865 0.5859238143294361 -0.989052221193774
Ni 4.424847467261876 2.422475966514808 7.098299052468821 -0.07396215330976295 0.38560942414396815 -0.3443005380928522
Ni 7.4004351642235 5.280842895623283 5.753055786284121 -1.0630305724534532 -0.20054630369061588 0.31033857932511066
Ni 6.074786817659512 2.87541486163847 0.6714659353811215 -3.127771164074007 -0.14661330111758622 0.33652192258869784
Ni 5.044128920597153 6.248039446455919 6.145504201766395 -0.6220033336608126 0.6107339313945804 1.8853097297523143
Ni 3.7753286580790553 7.5118588929954475 4.406211609786758 0.05776754582777149 0.5316938493412778 -0.8509523568638376
Ni 6.791523454396675 4.911409189056505 2.1473382889322252 0.8040356377076412 0.6641115756847724 0.20415638963937743
Ni 5.1625461973166615 0.6217978320596442 3.063615503528098 0.6365277525292328 0.7256241903772729 0.4491745504901232
P 3.2791392137783686 2.300209455845381 9.41220621601839 0.6572608713115261 -0.10747828278933748 0.23286224221450216
P 4.471353633586903 8.270621744255685 10.72334805198558 0.49225801194315866 -0.8955167737377739 -0.5581445873336388
P 9.275540787797514 7.1061867357242665 5.507370777339052 0.09982282312660873 -1.7548666106366873 -1.466507106685829
P 0.686550294833533 3.2999158018453927 5.580893928361235 -0.3674044711001673 0.21540907973506127 -0.7416583610220001
P 1.5857081573779293 1.2958747538429387 12.590329473109634 -3.025135296978635 2.000495922708871 1.8559521025258037
P 4.807516973458852 4.064484967449362 12.381175085638661 0.8846443497996441 -1.1042322435027436 -2.0204739084926944
P 3.6891243681259636 0.21051599601036597 5.257191903698235 0.9428309854427053 0.4090164902139988 0.3007799891023981
P 7.272139732909624 5.908833820474155 8.397250410892935 0.0683625477347984 -0.06847516205326272 -0.31437341151611664
