# total energy = -340887.7509379112 ev
CRYSTAL
PRIMVEC
9.05921072662422 0.00000000000000 0.00000000000000
0.00000000000000 9.05921072662422 0.00000000000000
0.00000000000000 0.00000000000000 13.25907061747094
PRIMCOORD
 96 1
Ni 6.3835455635352 2.2029372980093833 11.459668572705262 0.7941165788217163 -0.0919130813612288 -0.3996247645864537
Ni 4.46882705039806 0.5570970610591593 6.033115367709799 0.3074954534493608 -0.29929337725454264 -1.236839717259541
Ni 2.7206621239299835 1.7648519923720427 4.137917641548699 1.1610531091465295 0.550657020707342 0.8678486183985441
Ni 3.490405129211293 4.607695689508751 4.977693780205253 1.3080880711825664 -1.609740692697905 -1.037419042532936
Ni 4.174094693112705 2.7602508742016076 2.2006480354936766 -1.9504859093393312 0.5197351343175048 0.30397895565567
Ni 5.0926442915202585 4.91231164554613 2.2289562567405343 -1.1070591714285773 0.03498860026004297 0.4494676562505098
Ni 5.233967976700426 4.6143270316595135 11.385192802457432 0.4811320772333262 0.31899034146283767 0.06341265992869079
Ni 5.813684980677942 8.008559581263585 12.330511462232863 -1.5993459797271425 0.5963812622173341 0.9290434447403096
Ni 2.296047864437701 6.134480686826333 0.7329318089761113 0.09715761758961976 0.6546249763505757 -2.955495682303626
Ni 2.8496109274462977 1.7013106893044985 0.2767380472934735 -1.325087948174673 -0.3045188873195401 0.15420576875286346
Ni 8.301434800378305 0.08842876639619524 6.149530753376961 0.8871992550110139 0.5581224758464516 1.3420580003701081
Ni 8.46227202516604 2.574908484772054 1.2873373785694355 1.3341595714586376 0.9145689052732185 -0.5366977303137724
Ni 6.674373401056925 0.8541775657290474 4.639004321302512 -0.38567678704679387 0.9955365433665371 -0.6354869699695442
Ni 0.9955800660413339 7.407172945558444 2.3182021639318102 -0.9399436365925812 0.8465166896899873 0.8686430892753814
Ni 7.654978591995514 4.108877436086293 3.563892539583921 0.13869790292525144 -0.12686568617701374 -0.28386778672809176
Ni 7.696161763330708 4.18094345631759 12.583746293575604 0.38052763874568657 -0.7430974074613719 -0.7170817001239006
Ni 8.111780226708639 7.070641390617877 8.82006645327881 1.1073569051746543 -0.6330781034177355 1.437676812717698
Ni 7.044433094385427 0.8826144277662616 0.29209975068834587 -0.7314672794216113 0.05460586027033822 0.16082455962096173
Ni 2.1419144554854346 6.544400906744113 9.036825279108127 0.6044789516238042 -0.4181973853823185 -0.9428530969298923
Ni 0.18586963548580268 5.068275015037269 0.9718648645628314 -0.9508129752069172 0.39980885557280177 1.928003926186731
Ni 6.563533959506967 2.0341279679037916 6.770624795796265 0.050606509302958014 0.16079730592745212 0.7733772893918358
Ni 3.5432022085209094 3.9524792244869085 -0.05151610693240625 -0.16777450857623363 1.3300591761370189 0.7092812302428753
Ni 5.791009776574996 5.470513024376025 4.509542766466891 0.8414449315940347 -0.018634070161419523 0.018037317117685064
Ni 5.714939585263595 3.0031554877103135 9.11462940332616 -1.2760068743773056 0.1896656522223701 -0.1133087734281855
P 0.6274037825941747 6.277507503597132 12.455345572299892 -1.532561060892109 -0.36504111307431325 0.39694104710670347
P 4.15692748904755 6.05290249547714 12.629835027444456 0.16403920990351747 0.9091014544007441 0.2517436525000374
P 2.2935837591576367 8.459753564622446 1.0411696374067616 0.840407748578772 0.2375642756758618 0.94506810230334
P 6.597406347897263 7.998639745669208 5.698907500285174 -1.1768669362503343 -1.2339955629425265 0.10758498357053084
P 4.664161749106699 1.1454556460170187 12.578230140248284 1.4338466403383305 0.28919794069175353 -0.8826954536033895
P 4.223775403979887 6.204698628097581 8.0066616766453 0.052872936739631525 0.6899511624556957 -0.1412612927770535
P 4.682379821600117 1.08532060613074 3.591457905562524 0.3246197718344732 0.5004971120234993 0.9746077636336701
P 0.2835333611558865 5.660629617785703 3.2806517909300426 -1.1137931477183012 -0.6939551414087661 0.3415538285856505
Ni 0.9669801382135271 0.3121224179309872 4.360802305577941 -1.5306936686660668 -0.7092125817884689 0.972780223506628
Ni 1.8050114729107403 6.2928266287022385 4.692053246666488 0.3152876958002699 1.3910136043332044 0.28800186350112333
Ni 6.045039100686346 5.39872783967297 9.138589203490554 0.6211134748566917 1.1321256274789018 0.21776061068637334
Ni 9.250088155571351 2.5404291292723284 9.893454267222413 -0.9659891687267235 0.3973789059750705 1.0741490509641178
Ni 2.4446460957204112 5.346093826153947 6.841892699574717 -0.252638653510481 0.8986527482635943 1.4683678140436518
Ni 0.3963268744297779 0.1683536518129916 9.2233009757823 0.383923551801113 -0.6521173794373737 -0.06520317617021029
Ni 1.7085580577752761 1.1724430343600776 11.186385708330231 1.0967698736874272 0.7748919262641493 -1.5276708226793432
Ni 4.1722828509950105 7.211657062638036 1.5320194091956 0.6722408896601262 0.45471836312648783 0.4405359009785187
Ni 6.1201761933071355 7.514343406820071 8.060758752674362 -2.6108048507508905 2.071858433612258 -0.816776225202761
Ni 5.220977068716556 2.949389072867731 4.885795336153672 0.07066522772604604 -0.3218512079504005 -1.0268052715728315
Ni 0.49333108956902094 7.3968998007511155 7.021022282382697 1.7163376013235538 -0.4193885774769422 -0.6306985474419654
Ni 5.150333344547651 4.546600373300095 6.926922450158117 0.10017532137002103 -0.0015830282164037252 0.12750306265069655
Ni 0.7360110346551331 7.387749998056759 10.638229182200837 -0.29002994967474566 0.9739487898934324 1.2746246493177984
Ni 4.99355464610355 0.4812225486964689 10.361671413198072 -1.0478788044136793 -0.289876711926333 -0.35288956531344384
Ni 8.445856735579728 7.241063260208217 4.641456649608812 0.2383212084465444 0.019144948359567027 0.2575867415443757
Ni 7.267316852493609 6.045338054635765 6.628487593505253 0.3246184862828926 0.017269585713725097 0.11187872584987829
Ni 2.3241767133149076 4.9932828697858955 2.6261310732813934 0.6441531302849746 -0.2518912338214952 0.932873102899045
Ni 2.343989206871896 5.538901005108402 11.449724277242295 1.8168299397133612 0.2251695015559348 -0.2911419517920018
Ni 0.9750428356372675 3.188588469245752 3.5300418932990354 -1.1632925400000094 0.4131127717705595 1.1009720846942328
Ni 1.1474667907676595 0.985932006764611 2.0714645984231215 0.2862244598857264 0.2993134318592006 0.10856483098529689
Ni 1.3523680158577247 3.4261572077178477 7.962350359893906 -0.04424611430256896 -0.35944382149219384 -0.42113898450914566
Ni 3.6669419659488516 2.674170255189944 6.758864128610311 -0.3902970594276246 0.6174159714004464 0.18487645836384292
Ni 4.451768556859967 6.993873640091163 5.6996503555534295 -0.4635542162505629 0.5105773790776368 1.560290151376261
Ni 0.8395396932601938 9.313412037584772 -0.3311150529297193 -1.0540095999017653 -0.6848323531718916 1.446996033236095
P 0.5506387498306375 5.441197418911728 8.035818745924297 -1.560715668949454 0.6361744829548721 -0.07848678065299386
P 8.838283619851168 1.5964775043746977 7.842925504469253 -1.0184553569462393 0.8435342100228955 -0.5605686233940992
P 2.071288849737705 3.7383194861754245 10.19537691995184 0.09959116673177687 -1.6130350471784607 0.4123254999825738
P 3.871462704194201 6.169204641011946 3.6132290004487406 0.6017443263014605 1.7506109206841272 -0.4375727045851367
P 7.243744786542404 3.972889625942736 10.286943796895883 0.6231191924328108 0.6907176083080749 0.9039764744693527
P 6.411167096619452 7.891405869933462 10.311419972063819 0.813424792232025 -0.3548248346629438 -1.8970622423025523
P 2.433657273276595 8.257053727705378 6.048695398079853 -1.2151748306915975 0.22414671671837527 0.18342661329119375
P 7.023288896871932 4.411944267113044 1.5009798359563178 1.0142032665381049 -0.24796233108073423 -0.10706047852562853
Ni 5.690842085098259 3.1918407258470136 0.29104616449690657 -0.03674852037394316 -0.5532044697195441 -0.06841499823928864
Ni 1.682041748382818 1.2242345412943734 6.742899987711304 0.2367512928562632 -0.8953262549935225 -0.26437111145606085
Ni 7.074201660379147 1.173964981738941 9.19287108741562 0.8261178143186612 -1.530187932674242 -0.21470614013076572
Ni 2.932946605649654 1.7987334399729291 8.920105503965193 0.309975282448421 -0.8443934726993974 0.7879155922173268
Ni 6.454089636387633 2.3106875487486724 2.4157897922329505 0.009656035032525306 -0.9421912949761774 1.19964408204585
Ni 4.196588713003881 6.974278567588297 10.226880324773253 0.7892965317252536 0.46899852719458585 0.6592851008304065
Ni 8.192606503578988 7.554240170251703 0.2714981998891012 0.2578808757460268 -0.31303540943098346 0.7167325443145979
Ni 7.851092382814761 3.9400952836124667 8.049820661809841 0.5067734319505144 0.062248978637892784 -0.16241581536748156
Ni 3.1969682390400886 8.5187290255534 12.380617050076644 0.6007187132504235 -0.914537794924967 -1.1619177711396698
Ni 0.2660128478777812 5.052511988613327 10.380751922539513 -1.0958810433245707 -0.8386290594117943 -0.5279562366757166
Ni 8.784172955006223 2.3937786282661397 5.754608962509455 0.20354600974888817 1.0644912161593798 -0.7136598189265451
Ni 3.867685013378808 2.6488407023845757 11.18476863924019 -0.8479379955175462 0.014274250530827029 -0.4294585601184346
Ni 1.2314547321333857 3.687769091091749 12.653224097341775 -0.6255897654604903 -1.411515066720666 -0.737735114708194
Ni 3.616038261652226 8.422683274894418 7.911262753622334 -0.1732884964159274 -0.30420032763785676 1.0009939669366823
Ni 5.576532965892916 8.029305173511187 3.632110207157235 -1.5067471851527985 0.08509374444655023 0.10100090259510992
Ni 2.9807611191356105 8.309560912276163 4.055883771906907 1.763939519472233 0.055391075175794925 -1.9105142540423998
Ni 3.8220718880658504 4.419961668483841 9.140233450212362 -1.3048770204444367 -0.3587300832546209 0.11616141238563218
Ni 7.389788320439166 6.289864266839808 11.395149780815222 0.2026057573228059 -0.3221263159886581 -0.4410182399315759
Ni 7.966090002024827 8.802626566974944 2.7172875679857778 1.0040970313420385 1.318134142564659 -0.13620598974133316
Ni 4.6425464726426044 0.5557191551286528 1.4842737457101158 0.1664506475584875 -0.7531972148995351 -0.47715458064281696
Ni 6.075242508788312 6.078956785129586 13.711204911837564 0.6333578394416834 -0.15412375056201844 -0.9078513840437269
Ni 7.997398633818587 -0.20724937247459718 11.54715246343708 0.09458651442833388 0.7023554496573194 -1.586662470722203
Ni -0.005332251352374762 4.841296493743097 5.348973749200022 0.05366226541014629 0.2139101265920316 1.2607514908801318
Ni 7.158126187270753 6.654216657497574 2.721901423938487 0.9217569383812255 -2.938154877032333 -1.0949773005633787
P 8.42681427492276 1.7052695643316609 3.570256635022323 -0.38000107681825523 0.16503576948883192 -0.37520159854708285
P 1.8051835979119213 3.2307047392715593 1.5975854458296679 0.7709450258012593 -1.1988007602089483 -2.4090336735142386
P 5.025434008164384 1.1629036856104162 8.117972197145859 -0.3771006153420086 0.103298440380035 -0.06858854770267542
P 8.502902584655338 1.9233066447750107 12.184436221099043 0.7921255165336165 0.36324622595741957 0.24260080965850475
P 6.344273885634173 8.224567398535116 1.4508470704807712 -0.34474996692544496 -1.1371181955974867 -0.48980440819634347
P 1.8114797492709094 3.575588886374698 5.722388974130495 -0.44571333141440006 -1.9405884477199609 -0.4333105868746731
P 6.9370633304908536 4.0459883961811185 5.819021761635611 0.8788030605275189 -0.7320519482804876 -0.4898422034128145
P 2.470727563004623 8.589544874723487 9.836294272093392 0.23220661090837427 0.8168379316786321 1.0205724032892423
