# total energy = -340858.1920725863 ev
CRYSTAL
PRIMVEC
9.38569115834126 0.00000000000000 0.00000000000000
0.00000000000000 9.38569115834126 0.00000000000000
0.00000000000000 0.00000000000000 13.73690773043388
PRIMCOORD
 96 1
Ni 0.6517705560682815 2.9594961585681854 11.825746631478257 1.0209444419166804 1.3772913696511053 -1.0669059962484593
Ni 8.196223808830783 4.95795384935624 7.129221825635775 -1.1367736677738745 1.3753442732270635 -0.31575795056846906
Ni 4.2068357516209405 4.5241565864079245 6.909705524877637 0.5774967666080054 0.08566735756183311 0.05314264546125041
Ni 1.5984958447230269 4.398604194827414 4.541216018787138 -1.9263342517937923 2.377927439027737 -0.47627140670691526
Ni 7.13910401993159 4.376510277672557 4.036205762202134 -0.09838583356976603 -1.1472807379527854 0.38418091922755776
Ni 0.36988164424276765 5.874353969647629 11.297136992865145 0.183882984102322 -0.6280564818334281 0.4938767784935043
Ni 5.994387574785041 2.743559560445078 8.872366189315384 0.33575727650853143 -0.5296217973035976 0.07251822177438479
Ni 7.070785573470161 0.4410899450338401 10.57059157333848 -0.007616121784361076 -0.6647749203003841 0.2991905331280912
Ni 2.8693090515414137 7.536822685792705 0.6051893704949785 0.013932550920692132 0.41432144736668 0.7401871757931123
Ni 2.5267782501112923 2.658919396935095 13.723926658598424 2.123778776630633 1.9254279379294388 -3.7035481197774285
Ni 0.3615940788868888 9.134276718789229 8.235455059602058 1.055000245949809 -0.994848259050261 1.9065660680279295
Ni 1.8707747472983887 0.667329216419856 4.3687896080669555 0.5251532200092827 1.0183391430833493 0.14834056822133806
Ni 3.7997595516037537 9.253634554158097 12.628298317152646 -0.028385750231544663 0.6419815765549525 -0.7382331373905351
Ni 7.172029024765591 1.7938683933617283 4.346508915656626 -0.33264906989685294 -0.6187753136418181 -1.0219083484918465
Ni 4.721162245320605 0.28559813699951536 6.36007850789372 -1.2661281818110128 -2.282171072661018 -2.3937037280253874
Ni 8.671909411737522 1.241332750665708 12.357557729369843 0.6664047425943233 -1.3714372248631737 0.004704347454204801
Ni 8.932221557994938 7.210210016688259 3.0612839799549416 -1.121863069210629 -1.9019157137401115 2.103528511022029
Ni 4.525564440092389 1.714775173368534 0.9193744458420993 -0.38824094822954425 0.041867329657747254 -1.9126865791033703
Ni 2.68697322802085 2.8243328191684 7.243828624104138 0.7905743699964126 -0.47481024878035644 -1.0854853019125434
Ni 2.3948435884945445 2.095618366398539 2.0407824653886615 1.047500595138654 -1.3465731146316422 2.1629814149720232
Ni 3.342300961065211 7.029272661160929 10.302653552956883 0.7190714768604197 -1.6181798246041936 1.3364139147104532
Ni 4.831782002154566 3.300675420461222 12.97529201476252 -0.35535345347290415 -0.38874514155947243 0.8319053675347156
Ni 6.183725123963006 0.6260941205710248 1.9630726962827336 1.471351322152008 0.5865383079849834 2.1535539510105366
Ni 2.163242271708966 6.314364560190046 6.039788978970762 -0.10277882043113913 -0.6813994162309427 -0.643616026834582
P 1.182437538198959 2.186603257179841 5.775174431853624 -0.48335608146783854 0.8784279365762871 0.23043383527866768
P 6.233187716743845 8.050445252650137 6.305062401612231 0.9838719625444151 0.421689457695977 -1.04857608759102
P 1.0349320148320378 6.707193280920456 1.5713646270851571 0.3228572806174117 -1.1172533383527596 1.1232949165611494
P 9.335430853225462 6.295658877569133 5.2897399114665316 -1.6720596053417849 -5.1229294766200475 0.3106262857688586
P 5.062773249010209 1.0933297856636095 3.860785315979659 0.381464291627343 0.27555103933228026 1.1634036116565771
P 1.1211020460124719 3.6209058195294315 2.4176273539547886 -0.8332927348005457 1.897103894173765 -0.4590969518101577
P 4.3369402034478854 5.499170348429169 9.317497612992758 -0.1904377545017043 -1.160928410643207 0.5557521758420623
P 5.14515146093382 1.7620602857840688 11.472900955386628 0.20983621363297408 -0.5865102829605253 -0.5380709565122153
Ni 4.599467372835526 6.900360192120163 12.768236157681011 0.6590380178166069 -0.4734791886737588 -1.5520739341140561
Ni 4.49134420986868 6.696944106097558 6.126523090194104 0.37603669285386854 -0.5065541168508566 -1.530009755225165
Ni 9.22330000010351 2.9099209374925885 4.000077420951416 0.09602607508833785 -0.038050527014818335 -0.422239416662176
Ni 2.484242297458016 7.560512170456622 7.959576744440085 -0.3341122847059407 -1.400116337965421 -1.005074050543327
Ni 2.888652961165951 5.273341231749894 13.13289560332354 0.126364321060563 -0.3193310126317081 0.5533697916528146
Ni 3.1973952741689335 3.133131446318761 4.041563114756082 1.9564274716347465 -2.8891529932123343 0.4586647493687456
Ni 0.5187922055867841 4.703864416384155 0.20064918424807301 0.5266619433443253 2.1387184286596006 0.7814292131620348
Ni 2.4421474722925387 6.629301429404671 3.4312463411422853 0.20661410715125061 -0.3160502849979073 -0.10908316538261212
Ni 7.044017582082883 6.457562051282507 5.1061051082797695 0.09533830499269387 -0.0015999974972682124 0.02416297039944871
Ni 6.993879219533501 6.821511000098943 11.545101323740687 -0.43613262970450045 1.3646163452865983 -2.210247032827206
Ni 0.6664178658014462 7.091809521824826 13.3523433885357 -1.648570006860277 0.586801588948699 -0.3874343931678489
Ni 2.3937830053855813 8.875700925409317 9.759221092184609 -0.9951141111171378 3.1412491439557835 0.45889486310168065
Ni 7.381836766515664 6.3959356026678975 -0.08944000600488287 0.07027853381058864 -0.025903607239639262 1.7945225344654125
Ni 8.650669592484572 0.3743041819502309 6.435507554030814 -0.5705535025209528 1.6444606126775938 -1.8966495802451657
Ni 2.4327336239890887 4.8103826261507105 8.760396770082583 -1.5744731277448627 1.4366427150262289 -0.15521312697145528
Ni 1.5625111045481237 0.49149955405976253 0.4033566505828326 0.04506192533564497 -1.544110199182289 -1.0913926685359139
Ni 4.89007653038261 7.9533221198045725 7.9485870385791575 -0.3613520942585003 -1.0052332018290107 1.8171945221416315
Ni 3.7356834375781767 3.1782015356040723 9.775636666145461 0.3774261170022274 -0.33414519482640515 0.6379066351546303
Ni 1.861736326644129 8.1119309158963 11.755867344565319 0.5408238366670041 0.3157566650168885 1.3273983414754043
Ni 5.11925633883091 8.549773411764644 0.544028452165365 0.8455242438697308 -0.5712651838759968 1.5032823665326496
Ni 1.2890683762602717 2.6269705039889892 8.951573914741582 -0.45808882226061753 -0.8789899797273443 1.7480228482419768
Ni 4.712940379803333 8.029496389825312 4.13306421855502 -0.7360947508912936 1.6558454574757675 0.4009568531343159
Ni 2.666061907960943 1.5181918705611932 11.400149646957383 -0.17876597459073082 0.2655885288029297 -0.13459416516952302
Ni 4.930397459905663 8.981655993702088 9.934215428025253 -0.7586160719222612 0.9784515628597922 1.4540863644239732
P 3.8266870997419375 5.130359611555717 4.411264553727238 -1.0044988947661475 0.4602086968170977 1.315778497848289
P 3.373254970740962 9.58785901884988 1.706178818771196 -0.7612334549404502 -2.782253979965234 -0.2626865246647863
P 8.716153560194615 3.5024208534449306 8.710065062293868 -0.1518796917228481 4.791892231295005 -0.3587830479797434
P 7.942875845465848 8.639237820566724 12.949852098684252 -0.12835049825265635 -1.3115893994676058 -1.4162114437550708
P 0.6961132542832865 6.778205420764826 8.94859301920701 0.47228413992439305 0.7065527755681187 0.07674614381280331
P 4.857564495962718 5.802140461325849 0.8272491935763819 -0.07928253708141185 -0.354655398964615 -0.012305042619598163
P 7.603151365713425 4.769817668655684 11.54271172675359 0.7654881164517462 0.5273090900100208 0.4617883825993918
P 2.873551383977266 8.509020740445022 5.593421459758428 0.47923923108598754 -1.1626754752413007 0.632501404978659
Ni 0.1672811747880273 1.2942305064366402 2.270134031986466 -1.011600538807935 -0.8922728128791795 0.9816824110922642
Ni 8.34386073187492 8.555733325695542 1.3263314475806682 0.25108853541454174 0.9071170769808635 -1.1145415958485516
Ni 3.4919839647974364 4.316601410552994 1.9135096766057356 -1.3287319726851632 1.852779618335093 -0.9919084596956466
Ni 8.285096919085388 7.563093235544806 7.243333998176331 -0.3920510660042538 -1.2288710972317676 0.30556712607839637
Ni 9.81705759868064 2.5520351452105787 0.3599412586613279 -2.548443772015166 -1.30117694588503 0.7337295930932267
Ni 2.55473822428475 0.461577031850162 7.706885779461233 -0.6748893830265668 -0.10103844070126469 -1.6561262219409798
Ni 5.102634279663003 3.0360083134731957 2.5788021980287335 2.8779226717141535 -0.49546623446781124 1.668021173606353
Ni 6.628907230373021 0.9415350014046877 13.502872043047729 -0.2765290869748334 0.8843072781751997 -1.3199825086273074
Ni 7.691799219378517 3.740742325151018 -0.13643510056141833 -0.5998715347587797 -0.4284139209040041 -1.077864295032176
Ni 6.73410205767618 0.1554655280988814 7.932102949072329 -0.5039125654629516 1.2367073054467346 -0.3953410496094353
Ni 8.439538468271103 1.6247288517102085 8.649869931591796 -0.8894019190892876 -3.0850535706008224 0.5072179756871007
Ni 6.982006320127853 8.701774681230619 3.757675989267752 0.872377359506833 1.1505444963057216 2.545514257073197
Ni 7.5652988729838 5.0005085733919765 1.8924510011935212 -0.03294200214365939 0.07541019861019917 -0.3084519038253591
Ni 0.986454919630323 4.287430682210897 6.708968115132003 -0.24817341865027584 0.07918097850654106 0.9751926896028623
Ni 5.741593367202662 2.2019394766492697 6.321120380737228 1.0600473214554131 1.9912540923956288 -0.020035064274004206
Ni 6.084386967987217 5.635976183794162 8.403992978445752 1.4558701957972735 0.34617435807679736 -1.5617906471811875
Ni 7.362042343712099 2.7132907062290994 11.067125612173887 -0.8688616330440907 0.7469334933780105 -0.10140559423269632
Ni 9.0784787844283 8.069742233818525 10.745874988469003 -0.5261880890317003 1.3350201196867202 -0.42514064946937097
Ni 8.264091742113184 5.823586765785852 9.46031967643603 -1.0125060813413402 -0.4520636991124602 0.07284809430997777
Ni 5.419194873460378 4.575383689139959 11.280460496688105 0.25678224336520933 1.312853353781694 -1.8495441421169307
Ni 8.364039968018906 2.912314288756178 6.116673745817594 -0.4942778705866649 -1.161074192192452 1.1611549248317163
Ni 1.3119037630222798 8.606303430041493 2.6298763139937233 1.2040476104301843 0.8319771013129156 -1.0213308787218216
Ni 5.215788173129001 5.991703267093329 3.0886751812398763 0.990001729591237 -0.6574218223694227 -1.2311220980494733
Ni 0.6636537797342816 8.049807025646514 5.336582957825145 2.164006256692112 3.8219664465180374 0.1350965587272383
P 6.640188831231193 7.510589678805523 2.1844839681001607 -0.6403602389014456 -1.6706737807378516 -1.6415822626885344
P 6.236453937291802 4.312978533738306 5.984469714862552 0.6935499355505476 0.40358837721989205 1.014291455376537
P 7.776598939639406 2.4218743792362556 1.6395685681135834 -1.2176541454700254 0.263987502864397 0.29316361020772086
P 6.9438347138964165 7.937629244068412 9.254816212683924 0.12035642430358627 -1.3944254582282307 1.4898848621798213
P 9.059078560656385 9.538302569156743 4.172544190143887 -1.2041540541010618 0.5741620458078176 -0.8720989090344657
P 0.6703420233046092 0.8837501162104191 10.595798724274248 0.1671780126428153 -0.09956417014858336 -0.5480146979884886
P 2.117759212009545 4.6593199258077105 11.295255161773577 0.2891784003077278 -1.4868404189265425 -1.1631678414966873
P 4.278382875865407 1.5239171422113473 7.97770896132686 2.1214035915302367 1.8601872236530737 1.8426340452606589
