# total energy = -381163.5408268258 ev
CRYSTAL
PRIMVEC
9.29482424153669 0.00000000000000 0.00000000000000

0.00000000000000 9.29482424153669 0.00000000000000

0.00000000000000 0.00000000000000 13.60391481273000

PRIMCOORD
 96 1
Ni 4.77318960695101 5.371952880301409 2.1660286277105136 1.8853904623915787 0.05997689477426444 0.10424126390927854
Ni 8.849072215500613 8.255579107411855 3.7055433552537744 -1.1772166062802694 0.0634262867754456 -1.0206842462767582
Ni 6.689373362998525 5.722432812436703 7.35737749895928 1.8216906102397725 0.30431499883885005 0.8292393906667783
Ni 0.9839965527754233 1.9585960383912002 11.2966773148507 -0.01333168411189962 -0.7363328350440286 0.909762999244143
Ni 7.79635902819377 1.4763433850666827 10.788802549426993 0.41516836874800755 -0.9725981894028088 -1.0260156857920006
Ni 8.591921612099254 4.1071782812761395 3.402842536894391 1.7220819600064987 0.20901346062136264 0.2788021992797263
Ni 5.199208574503165 0.8528651744487273 1.771216102573589 -0.6917928436501247 -0.8851971369793206 -0.9135013832406526
Ni 3.5901351013655134 4.623022428878562 4.281233157271725 -0.7099959969217127 -2.924588194091492 -2.169106554033154
Ni 2.0651147225153808 6.9295144383067555 6.161362290656265 -1.98591442535027 -1.0927550961010792 0.6086382252078163
Ni 2.59235432445779 3.3396488868399863 1.450612523525586 0.84362291308196 -0.8150548716362801 2.529816643832282
Ni 6.283505574083477 8.315558607294346 4.843116427579548 0.3656270674847703 -0.8358556104317154 0.7514390945578477
Ni 2.6820121976743554 0.8017808212247749 1.9922665386739091 1.2988737516731501 0.40692129824786694 0.2606275852532286
Ni 5.9310737288883155 7.021012686694054 13.54540385149574 -0.9849294572746521 -0.2977813114853904 0.11386053216659747
Ni 5.8589365990900815 1.1104991087030058 5.911662418249142 0.9925610056779808 0.22991395821945568 1.331334700415333
Ni 3.5993834513396457 4.893985140884505 6.3958939396234005 -1.7565303714923555 -0.659710104182967 1.3956757856955642
Ni 3.74068336722584 1.9810802178760514 3.7686654351626503 3.8828925925794486 0.05631770075512236 -0.8095264856188832
Ni 4.428137852086967 2.0708217445094683 13.272808968378783 -1.444848904986105 0.6205051518487312 0.9758987145309514
Ni 5.446209229993213 5.775171644349496 5.237234629356605 0.5789820929042803 1.5430843290209362 0.1725747581783544
Ni 7.199017862929845 9.026928674550891 0.026014353675982194 -0.5241849425587424 -0.7429302857558883 1.734319639723271
Ni 2.774848900731276 4.310009932668623 13.169664305400943 -0.04178454013595385 -0.39953091932106677 -2.9458424754845782
Ni 2.9981570496041763 0.6292066107074609 12.011943772367704 0.9207842900553109 -0.0738888768696663 -0.29336981268125606
Ni 5.696249292962199 8.495357684580396 7.712712117719185 0.21793493148070855 -0.672652523276248 -1.8745044116066945
Ni 9.238887843204278 6.651552723757575 9.743545670008842 -0.11056412080351281 0.48733692049245747 3.11315881347747
Ni 2.3288088820793424 6.278421305303728 11.974016242649666 -0.986081054380592 1.338979104334468 1.4052503167578767
P 7.6209285182321835 2.9673354129064635 4.89871527686625 -0.22127119494279313 -1.3809724180471183 1.0671818756176652
Ni 4.906979304968764 1.454890931056333 8.006610737660978 2.3553881202746405 -0.9270133016841584 -0.7277304380869982
P 8.246460884975047 4.786713576008661 9.065050466092506 -0.24398174916643145 -0.020142022165513696 -0.8825496720541445
Ni 1.7915866390593267 2.468900470833238 3.959174008770506 -3.7213254983655073 0.9709753090874053 -0.4412115868893046
P 0.3526326133956046 3.4188593777742153 12.791693072041035 0.0710812322175421 0.653399845694223 0.9220847540342895
P 4.411806846152744 4.1076802017772485 11.460318269930688 0.054839830658015225 0.3276477600275196 0.08952504074502646
P 1.7648733146114302 4.601253950848996 2.9046529781772628 0.1461615582921483 -0.992247331092304 1.4556855905902928
Ni 8.789919954962542 5.938305102033919 5.695768750556508 -0.7932115505089437 3.3082088699402057 -2.4864120515944017
Ni 5.96268542563407 0.8127673033045988 11.986327237162971 -0.8718811365967049 -1.1500295043425164 0.14998530291361267
Ni 1.773359489009805 1.7725415444894799 0.0014332618753881857 -0.26901632353755606 0.5785894854515519 -0.1493067887893493
Ni 1.011815961290578 2.966275802959679 9.391707764073328 -2.348837463640316 -0.19270675304153911 -1.9171011632312986
Ni 7.439326245071779 5.065549004022735 12.96919632777572 0.7047054379467347 -0.3986467169439005 -0.3238402133559713
Ni 4.522731276897767 3.8452780227624372 8.43173368417041 1.5732207433950003 0.5195070774670988 -1.296250198007374
Ni 5.835606590612621 3.811909604262803 4.045627026639251 0.3620684035992345 1.1938465015274664 0.13593062459275945
Ni 8.903019374545703 1.1867910248715285 4.714667535486554 -0.006646044561607909 0.22008411661322744 -1.0432629029082228
Ni 0.9483509023726108 9.149592468127402 7.960249084559494 0.28457149766333567 -0.0240621831555263 1.836765502295024
Ni 3.5418763746663204 6.6383354838950455 3.5124220065929252 -1.6138768263534657 2.2258312604187087 1.2347735787591316
Ni 8.704695712839102 2.7374279389263942 1.2781201074603044 1.1842228623947735 1.0418577950305798 0.3584734871591246
Ni 3.983687248355209 2.6101446177748646 6.138303691042366 -0.46677143763628004 0.05754771650748153 -0.27469794730336566
Ni 1.0908963246874825 4.968557514595526 7.97941687080739 0.19126025040299965 -0.5233153954695955 0.4754085444859876
Ni 8.89451461049914 1.6833019383571715 6.997513512418071 -0.7429040605036431 -0.0499220816414237 0.7113609955900394
Ni 7.510961454368905 0.24928997066455094 8.600530478175678 0.9373938735875341 0.02627847408055474 0.35707506414970114
Ni 2.936681083042455 8.171275052873783 10.52326708520989 -1.0285736763271642 2.082589961097149 0.06868702095375266
Ni 1.3057647732824804 4.543579567341968 5.4188610690596555 0.5802378196882523 0.34656773686047404 -1.7246242668123781
Ni 4.454154064727767 2.247358338538313 10.079969969148273 0.11971467695452932 -0.07106014917161954 2.4080186019861625
Ni 0.9504608274420863 6.351813236354733 3.688442737884519 -0.16798225371166556 0.8696334782131087 -0.16671495696346772
Ni 0.3511091917264987 8.958565243335066 10.745446842437705 0.45871925675576486 0.11331083031071452 -0.3164536910839131
Ni 6.631150584869915 2.2346709036491763 0.5798111270214982 0.34835388222661945 -0.27029236203650225 -0.5517232571883273
Ni 7.029759116167077 2.7090415461414685 8.790781585156113 0.017517182948156927 0.7938728382420264 -0.17679059603191488
Ni 5.231972829436649 4.398273582270998 0.1148059492869307 -0.18877682185951358 0.2651645538916337 -1.5727720858933558
Ni 3.0124524890616797 6.228656817101209 0.8751523036627726 -0.49705054823579553 -1.7980634577391357 0.40280881874139013
Ni 6.359472171408688 5.053521501644315 10.384874590300488 -0.9316063203714794 -1.0987203125455787 0.16912665172875388
P 7.432578202779095 7.810217610918827 6.6275414046739805 0.905314476554486 -0.25469142227445174 -0.01349546338327353
Ni 0.3082609821327763 8.407800441609211 5.919049944439534 -1.270590845568057 0.48363067528546383 -0.34691303601503476
P 3.9473258964971123 7.372803189026687 5.704651813943722 2.314456672167601 0.8265003944690605 -0.6347081828219908
Ni 6.275391192648886 2.8994181332471807 11.961840023085733 -0.04692700356884177 2.9995132255351566 -0.8744712659213844
P 9.245766013034286 7.128070470615721 12.130977937135272 0.13723725921932495 -0.31994602050788773 -0.5699984013484313
P 1.1152487638153492 7.73413947570448 1.3828922941371085 0.4786573904405886 -1.8435904956366573 1.1271893665195492
P 2.1964227024998744 0.688841272616041 9.762441117910765 -1.1660533905745982 -0.08079614551246085 1.1211033082264694
Ni 1.9566905994518062 8.84973214801133 4.1029946809511575 -1.0637661650678971 -0.10009381739980826 -0.6572307894045389
Ni 8.252548994757014 3.7391032471297576 10.957925591757979 -0.5678307042731511 -1.2374043315137593 0.008981120452687757
Ni -0.13351828915419073 6.836640555953457 7.699054303194572 -0.5691229407220133 2.0524396627660133 -1.8597817606845388
Ni 5.113575360119563 3.162266463818533 2.052735875786185 -0.7364025119396995 -1.1720525455808266 -0.08202718970608454
Ni 7.440395149842659 8.264976174571501 11.400652005620188 0.40065886227792286 0.08313327828606973 0.30733733060494167
Ni 6.080841229524696 3.6794490660905783 6.43712763827189 0.09896304622947473 -0.7822144280674916 0.23645818709587663
Ni 5.235793002139531 9.189141944649949 9.777106491367233 -0.33731253681079326 0.09384372272503838 1.5704249258174179
Ni 4.552576957065546 6.304000661212082 7.667261357378973 -0.16244898259826218 1.6447326353920577 1.7628745685428286
Ni 2.8432216267711956 1.9445329695360623 8.295136949276088 -0.7271614529574059 0.3712153602058252 -0.6426462067221449
Ni 1.1175817646630952 8.824784840141408 13.180642422139083 -0.4472958454101716 -0.6722537451759325 -1.302976203877298
Ni 6.552284002427187 7.172945881344477 9.67521291171253 -0.11111562243160865 -0.0538718103177911 -1.5542647711177877
Ni 6.237040748434543 1.584088985971351 3.801913020949055 0.8732013980700252 -1.4577905527484376 -1.5306227062188156
Ni 4.300603570684882 8.892795068041638 3.608615070630408 1.299091267000595 -0.9354280081104148 -2.968000499638856
Ni 1.7226283391014476 1.2850466103756044 6.104498415810286 -0.415958982970103 0.08930264032157523 -0.19615125994671379
Ni 3.690825930782376 0.3747087501027024 5.391136467750266 0.22578425232179827 -0.004110679734263888 3.9382733833425982
Ni 0.867344651423304 5.384816916848344 1.089541139334489 -0.3943881987778627 -0.8039945000570605 -0.3814532358837495
Ni 6.577203425824825 8.28470908612435 2.5054328474546756 -0.050512149816938814 -1.6801575518585712 0.1708976275862476
Ni 2.4849991061650947 6.685153512859575 8.93490155067261 -0.9271899364713387 -0.795579793630804 -0.9119196405758294
Ni 2.774858195555371 4.15016684271369 9.808082422144917 0.8774573451329016 1.817294538054606 1.3011409504407718
Ni 3.3840037874194446 8.53804881164692 7.6070643586126705 -0.4903057733127943 0.45892057413329357 0.2776711709990767
Ni 4.063827221698899 6.436442609736117 10.67735853801508 4.144663290298185 -2.8190847756403388 -0.4055768684048305
Ni 0.5300810296681299 0.4214589268513402 1.7924519871825344 -1.8292900198535849 0.544108935176179 0.5770943889632641
Ni 8.572132931601837 4.033479621030011 6.457383848421264 -0.725604392882931 -2.6253380113700593 2.162860316013127
Ni 7.347010052164156 6.102795604036155 3.649644283148816 -0.48867569390853904 0.642808443331622 0.04259289496986213
Ni 0.7678231108775427 4.9560095020678085 11.102182191188668 0.9521049545454634 -0.10319636758453196 0.4757489585445419
P 4.641918806262895 7.539366436802019 1.8596005848891939 1.385729987336762 -0.13540303422406358 0.6187120645040506
Ni 3.3784640722590598 8.271278065307644 0.4921395577139497 -0.3619275071459961 3.536305315334949 -2.616425796482094
P 7.605118022447259 0.6882770767934985 2.0312415950674096 0.7615232182667272 1.7909746692131543 -0.16715333005246696
Ni 8.637791569006133 1.2950385462773057 13.025747896532117 0.7368709669356858 0.5080813521286605 -0.6897292762528766
P 7.168335648593552 4.656242130192682 1.881965790625634 -1.5002613203181387 -1.2602632383898038 -0.49584290108093954
P 5.0138697820567275 8.262801185733364 11.92841583564153 -1.1677189512024793 -1.298263628892977 -0.4489050988788204
P 1.9589957158272686 3.3151198460543223 6.925154236323976 -0.16163497133739904 -0.6084654470753779 0.25845603152320645
Ni 8.019183846213751 6.397069734871367 1.2098263874251898 0.33360217783874163 2.192551415319656 0.1389385581811478
