# total energy = -340863.3675892244 ev
CRYSTAL
PRIMVEC
9.35939670153320 0.00000000000000 0.00000000000000
0.00000000000000 9.35939670153320 0.00000000000000
0.00000000000000 0.00000000000000 13.69842313501013
PRIMCOORD
 96 1
Ni 2.0038748504861084 7.7660153311254465 2.7974777271851887 0.4168236449632435 -0.6019559280916342 -0.2731257177202393
Ni 3.802582372174834 0.69134117553704 5.882348824425755 -1.1041597383935953 0.32181855494025224 -1.0548806896528091
Ni 4.136441401668536 7.786999097886257 7.157329793141818 -1.3426066737847266 0.8015887188290453 -0.303117121876007
Ni 5.991866865627785 3.8939113623853565 7.546268870533543 1.246703240317182 -1.0279033897330168 -0.5667762948667078
Ni 5.253092269063185 8.503797831670132 1.6059479447177516 -0.2027849632131475 -0.8298857660015256 -0.3136159645248018
Ni 9.186509643713208 5.399145650107989 4.210963723737939 -0.64288429087488 -0.9581298205833048 -0.53039467091388
Ni 6.996654227078987 1.0213347743116448 13.09841818946358 0.8050622791999426 0.18351351657804527 -1.427301125910329
Ni 7.6021322999114425 3.3621010987296804 4.731887137484527 -2.445487545465898 -0.03172561323805504 -1.1700843661108624
Ni 4.294568404087759 8.426957187108911 9.916767189540815 2.7142660419610354 -0.758763653243719 -2.002865708492628
Ni 8.129543647252408 6.686624220856036 5.830939531801411 -0.7700518245630287 -0.7738251755625318 1.1477869881652425
Ni 7.193388739707105 4.90579314631858 1.3438015464898876 2.3487801280398193 1.3204769317652227 -0.6320136667089631
Ni 0.8537744362464718 0.585132616907099 9.1703132082183 0.11358002481170117 -0.07092130960091012 -0.1937709326399953
Ni 6.6915566227663605 7.671214004845226 13.468029177320181 0.31721705161249886 0.4471194677333074 0.7409672484922465
Ni 0.9537599322005594 0.18883798987339212 4.599628570814727 0.4476457725504226 0.5017230140108004 0.1868163556990331
Ni 0.6131106606082994 2.8240574770620954 4.733394000307227 1.0944831345357797 0.48135113522266787 -0.4241075802191663
Ni 0.49790397826567184 8.621969570796802 13.285716558626822 0.3464309541722937 0.8767153247605546 0.011537054105322065
Ni 8.896536824006056 0.5427701168567951 11.277253732018435 2.6828312204905216 0.8905182920819179 1.585210825877341
Ni 1.137531680794903 6.740777688509048 6.528627314046972 0.2858166829243465 -0.7226674217417941 -0.28137175977911544
Ni 8.604383264934375 4.045121770854427 8.900193540185112 -0.3235219107846041 -0.6248999384823173 -0.9930621136841156
Ni 5.422132327701456 6.307634181852687 11.447127712877219 -1.4038698914705823 2.061484289466785 0.7108791708576144
Ni 3.0277085836403654 5.923131458361329 12.004009927647461 0.38576291900269694 1.6351071964871517 -0.7922535574710484
Ni 3.2312099398760066 3.287057458280002 4.612067208649302 -1.9529338566591916 -1.1824637136118215 0.5887977934431214
Ni 8.340354692087601 9.567268608638855 1.2424692333917853 -3.0084262117540708 -1.0857280140509689 -0.2425445024992726
Ni 6.534796092223623 0.30925598413948957 3.2233620859826346 -0.48493422458823576 -0.06967303901610582 -0.06529753565622948
P 5.362512972542506 1.5330036168837948 1.874985666525448 -0.6392767760292796 0.3567804157274178 -0.16203966297498545
P 7.267028470694642 5.888679520160372 12.310635921394539 1.26580627969522 -2.0759086924222316 0.14392829808625535
P 0.25538891401675545 1.463687927039654 13.2435524777805 -0.18836441691244332 -1.0886181911145703 0.10395689989964031
P 6.1830886937678935 5.4451658022769935 5.605709400850382 0.006644759010027266 -1.207878039919868 -1.5420432893509313
P 1.9900978189642915 8.728975550001241 6.5308604660314185 1.2888806450161803 0.8368043474982299 0.7899819878280525
P 3.961561079667756 2.7423312275726226 6.7015150205511524 0.6366709629753163 0.002590386434995539 0.4223363472513565
P 5.838625468136815 9.910290487222134 8.347284389192732 -1.2828789189067904 -1.4060316750085915 0.5363431751878311
P 8.374348019864257 1.5613719474154708 5.852678601852853 0.6647957462359907 -0.5383884877526341 -0.022796171958909126
Ni 9.06473453696704 6.985151528885839 0.9700143959532357 -0.11278915347928961 -0.606206218727556 0.49469747462258673
Ni 1.0849318729466622 7.470651499083669 11.166968220310434 0.02589666526110379 0.45154819292862236 0.34924039859663075
Ni 3.753164759107448 0.3961776345785285 3.055213977822645 1.1421958672307102 -0.21011286433312845 3.025342785003751
Ni 1.3765519464227283 4.670245216760453 8.29884670492992 0.9327617741321612 -0.04025319109309197 -0.43642547835457096
Ni 9.283819288232454 8.817749424990664 7.069413238863941 -0.7458225197020187 0.5656339537321484 0.23698629168520477
Ni 4.140035409891619 7.138411645169637 4.369440767583056 0.436705471488835 -0.18583265162952511 0.2025947015792124
Ni 8.419507107563147 2.983550951357803 11.050641218217018 0.8729617712553933 0.1430906326763084 1.482894546904917
Ni 5.243105793089151 2.124002703463363 4.253592966586051 0.22555285303728254 -0.41727075980299105 -0.6094733195146019
Ni 7.922963049596469 8.512268085425053 4.58057471159454 0.3870291873096302 1.1975218934965246 0.164578113126123
Ni 3.8581210304971583 4.323713564521819 8.37016062590851 -0.6138112847683235 -0.7387674126274502 -0.052375942498554956
Ni 1.354847506138018 5.0311622612878315 10.547237658618316 0.46745689373907884 -0.4659052329812428 -0.42307759629275526
Ni 2.192504125819462 5.74682850810558 4.451439375508184 0.28728349727786007 -0.5404515409292499 0.3140036868815237
Ni 9.337158488397423 3.4480203578127506 -0.004563641691601829 -1.9185026715645153 0.4988117539012764 2.5364950842937217
Ni 3.8604047232222425 8.35167020235246 12.201102905158246 -1.3583497955515962 -1.2515502839968382 1.5449542923501394
Ni 2.7541989422259268 4.660268100182832 0.11999588548781356 0.026600633306663866 -0.7600690023187039 0.6245770079252598
Ni 5.049113583610416 4.502571629998667 3.9620224979109797 -0.4780940617379508 0.5324785500261022 -0.26997303102387055
Ni 7.951724474777545 1.3591434690921715 8.229313877088968 0.6275954830366095 0.9022376374013752 -1.8253490329279658
Ni 7.006247608403621 3.8341422568837786 12.930338404897414 0.07680579340614514 0.05831673346302215 -0.06676486423037534
Ni 3.9211659247437334 5.001951585078871 6.237439644685246 -0.120703780340676 0.8068533096620943 -1.6478611537187104
Ni 2.362367811342189 2.1664756443913555 0.6772936574588506 -0.4128613178813857 1.7914027578895084 -0.2169823377594521
Ni 8.533691743817336 1.5276874797204854 3.374715693216844 0.033896395637128714 -0.05934826005133004 -0.05168740107196259
Ni 1.1899536601112728 4.958299360202679 2.4583465496913246 -0.9665956919624707 -0.20083812389942185 -2.027009395618367
Ni 3.005040125524985 9.334388107058796 1.0885792297293062 -1.087791838558533 -2.099382607174455 -1.9279746156106925
Ni 7.2504810578341985 2.38969724887188 1.3412810610355226 0.2573831101740019 0.29711436732535285 -0.048215383362962126
P 2.5106393693371767 9.174866554573846 10.49121137574281 -1.7665466180777767 -0.5267349626741058 0.36885483039344863
P 1.4033291795639766 4.321214605679207 6.231795928647436 3.849307043314519 0.10623129775611381 -1.6782194542955937
P 8.560366023598027 3.710345520512127 2.5092494989696568 1.1177099662742038 0.2355297617443363 1.2751175297938169
P 4.085198706300365 6.212505276697969 9.449377651404612 0.11886672713193724 0.9639330575286432 -0.32957197363342594
P 8.689048364897932 8.238786522199858 9.657333144393808 1.2609749197448474 0.4332388530964732 -0.5606411285032473
P 3.748382107539752 6.226038963913014 2.4753600604931987 -0.3760474914871459 -0.5914036064970847 -0.9530943150419264
P 6.9078803520895615 2.946244397250492 9.593225022714572 -1.2110896048786304 -0.24918437641329347 -1.12148048906023
P 7.976891891735538 5.870690760252131 7.862689472628163 -0.3917078237322222 -0.03740492301101945 0.7906124223231997
Ni 2.319239712665197 0.9326067603646503 12.464714984864587 -1.3750177431255803 -2.148852945990441 1.204072807241165
Ni 3.2551699946965575 4.012148617286927 2.2604318171753657 0.40685599222757024 -0.3015209810334807 1.1171888036634114
Ni 5.746004881221122 6.220413966668033 7.473736356141814 0.1094336067434954 -0.312922538002203 0.5673421946725068
Ni 6.821989171195735 5.754765276264886 3.4250168333057385 1.0533693952146053 1.198216091350072 1.3213477644059501
Ni 8.59212245563167 5.8176697795652474 10.41869196450606 -0.9226732795479077 0.657270641503539 0.21854685403309457
Ni 0.5819560377640931 5.438511271426441 12.774286380663236 -1.6383575851036496 0.00874355052058494 -0.7027187465340091
Ni 1.8503526711027103 7.649032235343388 8.944343684950544 0.48057594761954003 -0.4662492465842229 -1.1232072419433494
Ni 8.805778756976805 4.326933196888331 6.306904148932373 -2.04000015145108 0.593455603930107 2.5869231590372865
Ni 4.639087786097322 0.8239928368562399 13.517425263775815 0.9782404752902507 1.4353260530973344 -0.10907802317628956
Ni 6.108391350985543 1.6165549486740525 6.496586356362334 0.06266524023970498 0.073178481066203 -0.41548152911305214
Ni 5.287459972696413 3.999700620055938 1.0490208048447198 -2.063035950224621 -1.4610070028032063 -0.5243793179577357
Ni 3.2830890742003476 0.6701992349768281 8.124247164821568 0.07376829213140199 0.23383540476104892 1.0742462386636142
Ni 7.062048329825545 0.665863026618093 10.22273521771997 -3.0853047673796796 -0.47340925466777173 0.4594677048860151
Ni 3.7304682228028243 4.341056526077476 10.562292247750683 0.17517877146010477 -0.9377080623938432 1.4071254222934024
Ni 6.638189344412149 8.452882715176461 6.921690141498829 -0.31319378938571873 0.3072586548482063 -0.7328091381614864
Ni 6.085769689852233 5.109088595833107 9.74972910579556 0.6932403747299286 -1.9875031099936287 -1.0565395654124707
Ni 0.9393464617225717 0.4920328288949954 1.8789166130194448 1.4400126599397265 0.37968843067384284 1.1538164821887742
Ni 5.558891828106883 2.9542841187703566 11.237227337313135 -0.10949068523367596 -0.3812508900649563 0.5755936360480216
Ni 1.5242713000292738 3.264117577668607 12.1454191761915 1.1844925711163923 -0.582182602119449 -1.7542850271016048
Ni 4.871388005099695 6.348609619354395 0.16759777565083017 -1.5829289718216997 -0.7645851450215025 1.2642990990220744
Ni 7.998923910894748 7.780765739874347 11.690631129387482 0.21273538955764007 0.4313136110493024 -0.9514310684068905
Ni 1.2443504720710548 1.9349896928770243 6.992291812410292 -0.16428989246174286 -0.08289545124365078 -0.06885157155607496
Ni 6.7426776459811455 7.384039644665942 9.183888076777569 0.6375420527263601 1.0223883734520587 0.6912475126696159
Ni 3.1643932088744777 1.8026010305970654 10.699371839513478 0.7206550192974557 2.0942897660325803 -2.7617504606952434
P 5.273458315660654 8.82725857174757 4.980006608306313 1.7386442352405542 0.6005639328401141 -0.0039780108111415365
P 0.9139899849570104 2.6176640673344433 9.926863170452895 0.4759461621570126 1.2755448471392226 -0.1303328187900078
P 5.850287276069006 8.88849710248619 11.930175521214508 0.4305618204849424 1.0375596818758581 -1.303074162907743
P 3.7632916260276965 2.80437466640287 12.653643760883197 0.037508024247787014 0.6287277968688397 -0.14061106078756427
P 1.817173610814096 6.937530919929994 13.391619064994018 0.8557942583371713 1.22280149399892 1.216761715562743
P 7.008128847082891 7.135650623227425 1.7648639442546976 0.1154096218212722 0.279459373247751 1.5020173837772972
P 2.325098694820535 1.936197055014466 2.7768486815484787 -0.3751067248404314 1.16229829440754 1.8785608410642554
P 0.49189992546591266 7.447290445633632 4.293647439480593 -0.07552075604613445 -0.40728253824202765 0.4001161024005754
