# total energy = -340871.7667522491 ev
CRYSTAL
PRIMVEC
9.15696664596376 0.00000000000000 0.00000000000000
0.00000000000000 9.15696664596376 0.00000000000000
0.00000000000000 0.00000000000000 13.40214628674058
PRIMCOORD
 96 1
Ni 4.1853380742967605 7.891409676200873 4.643602128204535 -0.5840047429298523 -0.6198502918735518 0.2523476046326235
Ni 7.8950266779891205 2.447254252961837 12.658112568557634 0.27519365599286155 -0.3837363754909714 -0.15919088067228065
Ni 0.7350892254538379 6.599141928442221 1.5087329428804306 -0.8735870635442181 -0.6410865755445088 0.057606080549242725
Ni 5.6306370470812235 3.115099294537202 12.193808579511813 -0.9595680956917282 -0.0892213934616786 -0.2802798122665173
Ni 2.0078297420392284 5.497659578805444 8.695728315881771 0.2482232980516048 -3.3704210818028915 -1.4896413787104474
Ni 3.598596285477117 4.493204446759231 3.08576403648953 0.7616805697801979 0.27807560552634686 -0.07909356099905733
Ni 1.7850041179500655 8.28620313214647 2.683431649981238 1.638178636323624 -0.03743474780769036 0.01082897229470393
Ni 3.0194730928291746 2.140120437823569 11.82104129091166 -0.04557048954094733 1.9865872830475788 -0.8562447156110284
Ni 1.2530576169807364 5.615509738336451 6.081706472368679 -1.3015718673306036 -1.7031146748753767 1.0919256582212484
Ni 0.79801498390614 1.189132833477554 2.9676510720184655 0.02347211498001119 0.6405237610625033 -0.30749365367714787
Ni 0.05179912839432799 8.861846677504452 0.7459731958981701 1.968250946632236 -0.26211856797645827 0.771881935793232
Ni 3.9607543126295126 5.014702848892128 10.25236043510181 -0.2249437586983739 -0.5476056354755279 -1.0115126070798193
Ni 3.9378161114154353 7.060158566495685 11.681739105838052 0.7283426177497004 0.20142587808209178 -1.0390807465060752
Ni 7.080432090442978 -0.005141636719243241 0.4021190291876183 -2.8377982928894414 2.2969741991121215 1.0422342045333923
Ni 0.7236091364869364 0.1013767767030132 7.562603152626086 0.03924994663955821 0.11978949605652273 1.5873654103264985
Ni 8.266213474162306 2.9548798507676577 3.5181303575934515 0.736009647376655 0.3405379857266264 0.9338735191391012
Ni 6.643241879359185 2.874655666800979 1.852042270081107 -1.2589802579123222 0.31525221457664415 -1.817340817911509
Ni 2.676892660166079 7.413718202055259 0.04481144721809554 -0.7246494851688293 0.318151133390994 1.8816549066085466
Ni 7.656780722225504 6.868842064313763 0.27779581000063064 1.7787174491123559 -0.3924015073651371 0.01728886898743474
Ni 7.835689534728753 5.404899507628358 4.9131594153978595 0.4935461346269629 -0.14886301638371136 0.3743917010512778
Ni 3.020031667788879 1.6700109319834466 9.278747797797813 0.32672704798546315 0.3393367663296737 0.04440398003667191
Ni 5.488511769219471 7.429285045194553 0.5740410762112903 0.04347144092007352 3.8252232628924383 -0.9435328966057364
Ni 2.3295322909625655 6.222946271564803 4.235828672170732 1.1576962768591545 0.870687887619552 -1.024570725815358
Ni 5.646982232377482 7.312890843345397 9.852051738201625 -0.44810625712660884 -0.0016259656391971998 0.17749070742273304
P 4.982735878657261 1.6371007941936688 0.5743139538145556 1.405878951480811 -0.20919883715929133 0.5582715998298062
P 2.5148601370191352 3.5955103877489156 6.643846239151651 -1.140833696775861 -0.5713505445009515 -0.2881131922680071
P 2.4198291381370227 2.672918536682283 2.633226749463705 1.119489169661814 -1.1630660258115002 -2.175478776108086
P 4.345035570972811 6.136641861807248 8.420541325651955 0.261620288183801 0.19102833689785165 -1.4570166506968907
P 1.9102805773551712 8.581588559197849 4.93500519050222 -0.6294523337396901 -0.24286948993885915 -0.4939618820081429
P 8.517489793330167 1.791020244975075 1.1736328361940935 1.3748650195977998 0.3935685310900448 0.30879771720055205
P 2.328112961146924 -0.0747437394849919 10.743374379884694 0.8217587660190171 0.4849699629221777 -1.0101419519845378
P 5.437589878220875 2.349064100619103 9.821856640994671 -1.2888431069100255 0.20137651290139513 -0.2356467469381748
Ni 3.1927961557353832 0.5585566457709692 1.3548363845154057 -1.5490881120128546 0.7703480156472087 0.11544767414805923
Ni 0.10982041556109726 2.664329302056014 5.75622209625915 1.796143357898287 0.03413602245176057 0.8146635497351324
Ni 2.75338995874588 7.403700480646796 9.384504351602901 0.7380045663194967 2.471941883002685 1.1181388262815066
Ni 7.452699408669361 0.7414661369610169 2.754328547817514 0.7640806945812583 -0.27277990434504634 1.5412943270000488
Ni 5.231787054952857 9.248353078720015 2.229942954130605 0.4215984406440675 -0.18880484688397162 1.030526686288477
Ni 3.715347609021821 5.389973652147741 6.013583219701164 0.8919640233895091 0.8588379302595015 0.2952356622454012
Ni 2.027095999665743 5.036881021882345 0.32963156626116874 2.022981505405897 -0.7239316331661984 -1.250439824541479
Ni 7.795994084723555 7.809784476351658 8.354402387636373 0.6750526480773084 -0.04319221911675787 1.3019518763778417
Ni 0.09294870468806846 7.968181683777249 10.648595197582775 2.085791498753582 -2.1530572138797757 -1.679752088890036
Ni 7.962769916544707 0.04214768564796578 11.823333279639758 -0.8588407584729789 1.4455868115933943 -0.3350741343985778
Ni 0.5743862938503205 1.5864719261247535 10.707483649482068 0.8682018879729049 -1.7505898376382045 -0.4849828184379841
Ni 6.190933516497172 4.98258936719242 9.132932262415393 0.20232113620285158 -0.4104069428036222 0.35585121904492906
Ni 8.619699853989461 0.4384511253780749 4.98251611146 -0.1772899042658366 1.083654419351392 -0.021739705669936753
Ni 5.251740085070812 6.411103620286104 2.8524729153274855 0.417402657395165 0.6754923067178883 1.0232934017648312
Ni 8.951731461184046 4.639926521830351 9.391326291684532 1.3304654104365021 -0.34430028098253607 -1.4728675016862183
Ni 4.712962487053297 3.1300159930512663 5.7572403509397905 -2.5166435967854337 2.0209619038727067 -3.6654934789975515
Ni 1.6397746284270065 2.35177456271865 0.42115269986369847 -0.45305151694702617 0.167121448373267 0.2020066902862263
Ni 6.042077868219313 5.726171679123725 11.944595324908237 -0.5208167974174579 0.34608642634868136 0.6869164893944298
Ni 1.810973275093029 0.3331826378902383 12.694030769859918 -1.9102928820602132 -0.7414472734524585 0.2252296653699089
Ni 2.2240898211102307 1.2379944070018316 6.234276186280243 0.9832052754946938 0.4484921797111179 -0.3298897619841609
Ni 1.9079913357170397 3.4651701258402636 4.499355181192562 -0.29365083425678457 0.43787686608911686 0.8948025212795686
Ni 9.334245424982708 7.16386121270304 3.9025846826045925 -1.953272985166165 0.7164206695011339 0.09160686297471965
Ni 3.312908086004864 0.8762246352312629 3.8528486187745488 -0.6707396225242512 0.9642097082287975 -0.7772030908958292
Ni 8.98469654077314 7.734340228925397 6.215446715958285 -0.14827989018673174 -1.6167412923854543 -1.148769663793486
P 5.609154803548998 6.13661439090759 5.074830238365978 -0.5717302964378734 -2.233203127402747 -1.5327814044330312
P 5.637037766701439 1.9099234556596227 3.6317673968136415 -0.1494358581680459 0.23990372244231586 0.9867053182281522
P 1.8428669895954761 3.552884708446908 10.094938444614062 1.2567161444684938 0.28575831888258524 -2.0363959790395896
P 8.311027668470368 0.4422375310475444 9.533174113459744 0.09537481465758414 -0.6012607017968226 -0.2170036779156908
P 3.739174035991493 4.464662182015008 12.17870416318342 -0.2643762536623834 0.13458156676403274 3.180112910900517
P 3.0097300804172873 6.453775084420874 2.078579212714009 0.06911151008568096 0.07728144749098304 0.1497868137495614
P 0.6150615392766402 5.072767173801694 3.5625178372601654 -1.1161827309964003 0.07684975927020313 1.0292311074055047
P 3.8249656556221074 0.16409284062126245 7.72484994879036 -0.16271663443735201 0.4635133357102985 0.16513064319548335
Ni 4.159130836023432 3.920619328229792 7.9232951494334225 -0.29741570061585554 0.5853111204461017 2.042147022590754
Ni 0.682129909397305 3.540696785965496 11.723433521641667 -0.1770453923551983 0.5424063506627755 1.6177275675581235
Ni 2.461081272456151 7.523986393280774 6.89504197701385 0.9962888481515293 0.903998843066856 -0.43931025610153374
Ni 6.060813021785782 4.241772459159977 3.851052937633598 -0.8329255812691139 -0.5952764591889297 0.5811801289968636
Ni 4.113895421253954 0.3068124056122744 12.637352809686401 0.10765388913525331 -0.887357120745117 0.18354539825724517
Ni 4.564583001036169 0.3033345897156251 10.326031893803501 -0.6195191337863782 -0.525901668139533 0.3555941087288005
Ni 5.96314481653654 7.078939504894916 6.86311804452178 -0.5830701469307249 0.8577292705763551 1.8791455099231316
Ni 7.072520471341595 2.7291606252478964 5.632989471788568 -1.2705173120176443 -1.0500429019445334 -0.9273699136926288
Ni 7.855569309114286 1.4228918756304327 7.630512132276274 1.1571879697641683 0.8166013901877937 -1.172937005068309
Ni 7.5525103440918935 2.355959296433155 9.786703046399525 -0.14673182897332146 0.7009904509889927 0.3115022606159087
Ni 6.734381167456474 7.84604606389966 4.601264893348932 1.022976898965677 1.2542761675684335 -0.7201557110635339
Ni 3.967255758881806 3.407957398820082 0.9613560375734401 -1.0450806728432518 -0.49507645522856025 -0.5105912630347077
Ni 8.831903396877694 4.753701831245485 -0.0626977499851442 -0.6641671115130561 0.9167024066764535 -0.8739503604209078
Ni 0.6070107342836595 3.8573813172180484 1.8239514437879238 -0.09732833883952915 -0.672418552888571 1.0139960356233053
Ni 1.6366704167657002 5.7240472628835395 11.085384333531566 0.20395892891659068 0.18027752613925083 0.34708967080221514
Ni 8.168352972615462 5.768366980997765 7.308739990407137 1.1079048072583242 0.030577615676540888 0.27045048488092127
Ni 1.1623487063114157 2.4286106690608946 8.149804621166668 -1.120711214994373 1.612475575130565 -0.3851204003226916
Ni 7.580484876909859 4.260150491030896 10.981115786791264 -0.7359451126873068 -0.028313759343028655 3.20519607912139
Ni 7.7825699717575505 5.216751315873609 2.439847182717499 0.28607019369604925 1.34136585939909 0.7653071107891917
Ni 5.418332777560914 2.086533869558188 7.399351837231001 1.3999600148932148 -1.3964286047011887 3.3016150187727717
Ni 4.804898431240657 0.8672654591562717 5.589003067256855 0.33211916553531184 -1.2260734798819724 -0.25889440461220575
Ni 6.105718785759368 0.2107521636896577 8.641716864368354 -0.4589015479698999 0.1424368011423934 -0.2776027796549864
Ni 6.317803288082418 4.572238225074081 6.870074592011734 -1.404669504553742 -0.004753198414269234 -1.335869097950577
Ni 4.578712200426717 5.6665598268667825 0.7914824039675681 -1.762409970201584 -3.9040787397387597 -1.5363554949375346
P 0.6691050401729922 6.974559243162673 12.584333973347277 -0.5193358419965572 -0.19462042512448416 1.3340456715885929
P 8.190100768177713 3.6146667617768 7.448858976897232 0.44233978695647685 -0.20243503607289653 0.41725867561813307
P 7.191881530353768 7.7987228607562065 2.314202613256982 -0.3737067591691112 -0.9481922497546185 0.03961812861225435
P 7.512796580153588 6.358231295411819 10.264248009080298 1.0383055589029473 -0.12584598666324778 0.04045348002935614
P 0.7167166877628501 7.048785614037448 8.19137816501179 -0.3704805389223297 0.1910627896802129 -0.37986737945386834
P 5.83429714017595 8.491017003026816 11.99973216761096 1.208203541580087 -1.1899165703454408 -1.1278280285448123
P 6.813479044537192 4.846727454452595 0.6507315867853493 -1.7164772122252117 -0.5899601891823387 -1.6583885356125956
P 6.678074980124993 9.30210447238334 6.3994312350215985 0.7069996332975502 -1.0984040668567407 -0.7991924506827268
