# total energy = -381170.31610521127 ev
CRYSTAL
PRIMVEC
9.22011640377055 0.00000000000000 0.00000000000000

0.00000000000000 9.22011640377055 0.00000000000000

0.00000000000000 0.00000000000000 13.49457234056520

PRIMCOORD
 96 1
Ni 5.273685323094346 2.5990125237780073 1.6456091489354026 -0.5408858002531911 1.7095750857887395 0.7045748259061414
Ni 6.263667665904683 0.6615064743813148 8.32024045503412 -0.8046884408002917 0.21064868223194042 0.5279716632946844
Ni 1.998432578857732 9.212380766165484 5.079870177339569 1.1765195802132449 -0.8928734225776559 0.19577047956852736
Ni 0.13252073364762687 7.431137250259363 12.491278222432358 1.1460157551974328 -0.8063120924466437 0.21330283202533587
Ni 2.982172902835576 3.192907884276483 8.2015148596098 -0.7933280214821498 0.9153860018578751 -0.16226257761906893
Ni 6.93124097690606 6.816173923686664 6.761550265826648 1.379214040595115 -0.3098783518592405 0.2556987804930435
Ni 4.082252656102069 4.857572247866415 9.423151706060523 -1.4209978094001203 0.43930434256426276 0.29525263152626574
Ni 6.509144046106063 2.681274402690143 4.117909612425416 0.1049712000967676 -0.12605758845342163 0.5203347155747168
Ni 5.4513293066182325 3.5619153845927234 7.785990027810987 -1.1304315276059305 -1.8151484382458805 1.4626203700369134
Ni 2.844977570150911 4.675843752757897 2.4985473689707556 0.7380151078424579 -2.897542759937926 0.20680822543992772
Ni 2.168119601890566 2.562187378701223 6.27509784426014 -1.5748271686501716 -0.6764744681254996 -1.4920906115818884
Ni 6.941060400918772 0.413129445546697 3.8567894606537365 0.17467586368175725 -0.4401558919312807 0.02948001173698794
Ni 0.39082045179912883 3.0302004893916528 13.01861909439246 1.5794271293160282 -0.6276235080610675 0.44978261638776734
Ni 6.503086429602446 6.791491671966445 0.9892465775181182 0.625535000963155 1.380051448894746 -0.20201928869171656
Ni 0.36051116301322167 0.32233803691234464 3.5804874651455947 -0.26601687458959994 -0.5332390823412108 -1.598387472468615
Ni 1.8023391423296775 1.5874274481397006 9.923058121541915 0.12585035753862198 0.6424605730739 0.30223189105757625
Ni 6.911694330045072 6.034759834952925 11.655329910968108 -0.9802793600971506 0.9086736228347061 1.2925364966012125
Ni 2.7330637967553155 8.340959900706766 12.929676319105102 -0.38431384526099616 1.0445286569945236 -0.27053893082966957
Ni 4.136033595319115 8.183314349749615 1.4970739950364318 -1.1443944175439258 -1.8440777196857208 0.42394405805810864
Ni 2.2153726986653584 6.463928595065364 11.466783139749355 0.26768012122463575 -0.13335257945293807 -0.48911175300469306
Ni 6.659754648216547 7.44671924704949 9.688387717812743 -0.14866247033713106 0.20762995001027468 -0.6862176635551924
Ni 5.045957667047401 7.807631485128019 7.626754928778914 -0.604192787841953 2.0206636559059974 1.5760738965730792
Ni 8.053504330336484 0.34907084252967785 9.985066170661819 -1.4801622355754185 -1.9989537750327315 1.9458360692721457
Ni 2.2113527278958345 7.157954420144179 8.916876034139712 -0.02299594667454104 -1.3020560060558737 -1.2472575701587552
P 1.2203285119273397 4.633375896417469 1.2305526990519382 -1.9563788777849986 -1.355242617381182 -0.5243101552826971
Ni 0.26185591706389943 5.919711221966416 8.091264395220676 -0.1356254346475148 -0.7562447434766073 -0.15094843815783035
P 7.380933716222536 6.315337198456086 4.454990615531496 -1.1363802889901977 -0.8799094062178201 -0.4958063914160493
Ni -0.09884149230148817 1.1923638987531067 5.88762798277671 -0.3132714367011895 -0.024902676778950663 -0.2374364918487459
P 7.429560610347464 8.089130860275567 11.813175538452091 -0.8302822301089959 -0.01588170422726297 -1.2012862456349636
P 4.836974507730828 0.4581512741420746 10.839123712833457 0.40824464504498076 -0.30784898013403755 0.5045836233880472
P 2.5284601927495762 -0.002861924144174729 2.9795885041963612 0.5299452420812873 -0.14865270014511817 -0.7320097821886425
Ni 0.4695353519153109 3.6657246756341646 8.259055762312652 0.5935764457786875 -1.0773832416306994 0.3583176783075506
Ni 7.669569461497631 4.581743244331843 7.3055030215836565 -0.35291039124905027 -0.7095095442035975 -0.008866706362010536
Ni 6.226132571861722 4.905867217799363 2.5748318463923354 0.8842872235705417 0.5681058123114087 2.5603603209470935
Ni 8.773447902738996 6.003411439043794 0.9109401285603992 -0.002273883635841245 0.32120560394660164 -1.1911471003184326
Ni 3.4905240229679007 5.250745673382017 4.771519057072563 -0.22486559716227075 -0.9309038949878161 0.969049552819602
Ni 6.518622325810353 4.63827177824916 0.4473858661822215 -0.22080813926344553 -1.6674035946270123 -3.0488856053206974
Ni 2.696524475288291 3.7036285743348807 11.409512386458308 -1.0216147285108277 -0.3453441488660181 -0.4284802553655653
Ni 3.4187915170346552 -0.0646403923646269 9.104343129722889 1.2346023432885898 0.4311647441762638 0.5357037418316193
Ni 7.736120261989427 4.023852438546648 12.141323170735713 -0.1815461084390293 -1.1825151356750474 -0.5111170536311908
Ni 5.035271552088965 7.240870927323829 5.332407322713658 0.5147037425411846 -0.27716363523503884 -1.2087290750662538
Ni 9.035502052306438 5.425448439760312 3.1589308331692076 -0.3528057473503859 -0.6623963927658786 0.29956205753489695
Ni 1.054486277451596 7.08349275974355 4.225028925270204 1.0126233236454947 0.10306369866140959 0.19693158975616407
Ni 4.8943697325938675 1.4993200154021566 12.994827505920718 -0.808044501756718 0.7224367937882268 -1.0280052054182036
Ni -0.14288967660039395 1.334196950009034 8.50920489752778 2.326697694318483 0.3903713643089858 -3.637792413537858
Ni 0.7622528427401049 7.577045592983478 6.749620357159936 0.8103386971075335 1.038226883146212 -0.7195353038707155
Ni 5.771258127103796 7.3914169886192065 3.042877227490318 -0.07331989174007374 0.16799022413146553 1.0703643871107051
Ni 5.198283210816443 8.335815075731091 12.947475753899978 1.5543131078572199 0.7583975281535519 -1.0276002566703013
Ni 5.634053574302687 4.659367404672716 5.755287041399739 1.5585389730131094 0.4676181019072915 -1.5651855317953496
Ni 7.104892650009755 2.3790389856603507 6.751631264556342 0.6199536502206355 -1.0646812206829985 -1.4459300538654258
Ni 1.1066075957087473 7.807502403497806 1.7769921202138568 1.0632324040516141 -0.10588779837376601 0.22691785170560919
Ni 3.1313175064314853 6.642457709767862 3.0622560682320272 0.6873664324476549 3.9305464470119857 -0.16029054149436264
Ni 4.174859505664218 7.057261528460764 10.105207975971917 1.129266817873868 1.4318285814670373 -0.3655573905890995
Ni 8.875468491190327 2.4498587000656538 3.589137778393226 -1.0003684175375418 0.8528390323635892 0.6086631649084807
Ni 2.42700203140132 6.211905932188844 0.4471848676437453 -0.5319558447534128 -0.07756555439030512 -0.29204672299445833
Ni 4.439310885507064 2.593969120083215 5.826322506529828 0.8110730041703966 -0.7222030805108659 -0.5084461916672469
P 8.577603409354925 8.378384353352402 8.223241141998116 -0.5036873368260228 -0.4193464113850972 -0.41744559481795845
Ni 3.3106303310317116 1.0376872252908798 1.1860730133034596 -0.6841152725002089 0.7279577236064559 0.2553848487970505
P 4.4917733480726385 3.923168766979676 12.508955951690174 2.375054231245 0.907107821009483 0.27910147568769994
Ni 8.181885231700818 7.761604663840261 2.7379808848548266 -0.6937293985512053 -0.6153901992196692 -0.42286316628910403
P 3.8663820698019307 1.2160688181302757 7.445913408872296 0.47661722008210816 0.47533218272209754 -0.11681292992670206
P 7.764601201684516 1.3612948722375442 2.0303802823357135 0.9850937507666583 0.26802387771729974 0.009961996308718328
P 9.277188964649389 3.377743558626582 6.043395396014246 -0.3224729006947995 -0.6019911522049439 -0.07895137899423821
Ni 3.029472100192587 2.1246283126248695 3.808019654723929 0.81690580880209 0.3346689285403591 0.2744171828381532
Ni -0.06460258988720707 2.8725272780851703 10.591228896088854 0.5457837517754407 -0.49997774918491966 0.6412984344449987
Ni 4.357002906012709 6.381067408584377 12.245704108996673 0.4079343128934136 -1.5949090270017112 0.39151704787765473
Ni 2.134475396986914 5.108737439913656 6.784653111600033 -0.8776229241764886 -0.020596336094112915 -0.2583377607777873
Ni 1.7704283193174715 0.3823351786358427 7.222578216299207 0.7014247103129339 0.5961961427897217 2.510176501003851
Ni 4.640244883168147 5.68701392315623 0.9517723362436858 -2.359498542898588 -0.5638668345293967 0.9446004186383022
Ni 1.6359437008673021 8.593415909056148 10.671076026504341 -0.014940937580548461 1.0401744937908861 1.1894224043178419
Ni 1.3208185610489904 3.853261844102315 4.299775487268947 0.38069193223769277 0.8748461327622996 0.3928468224326718
Ni 5.881530719772384 0.4188901743008219 1.6476606248441616 -0.07163299095595405 -0.8635803300404934 -0.23246192145228997
Ni 4.133129258639299 2.3220217855715086 9.842482601927362 1.2582570065930523 -1.842814279592265 0.9588307033050714
Ni 0.6751946592538722 0.6625363613880941 0.7882895295659264 -0.42654370046448475 0.0923177729988152 0.18170525972471285
Ni 9.300147054594607 7.070354093811048 9.887958982263422 -1.1915011412237415 1.6525529027674248 1.7182139924106603
Ni 6.433852575225487 -0.1268522060579406 6.110328831338461 -0.12129513406777175 0.8898402921782869 -0.05234071838524534
Ni 7.850007140304009 5.132949465695238 9.789948222453527 -0.9272207897092741 -1.032592824788886 -1.202178675542246
Ni 5.608882656410944 3.900136916102909 10.679901521964407 1.982186839987038 0.05635446753032875 1.0945836646693858
Ni 6.708593605019683 1.7190538304922731 11.389662397766317 -0.7233413078803671 0.10030259097650468 -1.9185705486879732
Ni 1.5485923176781544 2.4166478406348633 2.1356915303458597 -0.9654613212477116 1.1802078276981094 -0.8409677348473
Ni 8.33209014868777 8.047206990805327 5.134509509397539 0.06935242245189346 0.9799327753910091 0.40090594529172247
Ni 4.4204926278451415 0.21230885531787447 4.41654457398388 0.4541532346516372 -0.2546983642529872 -0.412791898096031
Ni 4.249708410955488 5.791523943047404 7.2571647171034215 -0.2649562945355695 -0.7677224050989037 -0.06469204086174665
Ni 9.140675920581572 5.531110974206969 5.760360871478796 -0.5639948754668287 0.10661542056840992 -1.4890497678730354
Ni 3.037419840567196 3.465989293110784 0.3681841439178035 -0.9167150050819438 -0.5610062251521499 0.8406062377428233
Ni 8.274814785338501 3.675829923256637 1.4694505261706217 0.868090302095705 -0.8448472724073642 0.8646028577677368
Ni 7.7031306853532895 8.590456251677669 0.37487518242111406 0.4108512294298924 0.9822200287632891 0.9206176825704596
Ni 7.108165791347325 2.0638216446776005 0.04466316606571135 1.1041759363435113 0.017172912234860747 1.1751571526480793
P 6.027263880284065 5.397336304722977 8.49019117339725 0.9752153153106817 2.4201799199390446 1.2174826528891676
Ni 8.781709127072697 0.5169295164716942 12.112458674196558 0.9131442570115499 1.9979860118028234 0.22760356491872413
P 1.6888302887892936 1.1188519103461958 12.348626424836215 0.2511273590722772 0.2174896164131738 -0.5738794815703924
Ni 0.42275248107915564 5.139209924760619 11.215096089111391 -0.2857269514240176 -0.8419848632579048 1.415884656543271
P 4.791961899251894 3.7986695346382087 3.7278350680465957 -1.2860372620301144 -0.4946445098974643 0.004907721714262515
P 3.056109016598904 7.1817146602200115 5.95396764260194 -1.8746530213694166 0.28906398621705054 -0.045207706884889884
P 1.8537136311548759 4.730602024317993 9.678132182292236 -0.23495846262189857 0.6158535120093329 -1.1136699918768755
Ni 7.480806017542448 2.68749798128975 9.130751387241398 -2.2839926992507893 1.0502390771157395 0.23501759799460814
