# total energy = -381168.29070599074 ev
CRYSTAL
PRIMVEC
9.22656899639599 0.00000000000000 0.00000000000000

0.00000000000000 9.22656899639599 0.00000000000000

0.00000000000000 0.00000000000000 13.50401636210754

PRIMCOORD
 96 1
Ni 6.274555725204253 5.247647855288955 10.969392794082172 0.1385096981738453 -0.17421743598809994 -0.23694463981399191
Ni 4.077589771968902 5.1845934847824715 9.614251587922498 -0.8930261461054362 1.9328517411973354 0.30159682857673864
Ni 2.1382019371750944 1.1795614490826636 8.886358356487465 -1.1807035363876053 -0.9335153644687343 -1.6843137401187898
Ni 9.025364917888348 4.450094030157119 11.06558254076658 -1.7103245623602545 0.5101094383022828 0.8756987105705822
Ni 4.6232490449793575 7.560582550534257 10.057129653568149 1.3250429538693502 -0.2367474362015213 -0.6986345491623065
Ni 2.081403180248271 3.4666063925513777 1.3824463135750802 0.8409337962855711 -1.9206582844549371 0.6555899113670064
Ni 5.93039548606724 7.28185713662873 1.9957317218836443 -0.8383732346472466 -2.2486104630967536 -2.7157444262787744
Ni 3.664968393066288 5.69461974946749 3.7756826042006972 2.221325145018239 -0.1717553476008526 -0.6816889224469034
Ni 3.329388862821728 3.0236849620328297 9.712965723803652 -0.28394646248482713 0.9141683274006902 -0.01930821341030868
Ni 6.700048167445548 2.448537575452177 1.368659051964334 -0.24291088469975583 -0.5842402559794261 0.8424150088167878
Ni 5.00676059962854 2.0260806743136968 11.152966450282216 1.4841973248767408 -0.49008800087503335 2.536829070594373
Ni 2.3307511994080197 8.770683942019096 12.671074694103861 -0.3421554667253914 -0.16962133197698528 0.11322649812702436
Ni 8.820442827026627 0.9159417734553362 3.675536504857059 -1.9740765521750778 3.019380910993361 2.056438242402445
Ni 2.6553972457412276 0.177922382870337 1.4888581757239503 -1.014275257426621 0.23641524967308317 0.6666016890964778
Ni 4.295512098131127 1.5769036302154888 2.1763750198640723 1.1758888886077812 0.7509945508212614 1.8831263489477503
Ni 3.33128953597425 7.345465101257307 0.8473892906595907 0.7793414773950708 -1.086939517860567 -0.20728387952476557
Ni 4.759433199014433 7.998770751308903 3.6549972402705087 -1.314610959902749 0.6233102253976942 1.252673598968004
Ni 5.261081739318431 9.158144468072546 7.752088287847035 -0.22051297662052993 -0.34947719719778525 -0.9490381426946817
Ni 4.493089840306404 4.884490111195423 7.234182533490882 -0.3062944911627241 2.081734812185705 0.7374921454594524
Ni 7.471730693938202 2.263987748283508 10.904627817738419 -0.2957347133690068 0.5094430083628775 1.1300800578037828
Ni 9.226937764311403 4.679097465329921 7.339675429397076 -0.9009037490813 -0.6832192430485008 1.0339583376778452
Ni 1.6620556327622167 0.2154486830933354 5.2735883531934 -1.5326145398378637 -2.40818083859564 -2.2789867613957653
Ni 7.513084174858609 7.4871390636698125 10.407625777432525 -0.02950546565828467 0.04659995924672619 -0.39939876461857665
Ni 0.5427722796637368 4.959105372284965 0.800488796635804 -2.236213374983981 1.1651349925253869 -0.393970908734786
P 2.0351965241908414 6.1417115890391445 2.063062606983303 0.12804890785183753 0.6690370380108478 -1.069348544251681
Ni 0.6879366530160432 7.708170743484463 0.6777708196206607 -0.08666057471303784 -1.1993214085991086 -1.9618260169424986
P 1.451302350481107 2.8456121860926573 12.874566666816841 0.30729619295436106 0.6415195493168694 -0.14649168793805736
Ni 7.081289986194146 5.6415854325709045 3.100090177450476 -2.124129475101832 -0.570179921231618 1.413346977723082
P 3.469023753551187 3.319156598131694 3.4028904770689916 1.2112492703849462 0.16546128706202473 -0.5316329141963554
P 6.929540610759533 7.754884860820479 4.148825340943063 -0.8178982546223463 -1.010088730149099 -0.7116777554995098
P 3.245500900187114 0.4820919052841651 3.87172288047214 -0.32985633764306416 -0.21759837407689622 -2.178065562998655
Ni 7.70850289995772 6.351016300034108 12.505583267245141 1.0830288699522508 -0.6907528324213845 0.7878723976842174
Ni 2.4205164863055297 5.957844527954391 7.84094475772744 0.3540365344336935 1.6558613983153676 1.653960581748229
Ni 8.067481008429445 2.3613372746537022 6.022642719945471 0.6178260623546715 -0.2142579968497536 -0.31427005316903295
Ni 5.967597011071943 7.886105120894112 12.244023884408874 -0.5468952396720645 1.5204192833232524 -0.27175763372811906
Ni 8.03151584363075 6.729702359252373 6.453879623860358 -0.09940630441448042 -0.6821154684613607 0.8600751451007123
Ni 3.5830641427025105 2.098887527937733 0.05939788133005431 -0.8939085487103896 0.06403281001119294 -1.1933276529095191
Ni 8.455818058509543 2.860872930725043 13.37526856117206 0.8154405371104732 0.8153335792189635 -0.9663113279528326
Ni 2.6596322407752453 1.7048115521252614 6.299690743661052 3.5142002559057928 0.2944062243655704 3.3048402105782886
Ni 6.798071233330957 9.215736709907704 2.112041846935552 0.9704166083704576 1.6246505199302022 0.9402663100393226
Ni 0.3466034345291881 1.1494459288407608 12.080044692160339 -0.20739392274006863 -0.8509045343450378 -0.34558660389412743
Ni 8.734137503392203 0.5271719973031335 9.89335252317418 -0.9966269482172383 -1.5317154250623621 0.9156801360595263
Ni 8.939493242982898 8.027179356341016 4.8339248240833745 0.3090314304779129 -0.18503046744320392 -1.0142150936126468
Ni 6.285590701371324 0.25853768158650636 10.150347522473783 1.0120553669571666 -0.7068538517483053 0.3693279133751252
Ni 1.3047014003819672 3.018305872479818 5.323458879682221 -2.3848084824182862 0.8596604261607969 -0.5735768627283089
Ni 1.08953781826151 6.280350010348835 12.181189106237486 -0.9033804927565667 1.007369788556039 -0.05584024689807157
Ni 2.185525008045413 3.691070355923011 7.768239396359122 0.19748334849457602 -0.9262193450279532 -0.15463719986332725
Ni 7.220768025255679 1.7744721458220645 8.468260086403603 0.049415317208334246 -0.16581995595302412 -0.8183474263446229
Ni 0.741671266477078 8.337192064713545 8.814868134217141 0.6441716422277357 -1.8222230857044746 -0.7867164297029032
Ni 0.3403385943808266 8.614118297722266 2.5283437040932197 0.8184075901585971 -1.1592006293188228 0.5373790726515133
Ni 2.559754634580822 1.601197185606705 11.262497815309084 -0.22686540120111898 0.23792860099381608 0.9051540397172217
Ni 4.660607421651989 3.9629865621267837 1.434032059185521 -0.4169655698577464 0.3114657509510184 -0.4423549564651285
Ni 1.608726065667181 2.01984351387144 3.1381174803539693 1.4725144892221738 -0.8392031867477094 1.4575506688234898
Ni 1.995965154071794 4.341838699581676 10.988095971497112 1.2033796378288824 -0.9818122518019091 1.257390287717383
Ni 3.552145910983572 6.946083848441437 5.746863349426352 1.161220230852013 -0.008910415115752397 0.5826999080754997
Ni 7.098765107314907 4.794134323901012 0.8703071646574039 -0.47173598073040696 -0.9605713401452619 -0.31066716630912306
P 4.982808427279282 7.04531559482675 7.886277657728832 -0.7844083503950168 -0.6235429102337906 -0.3292331022367685
Ni 5.699445244898407 1.812070413280935 6.25175133800147 0.08658138473567024 1.7025834849622548 0.8757275069259886
P 8.028803232432491 3.0546493265952765 3.8323586477637903 -0.8837370074940263 -0.18855699253922364 0.3760372070745007
Ni 8.611101209756855 4.824978743070338 5.103586056896486 -0.30956724837672495 -0.721249458348345 -1.2824546868851785
P 4.218774726240224 0.0062796026582840085 11.74884501407841 0.8391466224781612 0.00524607889028774 0.35346934907631383
P 4.2749922093388495 2.6525001031689364 7.749292637530462 0.2806163696703296 -0.17811934214566744 -0.8530305795491052
P 7.834676226951599 3.8164132917337485 9.411745012746845 -0.5465594535992007 1.0848273566135704 -1.557194286059757
Ni 1.953218461277451 6.40632035283128 10.012552409543414 -0.4354908823554435 0.6068312539060646 -0.7445544516228726
Ni 6.7718862313559205 5.857939242053862 8.408910183230796 -0.39824562485073994 0.36032313877335365 0.48767476344785043
Ni 5.545398453857106 3.5529301693232043 9.356203837134045 1.6063123837426465 -1.083725124688327 0.547993872052882
Ni 4.334383632070813 0.9859419048803568 9.382697929160583 -1.1731164680689667 -0.3580970776563123 -0.9165124021528344
Ni 1.7506122391598216 4.591897164531446 3.4574868520467525 -2.248693766839179 -1.0004123834015999 0.8109308221655777
Ni 1.7485731674767762 7.057162509039558 4.082156000819306 0.5188984973488224 0.7160874545314313 0.21900631016801636
Ni 4.357514639805633 0.20941727513312344 5.5681511722751615 -0.07878425728875463 -1.632924587013536 0.25777006119977547
Ni 0.41852361490100415 1.516930933655327 1.311345452503963 0.01905907351398008 -0.5446295835663395 -0.7474117185660096
Ni 9.109234427385559 6.1205089341629515 2.953233651398303 2.1720458391671364 1.1052048918286579 -0.37934390285023056
Ni 7.8899064671991574 0.4247118745291427 0.11371469127615769 0.1099156885862365 -0.9732255385741626 -0.6677759119102371
Ni 9.066164804686661 0.041058230721956857 6.86147160016375 0.36477037591142986 0.7122176871633799 0.23683973880501147
Ni 2.678998808479826 5.072398409371462 13.477588440101787 1.3721941576338559 0.509178184737265 -0.2496024377873185
Ni 2.7478843704056986 8.437881608953704 7.315908711078719 -0.20128575295980175 0.7358690080337327 1.018374110086343
Ni 5.166241839635061 5.964266219770678 13.055533817358695 0.8147679365234807 -0.9959466343207621 1.9809686513092206
Ni 6.226365356875989 1.3533807768514154 3.976149185036434 0.24761086127858647 0.35443428409274447 -0.09587078045739618
Ni 5.704649029646089 3.8671317398862426 3.641654699271178 -0.08251132843135467 -0.7554237902372087 0.6052019458327578
Ni 7.277299211690157 8.2979791477319 8.038292758342049 0.8591899142822816 -0.6534466397717585 2.0350327801434758
Ni 6.473065350818389 3.8428474110637274 7.2906288354933055 2.1198724995976908 -0.5801005227794397 -1.3924475085662533
Ni 1.8148291573227027 5.220983071741438 5.887102580405764 0.05735025578469478 -0.31329817617406686 -2.460933190597007
Ni 6.923118918943245 9.014791270156357 5.825780959501434 -0.5495455328107182 0.8070039763073457 -0.14340276460008852
Ni 9.005131052725819 6.191636552283304 9.222122418106055 0.11195071673839428 -0.822504643046106 -0.3579158148834416
Ni 3.455396111578978 6.278375524646701 11.70881923639416 -0.09907360366541001 0.9176575715008712 -0.2505095229826202
Ni 4.347752930119379 3.9524498206695986 12.018803342403713 0.05248367172101283 0.8079118328335957 0.38578760159304526
Ni 0.47697761825288854 2.5050779884553576 9.67033344046121 0.14768493691521015 2.0569393504085802 -0.2707250786985467
Ni 2.585911956849754 8.580524361079874 10.265861394646745 -0.18750901089068353 0.40098050728339973 0.2900230076962102
P 1.0522532541384926 7.101413132532255 6.574227295376069 -0.5498288683790918 1.247801101367051 -0.2087319248252018
Ni 5.803465580439832 5.954495283515723 5.261394519997415 0.3290441261544139 0.02581567551152328 -0.15990050514479556
P 7.850545925118288 6.72077104074926 1.16372312124956 1.1659376909323402 0.9414395044118175 0.11101174986389269
Ni 3.842349176353843 3.612736787646738 5.575713267982962 -0.024907818985273233 -0.10164264994416689 -1.7557238164306601
P 6.564362248120358 3.4594465752389647 12.673073168884622 -1.7034993119083046 0.3366880158529169 -0.5208481648760257
P 8.889291482677692 8.117636635891143 11.953214433474908 0.5673709910279131 1.0858041187045429 0.31582839879508834
P 0.7688767269505076 1.9967770921175316 7.31585427432338 -1.2130179322495949 0.344468174018968 0.2679788834119772
Ni 5.478865666950132 0.7112512694680235 0.20661516621845863 -0.38476918763085993 -0.8157058749567178 -0.7908391936220251
