# total energy = -340866.15491073066 ev
CRYSTAL
PRIMVEC
9.27252174405893 0.00000000000000 0.00000000000000
0.00000000000000 9.27252174405893 0.00000000000000
0.00000000000000 0.00000000000000 13.57127285329088
PRIMCOORD
 96 1
Ni 1.9619543682543075 7.94705200261748 2.6105839671788766 -0.6719873788884234 -1.7813754555604933 1.1051994925120192
Ni 8.802692507936321 8.381534562277253 3.580061369619408 -0.46820354209711623 -0.12180884047939668 -0.30674083467152335
Ni 3.2661716665530833 0.7811376461867073 1.377307952342316 -0.29250926445317366 0.5592627600984821 -1.2312884484240085
Ni 8.680712482063466 4.900360929938243 10.897284738759662 1.0786299695536068 0.6327775414581811 0.5401658913680311
Ni 4.311379610028109 6.787467501244951 9.845551721608716 0.3579189002072352 1.2298902825249012 -0.5815300561371146
Ni 1.558887112863423 1.8237010664098185 6.469521069838119 0.2963301808611606 2.219793795975377 -2.4304450493104786
Ni 0.7536455459426613 0.5813936152220488 2.068832237674169 -0.11151902851761439 0.4867617647152778 0.45545884083693816
Ni 6.705155324150818 5.865389376361002 4.939291613224231 -0.5106452562010948 0.5893040436555786 -1.3528602331919346
Ni 6.1505101529147375 1.4560362997139211 4.887449870415221 -0.04907978824578644 -0.311632872656502 -0.7783330907352143
Ni 3.220235592955659 5.807667927401784 0.5595262267753782 0.048065745158975284 -0.29140908941045945 0.6202071609923383
Ni 4.127394230068462 7.769473935305353 1.8987973669449056 0.02006103241593319 -0.011857156448902161 1.8215900801061657
Ni 4.428324656497774 5.934367666932508 3.589370981628252 -0.8647003025775495 0.4381797420415163 0.33071534320924983
Ni 7.4387787135091195 7.501303328823497 8.489794964715559 2.5144337336183087 -2.217222949924407 -2.805498295205155
Ni 5.888774676646167 6.536423242751477 0.641041894236484 -1.0220937250297752 0.32810927304497045 1.2484441342676889
Ni 0.5925911126940411 3.09901591388034 1.5603568075879266 -1.8549884530609535 0.108277124541549 0.3471146105028796
Ni 5.629255333116753 4.886396511924977 7.265625493657769 1.0053517296847458 3.421017306693205 0.5551875615878438
Ni 6.723079109024418 1.7131726051095968 9.1278075260404 -0.18584833535880896 0.8687821859564071 -0.8316809102287354
Ni 8.383871237801385 0.8995607326506045 5.280677125543371 1.3457776153135403 0.5193517828361571 -0.18739253991747729
Ni 0.016455017401289743 6.899739196666351 5.458868106554486 -0.42998486493554977 -0.09333721540226506 0.08008652103994596
Ni 5.2846606009607004 3.8539104685257817 5.040588351699746 -1.4388415224497608 -0.3952482327853128 -0.6959145791279822
Ni 3.0542759956107455 0.45082908855458537 3.5311506709896756 0.299146053043401 -0.37885642169085076 1.6990657016169834
Ni 4.543164840491335 3.058838076395956 0.5774481571445954 -2.522732483291991 -1.8977849794011894 0.3896154599795677
Ni 1.2638632828978895 4.956886223569632 8.703433869779076 -3.621985014191955 1.6277782669259064 0.951952231017683
Ni 0.6412458897187494 9.022720180603516 7.001663684875928 -1.0165640534607976 -1.5614504902329496 0.1325524521491459
P 1.8571470529794412 1.2541178623587508 10.621123072886151 0.7006032428529031 0.2469187203075683 1.2715372686417263
P 7.766172917501421 6.175008155830441 6.752740052145824 -0.10082735313172313 1.0075945029723357 1.534802291517802
P 3.7645140846838827 2.034613850028514 4.758699049035536 -0.07423211914169796 1.1581937853208633 0.5964828207922049
P 2.560217482607522 5.615596908326885 10.270156263665879 -0.7663828603518736 0.8165252855342195 1.135169556511548
P 1.1516750401737799 8.878449012032194 4.914022136484688 -0.8065437488414754 -0.4879550136924306 -1.832976981786869
P 5.576086692420825 8.988078038706062 3.169679021684921 -0.34266557359259053 0.733326187007221 1.2011363503206602
P 4.177901656973018 7.6830818485659105 13.393530165380911 -0.32131179050716274 0.27825583985795305 -1.7683631024612254
P 7.477593490271092 3.165907887019585 1.9122601415222371 0.3043332536712952 0.9124323185461899 -0.9070273454805347
Ni 3.477353353307492 4.90753786190522 8.418396545922631 0.2562965619780425 2.9553984946041294 0.7029606873414861
Ni 2.792596154473702 4.342850549428525 4.645310941974828 0.5998386246383154 -0.8549103130703212 1.4978640237305558
Ni 8.950598505100736 2.440676129999933 7.984414702446601 0.5448828372277261 0.6712697839961085 -0.9261049309372761
Ni 8.093251855748402 1.2308716499024037 11.348095282270405 -0.34883056475272184 0.3411815328478963 -0.13040686656105283
Ni 7.868727009949445 5.232289397149992 1.1043313977487235 -3.066657584592138 -0.7710658676498398 0.8013310942922844
Ni 8.049429917149002 7.864990183615217 10.764380754811489 0.7713139791049038 -0.7061105458243776 0.8529657877494407
Ni 5.300229165266327 4.183938068743692 9.58655720282004 1.213156257599672 0.19752680013800175 0.1110955678269506
Ni 2.2110328521004954 6.985816017660475 11.924399210209929 0.4810919680240101 -0.8915673021717225 0.7451537757697683
Ni 8.966760510809317 5.1284556966768475 3.4311437403133938 0.9426607784134282 0.2984256299376086 0.13559586696116002
Ni 5.223109600448044 7.33827384840567 7.054320482361809 -0.20782638229179692 1.150740671476928 1.1917757350413667
Ni 7.007254088342195 5.8240061110268675 12.315306480353405 0.05150048187213712 -1.397753237049883 -1.0496369247553665
Ni 4.083470293727928 2.0274461905834578 9.143020952756448 1.0406033537981885 -1.0822935344481233 -0.44421360694042206
Ni 6.657207113296501 1.8870509361751806 0.10441879660636984 2.7683767077625094 1.2927779231880574 0.27415852986012784
Ni 8.52665880286532 3.3487805643486936 12.873235051601768 0.006413359725511536 0.4645294356796387 0.340107325947111
Ni 1.5272492680684264 2.311083363629807 3.7911623854331027 -0.8254688678807526 -0.3127088793295002 0.9363695460880777
Ni 8.747743543031529 0.24085561140650363 9.074064916237552 0.9332556830494444 0.6447781654634831 3.1413933828431317
Ni 7.852045743013279 4.851411286716441 8.752168390492306 -0.8073099375835386 0.7510865963144355 -1.1699470692020495
Ni 1.6584183631651497 4.213044515054212 12.25780479016372 -0.32834530031517645 0.4312637316479734 1.3561278481996126
Ni 1.091468555339691 4.8042326951815815 6.288846907456517 -0.8127447354458647 -0.7710967208877751 0.046283970668204166
Ni 7.273894728707059 3.6153377520162677 4.032473277665935 1.0128948321393265 -1.2559815802953145 -0.6164811182910028
Ni 2.879581682616099 3.731661539517214 2.4765672806001655 1.1516896656537585 -0.36568208909242184 -2.1671987954874803
Ni 5.821595255327366 3.522927798549991 11.699590625240184 0.43136169067841834 -0.019659683212456463 1.3945727824393723
Ni 0.901915025966387 8.796906454257517 11.461551078741138 -1.09250467065317 0.4392403220955467 -1.173973159642307
Ni 3.760239452078228 3.3826067243170836 7.004718053596759 -0.7348786190960054 -2.6205043374268415 -3.346212859987805
P 5.848606111683704 4.437522998243564 0.13733068591333358 1.7157395627282388 2.1117717248674275 -0.955856965388728
P 8.303580470486065 3.1031978212667832 9.89139506998693 -0.06801133504296675 -1.0458813143676762 1.2345159542223707
P 5.863423601713717 2.972835435577201 7.018410786717735 2.578977678937965 -1.7324622747995582 0.5059609633515479
P 7.793387769340023 9.032456328620732 13.054302368912827 -0.016008202502798236 0.4972780908655694 -0.7576344247352823
P 7.832508539325397 0.5309010243525666 7.371332243558989 -2.603676210125909 -0.2089232149004015 -2.9332381564570063
P 5.806481044595875 1.517754205621159 11.083604012486866 -0.40355366732721465 -0.889962676688764 0.22680240917366742
P 2.1642993416178515 5.6889703742890205 2.9084869152009296 -0.0521298879260199 0.7715029551872584 -0.1474270552681332
P 0.7058206596298967 7.841039259492862 9.033107259659598 0.2661806538609739 -1.1655556250025734 0.4934435476108276
Ni 4.053371687571845 5.273505757089546 11.778426533866075 0.8376659241675767 -0.3937047995575929 0.9804680790691888
Ni 2.1105465320408894 7.029990312092878 7.411475772712265 0.363349070083871 -0.07928665084646991 0.6381578319334881
Ni 7.742444533905172 4.101755706956456 6.358290678628466 0.3599837531560639 -1.1553102931254813 0.047860314016388544
Ni 6.044998125973863 8.521039654581099 9.607402759350999 -2.052764393095284 2.0213732803785125 0.845434512369402
Ni 0.967151853942705 7.887995310501615 0.5687458953215871 0.019925278169017298 -0.16196175854919848 -1.485709390645893
Ni 0.6861313865825065 5.494627587343437 1.0810824035358002 4.510995611380096 0.02819677414919015 2.206350783096594
Ni 2.258721432341019 6.579809372820582 5.039950402191571 0.9952634922108085 1.1802260825305544 -0.713401680169152
Ni 0.37308177400223885 0.905810412425466 13.416696634148737 -0.20030204889029374 0.9262517409277855 -0.43064229601389065
Ni 5.37933304977574 4.388462084758708 2.3264284601571337 1.5355116588800006 -0.5765832536548006 -0.13233056594632694
Ni 6.0939477691956645 7.882904695966898 12.076722636817586 -1.5242265728844846 1.4255964845143962 0.7582972551302618
Ni 3.3069151278746585 2.1132262908761046 12.100025411657652 -1.4112245320634407 1.5106889434093662 -0.49521272369610847
Ni 4.457913273948194 7.935785888483271 4.8392717010172595 1.5120549705189572 0.0409648724481359 -0.8342124184013375
Ni 5.931140829303945 9.107127947651831 1.0574207820973853 0.38391712404320977 -0.5512771707898441 0.7019821254783006
Ni 5.090466174365856 1.8419493895506605 2.7954112921289656 -0.5946244274272275 0.4576522489438312 -0.31595849661504943
Ni 7.889265646004813 7.931826521622935 1.3133943132441475 1.017174690461603 -0.357862593048003 0.3244922451176734
Ni 7.500821157683598 1.2717820166185596 2.6147909103745066 0.3712935217419283 -1.983497074158029 0.6156647930372945
Ni 5.180177823953075 1.1135186124682084 6.919245801031893 -1.2178994287116123 -3.080883755493849 1.315144720919032
Ni 7.0159702589480855 8.21013199456462 5.667729808324221 -0.028151008512919257 0.5042468088739186 0.19218918997517223
Ni 1.9801934188732284 1.0175758281499705 8.485465624230569 0.4412493821057755 -1.3424125554960493 1.7261265623895174
Ni 4.815990252977612 0.9574064334035661 13.121887926691775 -0.2822225378151849 -1.7023081198136811 -1.4822530566661762
Ni 2.733112926349463 9.223136469407457 12.796841525249912 -0.5838049682142205 -0.9167170619644728 0.23070071578680912
Ni 4.291452960419537 9.259827838649485 10.901233905845883 -1.36635158281015 0.2512176047932383 0.04739905810925385
Ni 2.8568176412996524 9.130522520458916 5.969243476382374 1.6356792669405378 0.45911340687039 1.4560861684628212
Ni 2.8475080292908084 3.477047360084094 10.373107220052129 -0.8292972404879071 0.5751534631868094 -0.7383745480644057
P 2.0163006192342237 3.166594053641751 8.21379556797567 -0.029444530513362193 -1.9184857022836508 -0.2402752468491217
P 4.011330073181307 9.032103972787729 8.633582107642596 0.23735035989284287 -0.5553803943249402 -0.7099828842955901
P 9.289676086713698 2.95395658094572 5.3369576245960415 0.018178213570923533 0.8979174127594665 -0.552170629138391
P 2.3285806124950352 2.6379026712629967 0.5687866944180403 0.5368885061683398 -0.33477202977712667 -1.2431975411567684
P 6.422658671300771 6.2045504106712555 10.070427068736294 0.7496637478249798 -0.17575701256107795 0.5372129793872942
P 3.9141818610133186 5.8121187379239405 6.4097531752909 -1.8047881780574788 -0.014857890948438928 -1.585624773486308
P 9.12607170993676 5.782993746569578 12.885802100561515 0.28048344363689115 0.26198024262638103 -2.673592475501073
P 7.405647992684815 6.650938888477797 2.9685394761711277 0.22317998192973176 -0.7987677044404824 0.5327917103911469
