# total energy = -340870.18079810217 ev
CRYSTAL
PRIMVEC
9.22400408381902 0.00000000000000 0.00000000000000

0.00000000000000 9.22400408381902 0.00000000000000

0.00000000000000 0.00000000000000 13.50026235329093

PRIMCOORD
 96 1
Ni 6.201795837252342 8.944737841202238 1.7705862663167073 -0.41896511678627846 -0.6510889381728594 0.5162368913562593
Ni 2.720011130553725 1.9500558630562987 7.645819163356383 0.9405465602839027 -1.928317343662092 -0.10058926897898805
Ni 3.843559358939659 5.119036153579952 2.093863616383068 -0.515486643453796 -1.4506781100733726 -0.580710902669929
Ni 8.861583447128835 9.16069944169482 4.147914587652477 -0.28172965733916644 -2.018630170415736 -0.5385376117359887
Ni 3.4008717455436632 8.569293215359776 6.981984214542894 1.4647124766792516 0.4654090100711146 1.1329848901554036
Ni 3.2785522314219304 7.83316236972227 4.564519485560801 0.5781004616302753 -0.08706526635062425 0.6619405361753826
Ni 3.6302819435469513 1.242814597256607 5.458318072604356 -0.33760204302675406 0.5677471434204093 0.1370984196486155
Ni 1.1968237144113496 0.803377522792554 10.662803552398085 -0.9020700014752594 -0.6748526162513603 0.5886962348682506
Ni 6.446683913597857 7.818486979708872 7.583137445671877 -0.6195011360642492 -0.9060454411832397 0.49563875548993347
Ni 8.228641531774098 1.9343842806347 5.737705767886459 1.0355480507624681 -0.8961106985680309 -0.2751869711246422
Ni 8.501745835681515 4.29497287991119 7.158972554265765 0.3492961915352307 -0.3768404197020865 -0.25198636463846286
Ni 3.0673963368985384 0.15364515335774903 9.341667939048602 0.1546143170451918 -0.00694120720452353 0.4755481553876455
Ni 3.6671318386465908 3.6309368478153052 6.0353459218477035 -0.1593718863348352 0.19881826525591564 0.18852073998464952
Ni 4.603229862222793 5.016797295686483 9.149573448335826 1.3516165905928206 0.48709009458897407 -1.1455416437744916
Ni 1.0473395091585938 2.866728134672591 6.164908123737205 0.9777905322370256 -1.0302091550480579 -0.04910807038056059
Ni 3.1322779794844875 1.1518013519629537 2.599327032302122 -1.8536044282292334 1.3587418887836922 -1.4004176712559238
Ni 8.732087658066545 7.359205383513313 11.326125646601424 -0.21318944637592316 -1.8314628591351876 -0.4218041288969704
Ni 6.309919609557217 8.19019588402058 10.702089506895925 0.2923388003135804 -1.17313086624667 0.17224514275307756
Ni 0.8676411571252672 3.0044609591100926 8.67759039893571 0.10784466498982072 0.6406500022277224 0.4994591576772882
Ni 1.6708637166543234 3.630512543641442 2.4266859655605937 1.075933139447734 1.2594032043823535 0.1717931428173235
Ni 3.50918922192791 7.697597186172983 10.985230449315964 0.6282832531322534 0.3411118559522255 0.38306248935239834
Ni 5.259573075166462 3.158621734279123 7.858110532745047 -1.2733141580364908 -2.2250990102383743 0.04696042790993848
Ni 1.392151218448889 3.6965564107036246 0.1360503661480963 -1.2523167298492173 0.8953457953775483 -1.2710819262718625
Ni 2.658902105513647 5.554538268031613 0.14985869980620908 0.5578566237795748 0.8336457472645901 0.0972090396528455
P 1.0929337598413267 3.9290105299541924 11.600396786986966 0.6749775718649988 1.4154074597965367 -2.0257577825994533
P 1.607789978809183 6.749434165653018 10.436458490850768 -1.52967602603483 0.4350643363409862 1.5640655592582935
P 3.0147364993206054 3.7745822586755526 8.631284055161188 -0.06128327229051381 0.2640993458519129 0.09073705877525663
P 6.995576706512564 3.76456499057087 8.753597112480275 1.5494550084339702 0.8168608144967674 0.3267252482132502
P 0.4610719753291856 0.9763700240780863 7.637799814470368 -0.5777369076432696 0.20903685766013033 -0.010819716323323302
P 6.994073193896484 2.3549250609557935 11.220391813675853 -1.2407315961147791 0.540487793483824 0.9828180673586041
P 8.099791422976384 3.616049305714975 4.145201808140887 0.890760489999711 -0.8667150190147331 0.5249583303896571
P 5.075618767789212 7.175739948336385 9.278621873214801 -0.8307355155963306 -0.19755919603783395 -0.9919403413748465
Ni 4.0884013152662755 0.36803498360628073 0.31880186343248185 0.12380967295950936 -0.5574681300919044 0.10365788060198278
Ni 5.274838801421757 6.6372241596737656 2.5898364548132564 3.1786304128177196 0.46507990886647 2.191085629407407
Ni 7.0900305052160215 3.5016070908210506 13.286471808274285 -0.7876937060145079 1.3049171296537527 -0.7956641258144942
Ni 1.5072760096225064 -0.053462325906761275 5.915611895985403 -0.6127028821954932 0.938681739161022 -1.6446863555351547
Ni 4.846374601853958 0.4116497630779042 3.719430095276362 1.837746121040738 -1.79889598094276 -0.11072532897172543
Ni 5.164528940221109 2.2609416864450984 12.639457752753337 0.7707169689508533 -1.0217291426015047 0.3800782099130938
Ni 5.7647164181543635 7.430802100850836 5.141467085971267 0.6575010123467903 0.3417646590448759 -0.9751476952975401
Ni 3.0807988143903473 5.34290272531168 4.399816596472026 1.3189070161749414 0.7365966302283765 -0.32091506928937635
Ni 1.2997543725882905 8.867431465525122 1.4425705455087487 0.02784633278830688 -0.12472112903018522 1.2185064661679919
Ni 0.4293801431431176 1.8644294359699523 3.3928588534602944 0.022010185722504027 1.0559944915422783 -0.5109931264588168
Ni 3.352694773802632 2.8133396007960667 0.6704135083091233 2.00832801715878 0.18353768494776132 1.3962707389670856
Ni 6.36610301657897 5.235240153195787 7.036646583341386 0.22267990236486165 0.3479972702181491 -0.08692539833865029
Ni 6.881752499871875 8.613005769271465 12.945252848456159 -0.4445594203156151 -0.14358582714517207 0.302105392782041
Ni 8.984714673583174 2.4410495842462407 12.157201930343843 -0.09625901703475036 -1.6686698629339454 0.5850900055742311
Ni 3.1823089759852246 5.1850615726345755 11.130911597810375 -1.2592594797156376 -0.9207940602473239 0.6442531461979485
Ni 2.7282020459100407 2.579464984963435 10.555165885092396 -2.790945594201961 0.7095830777540102 -0.7158853658229541
Ni 1.7108497730390386 4.966360443019442 7.340214082131424 0.447608491554584 -0.33787355152058585 -0.7554595285711506
Ni 8.980314823780288 0.06687956180461756 13.229163072791415 0.4557185222562281 1.0603201155008255 -0.18910026663720336
Ni 0.2688935461820137 5.733207221243132 9.076671534463484 -0.516614329300336 0.06740044093184522 0.0747368266922584
Ni 8.402283402925717 1.6617319529124852 9.492520064061878 -0.9504604769635049 -0.5164096694886977 -0.13445686826071038
Ni 2.8920480250476874 6.586160074749709 8.849219592462612 0.8237850524204264 0.445515099360665 -1.2832141907590224
Ni 8.642476461347396 3.8163854438048554 1.544308539996983 -0.8086638805082718 0.48836896130139756 0.5319910688667225
Ni 8.590849712192783 8.170124451796097 9.220476520589118 -1.2406554914612054 1.272848274143666 -1.0064989559153117
Ni 1.170249359522223 7.893570370475096 7.880400337878534 0.10156603106996057 -0.16087058236754875 -0.528445260496993
P 0.5032367414066506 5.996340377064763 1.2681105052218766 1.0508263170777772 -0.23924346315049766 1.2447402030535402
P 8.330456085493703 6.567647499163983 7.266853735271235 -0.4842400267346886 0.44552949753836824 1.2560013777896561
P 8.170991508151381 0.1235878146414322 11.198115844548036 0.4434808425394556 1.5126923469926399 -0.5883406513010448
P 5.926523892456712 0.927953228238785 5.472493521612898 0.6980527085169075 -0.18342327085708413 0.5983000765066019
P 2.4191425752696087 6.68883246082082 6.295752462152076 -1.702706126583048 0.42633029890209806 -0.6385008170952036
P 2.33407881241382 2.8635089573534986 4.269498026272595 0.6780641812101226 0.051465000648511366 1.195115083827245
P 1.8532130473739168 9.076059983012893 3.592231083155203 -1.1893272735008744 -0.7503250355580626 0.38933495262467144
P 6.965607918232531 6.363861583660519 12.223366631855539 1.935416159490402 1.3321836786791896 2.721665676859216
Ni 1.9451210210341945 1.1360467535073382 13.281679015910386 -0.09797908504965062 -0.13317414489354484 -1.928263350495705
Ni 0.9570180641484132 4.679918229646674 4.7338131613307 -1.5923898601242834 0.0031591144542719787 -0.1661310594355397
Ni 6.350846514327455 3.139398910402365 5.683583003309077 -0.9999866087180906 0.6151881105111922 -0.649280681319527
Ni 4.411425927629074 6.409382042313015 6.69761463481941 0.3221931646708516 -0.8648941637559104 0.7234418380139734
Ni 8.721101869565 5.4853305676730155 12.984362624481806 0.7388450599429212 -1.591819075222478 -0.9873288107447641
Ni 8.87507816465844 6.707557188493478 5.2226171040233575 -0.2655641033228975 -0.04473102435878748 -0.21976247160775056
Ni 7.010030720435251 5.9883892858067185 9.373110723132621 0.5011848821191434 0.14476004995893132 -0.6271144296351329
Ni 8.004424447898744 4.21192917388314 10.731479950138976 0.5663888296203019 0.38178902195661346 -0.2410902865512493
Ni 6.460584487293765 4.128092203530043 2.8692379861010298 -0.4898098075129822 0.14498656414744063 -0.02490087700673776
Ni 8.110149979220914 7.575591288179758 1.4527630696852447 2.5882899574778264 2.2402515496090967 0.48377542839344423
Ni 1.1032923160858563 7.356456630386982 12.868570937834921 -0.4189892851559945 -0.6242224527993184 0.9435614358508266
Ni 5.092839982845789 7.365486930087244 0.22797586541555528 0.08615535294184518 -1.6864066180920765 -0.2690160664272399
Ni 6.868626742493454 0.9073910790132239 7.526085137494082 -0.6858811061513801 1.2228012368886036 -0.265843068015897
Ni 7.016764243194385 5.845537139271521 1.1303297159647208 -2.4175072582028885 -2.4771370540503788 -1.2034583135856176
Ni 7.530402893663329 1.5983077029237187 1.0611958076363606 -0.28233489502333314 -0.302049342733125 0.589154662561908
Ni 8.33079737363355 5.550359794319438 3.1458178946326125 0.9116476178613655 1.5022747512037418 0.011121306724142138
Ni 5.950912158450064 0.9607906816942837 9.776889643785362 0.1850654344461974 1.5229844729472675 0.6732873286467694
Ni 3.4259149158053703 7.604729916119624 2.094565563070698 -1.595220387594543 1.225768289936728 -0.825637789358449
Ni 4.79658342945149 3.1692108906181438 10.538210321344673 2.51718841354531 0.5834167316368661 -0.06300128342288505
Ni 1.2170150586849695 6.9363493782435315 3.463411413569962 0.07883542224166423 -0.23233233785296117 -1.5227487027873776
Ni 7.031079897060377 1.5153193409183476 3.61088847560027 -0.004433610291321397 0.6780276715452322 -0.5584073540767222
Ni 8.382811530946906 8.723094254381401 6.356085748474287 -0.3110875416759933 -0.12749792044437397 1.5691884823071554
Ni 4.439706723217434 3.154203436468678 3.4600631001979547 -0.566347177749089 -0.8146568648669131 0.20085406473902181
Ni 5.452502338221296 5.877987184568274 11.171763788149997 -2.810536114739379 -1.3223582079483356 -0.33435551106499833
P 5.224706340879443 1.6495654919271474 1.7267242835437897 0.6603587935105596 1.2897301375006691 0.5565273634451899
P 5.288794719140344 4.946501162881889 5.064394077589775 -0.5687694140373366 0.7397955967816484 -0.8410919191299902
P 0.5388091119828109 2.0376470029477076 1.0437190876750873 -1.2164022753407955 -1.901708482825312 1.1803677503147412
P 7.2627591999934555 7.7107782875740805 3.5109998938698523 -0.02697292904441806 -0.2516510927862311 -0.11573152393706519
P 4.54376270985549 4.327994813442281 13.010553260813701 -0.10540340253817976 0.9332312575694123 -0.3462306652360295
P 3.0559493482080122 7.681187683449013 13.112061577607822 1.8479976235654174 0.6055187057422281 1.5267287704810482
P 3.6075632222377116 1.0204792101522981 11.68458426948369 -0.20844293282987328 -1.0685247627988048 -0.4151516565774592
P 4.7327625473002 0.7815129442333084 8.102209034367025 -0.8210586546281988 0.43851038590805763 -1.394651715306424
