# total energy = -381162.73182585265 ev
CRYSTAL
PRIMVEC
9.34576392405303 0.00000000000000 0.00000000000000

0.00000000000000 9.34576392405303 0.00000000000000

0.00000000000000 0.00000000000000 13.67847018714827

PRIMCOORD
 96 1
Ni 7.631825445206122 1.6335834290986113 8.834595333520468 -1.2791202231953067 -0.12558964767806757 -0.9493839560698746
Ni 4.483303057828302 5.48059885346512 10.239196335802195 0.6183138006243674 -0.0783055178801232 0.661853375778215
Ni 6.528315044538778 3.703763557590627 12.265401842116459 -2.272405765744138 1.8835063579949884 0.4695202040260107
Ni 6.852398094133458 1.5182380128833235 12.656086542506525 1.6137369583414916 0.03744863176476131 0.6534821209953842
Ni 3.1933727076190412 3.9788187305473715 9.085499183791788 -0.23708707892912714 -1.4196477231301294 -0.30153383654928717
Ni 1.3007807819242143 4.6238539988801355 7.361657172114794 2.5156511509651773 0.7027087192316802 -0.034203128244270124
Ni 0.6242605700905852 1.978984165809405 8.87725874504395 0.4215691300680288 1.3586804394181373 0.9094331267085498
Ni 9.178923176552644 5.206412836537222 11.327414263243718 0.571001645801965 0.8002082935417508 1.184935572191082
Ni 0.3400072964500708 8.103496795957165 12.334642736595136 -0.36652155427458166 1.3563029403248965 2.475659441063588
Ni 7.289153671510631 2.9437753951201193 2.662965100845486 0.6959816849204917 -0.6499959622189967 -0.8417339235893633
Ni 3.3162601551814155 3.1710269864903142 13.494726783553002 -1.6149245508916896 0.3800368151521971 -0.6840975318883961
Ni 2.2429085341386656 4.307359709451296 11.328358185382571 0.9509615849696398 1.1812095294897462 1.325862107336536
Ni 9.125390641786709 0.3502259545354537 10.486311413448842 -0.008730180784146255 1.549796450933789 0.5110188374904295
Ni 2.7406171827000954 5.972120606423364 1.3951215941090487 -1.0450516193775292 -0.028176976654848248 0.07002116638414392
Ni 8.412720081187697 3.681221575423128 13.261112596221102 2.169101411826832 -0.9102934178263161 0.9135353218023815
Ni 0.17679942033660132 6.558156068195837 0.5683691645538886 -0.8948703984030267 -1.2376853530892877 -0.4768807581561399
Ni 6.4685582311146534 8.66791550617349 13.039398369873396 -0.013187959445183738 -0.23455171410178316 1.856634730415125
Ni 1.8476388020523433 3.097559937643419 3.2935705099466497 -0.19780782171353029 -1.6260327449897094 -0.5813292529802182
Ni 4.786199260999385 6.690735072768034 5.297205996802163 0.27001519711571564 -0.3788821327224636 0.3819065213710842
Ni 8.405047209148096 4.223462788258245 5.7413877180559085 -0.055887555196239225 -1.6136300004499824 -0.8738182057184177
Ni 4.21999550990661 5.908803057010094 7.797986582664919 -0.7573096944060119 -0.4946033722468836 -0.5921026894466382
Ni 2.102544508361854 7.035827399275044 5.280204183386278 0.0651584389752039 -0.21069316231663068 -0.09822848205629534
Ni 5.561336906510321 9.199483856804925 1.8136828386157036 -2.4890397190252362 -0.8160565734279172 -0.5043951615263248
Ni 6.18440963002815 1.786835263088102 5.0553572570292244 1.5932992593124302 0.5515324813337599 -0.5065116936486954
P 4.447041494474282 4.830825282910582 12.253528983847142 0.016639408328893924 -0.6719516405544814 0.95763668299697
Ni 3.0090462091573555 8.156132137403 11.16719890068333 -1.4407731922548348 1.0377337455598774 -0.6240661297271123
P 7.367134724249277 0.5021048958299171 1.2913649249450454 0.6664412522592136 1.9812177912055493 -2.1759490308762843
Ni 8.160048012414684 1.187211060821623 6.487533869834757 -0.028300903827222227 1.3246776001101315 -1.4406801183203963
P 0.7784142702820509 4.201621738372073 9.67409818856117 1.4324163356497073 -0.12192222612880937 -0.7505271242665397
P 1.1763512833429193 4.615340008102941 13.396091592924565 0.6339036846428243 0.31184653132920487 -0.2976524992170099
P 7.786338957302002 6.444922794588283 12.68843596915436 0.0717224653459668 0.44789208423327376 0.7588641833773253
Ni 3.1211112622960298 2.1048529120083597 10.861046633421386 -0.5795873305884469 0.29345285931336557 -1.4948347499859287
Ni 4.2353038709308075 1.4611914709469986 6.134876147571283 -0.6317100194256153 -2.7022602757494107 -0.14597309643042602
Ni 9.28144620490151 6.209942256595981 6.432519096937908 -0.4468875542281594 1.6187806914129865 -0.0031804546105106512
Ni 6.459175084308613 6.648613715542115 7.482547429963572 0.25182155692582436 0.02363795113391413 -1.0355364807982426
Ni 2.3998893278648197 6.135204183878945 9.557625673237505 -1.2018662865081495 0.6161286200475905 0.4928858753351447
Ni 3.78415581737704 8.087412736541632 6.727248971743333 0.023638722464862514 1.1551760815404621 1.5462053911484208
Ni 5.815074392350953 9.245997722993831 7.290583573364539 -0.7415308343052003 1.1273415758266974 0.5587020024990055
Ni 8.326056813924339 6.061970779125826 8.791727249770842 0.04487397769455498 1.7102751971795578 0.8896816551132355
Ni 8.965895837611527 1.8851807350402554 3.7100383033730724 0.13519683175052846 1.0161241377099015 1.4424698632309674
Ni 6.175512462937164 4.525714133730505 8.56432238787513 0.029770289283897116 -0.15554917015463535 -0.07284089522112616
Ni 0.8253346771941278 1.920236694870392 1.12494771355947 -0.1677840216579304 0.4348805024649543 -0.8362893555350243
Ni 5.4015804209501095 7.479984821543037 9.343393665348879 -0.7111771617140075 0.8902077028200346 -0.052301380506877666
Ni 7.482947428652116 7.657928163362766 1.5149997057435893 1.176448103545361 0.027310000668862643 0.1630447072007321
Ni 6.196858187344531 6.73488446072793 3.3905645844604035 -0.17414647354084847 1.129624458323603 -1.3433641207760412
Ni 1.461789599827065 0.8374953849869761 3.1524363932367527 3.3548977893563126 -0.8202677832957873 1.4997766673722364
Ni 8.70244810323357 4.052257742103014 8.073976331996766 -2.0735893002604353 -2.1063384696669982 -0.89267390497234
Ni 8.83027011405649 7.24611642943711 3.9126170784405323 -2.1142258428348755 1.3584438979272992 0.13543183057946998
Ni 3.64705346314934 0.30453451555663796 9.238602420137635 0.05011234327535886 0.07196414904312767 -0.38486560399940817
Ni 3.0069621038408743 0.43221260161779335 1.30949290289293 1.1723572213054392 0.4173268098519071 -0.1313499472006125
Ni 1.7442840007296345 7.209518418588051 7.611029251707316 -0.3106913346788391 0.21415823804709572 0.037001774035329824
Ni 4.342957723578993 0.9396604705841778 3.3609637469317466 -0.6497488792051971 1.1381096129764785 0.6139053871440266
Ni 4.449574196450813 1.3779394074527687 12.422307869732604 1.5520489944133915 -1.5245099084528582 0.3197179636574816
Ni 5.68309351665882 4.330322250987592 5.883123701951372 -0.3616027768167256 0.79024115502671 0.03186676680160964
Ni 1.6654898665446487 5.1453476161879514 3.862252757586198 -1.128147102447128 0.8063236624108694 0.7318729995004621
Ni 5.112889778680604 7.468489532129263 11.639242212831665 0.41794593149314474 -1.4619683382752113 0.04022233785515653
P 7.163182121910414 8.54379441779598 8.762208654963194 0.956134644530147 -0.058654833528731236 0.9667676987639608
Ni 1.6754057218844982 8.11319769873074 0.5342917061884856 1.6576853388979838 0.7981382983865996 0.5964455397963663
P 9.126605591074345 1.2459585317606363 12.822649547806616 0.36691853260268426 -0.3465219712242032 -0.10284901154744222
Ni 8.039282053223795 3.424334567198397 10.24316361251451 -0.46332924472395043 -0.2759487889913312 1.1743277147682485
P 6.93720155441036 3.0900459435875858 7.010216268291705 -0.01273955905385548 -1.5502253109410915 0.5062913501077732
P 8.70029857757083 5.166001754077742 3.778403499788277 0.015489096774534616 -1.6188344274690571 -0.9575754907417315
P 1.6986953651520802 8.561308379065421 9.276916313211384 1.1723788185719939 1.1696493354559725 -0.2662690998097221
Ni 9.116885996773266 9.237109901666596 8.01898959639117 0.95654087882963 -1.8394163096543097 0.6442107229957873
Ni 5.3084685766985364 6.954304302074757 1.1601541401859983 -1.6501944298375772 -0.43129921287159917 -0.6089452149252738
Ni 5.189861488934136 2.214581524209275 0.8629420305282972 0.6059290538067693 -0.22830753296428424 1.1960573931358565
Ni 7.411162617280406 8.219038473211224 5.998706500565937 1.2255255777983023 1.535313941046898 -0.9021900719928915
Ni 2.0525353265300597 1.1938372073211077 7.357060925502034 0.32947298616171644 -2.632463566671247 -0.088946285423421
Ni 7.396938364851331 0.23152353998079342 3.3817141461881723 -1.742970887640366 -0.5287419658018055 2.3581160607287646
Ni 7.331779699979106 5.365159979612321 1.085638496646237 -0.5776122091399472 -0.2659009178370259 -0.5061579098537026
Ni 7.24594820568959 6.192858200459086 5.218896907755856 -0.8853354623293977 -2.017607899798809 0.6939014053526953
Ni 0.8365178180986176 2.596982139610421 5.915910510342757 0.15727026661080012 0.028425602330544596 -0.5232472612358214
Ni 4.935722135252211 2.2728803984882386 8.039876443798361 1.2652123548649628 0.34282138244416444 1.7999485905769905
Ni 0.30246816719128394 7.480760519934374 10.346654861987982 0.16721375097675717 -2.418224853095203 -2.3547425162708415
Ni 1.4235000057390699 7.349854407073611 3.0137499320532517 1.5347783802584019 1.112213204825691 -2.078144523731286
Ni 4.102341690044817 3.114999132802852 4.640543663786735 -0.8972959771253838 1.5089534487754979 -1.0231422208989476
Ni 2.6910005229458447 9.327960071090418 5.072045052783076 -0.9406000392296575 0.5477856126968179 -0.34696754340205405
Ni 3.0555787668737646 3.085681471915852 6.925149257477024 -0.29435351675076404 2.3098034896663058 -0.5986895986355367
Ni 4.773582479935485 4.642620292492215 0.8912587601175617 -0.15868257357729446 0.34918794809214054 -2.0386004428900764
Ni 5.799859488964266 4.525873011714272 2.7698628812062127 0.4101917414690226 -0.43607837942779737 1.9347150196583196
Ni 3.731184028436167 7.8534695783256945 3.234437993541094 0.7625156640869835 1.0311977442135725 -0.339253462587248
Ni 5.6416076713679715 3.056223624572586 10.34216796081111 -1.2768463395594656 -0.027291745836417514 -0.4717472935843166
Ni 7.474227831072399 8.049814728971214 11.131935464897921 -0.26092789010246675 -0.2475383561694382 -1.3542211180952033
Ni 0.17576951717123712 4.411097687087797 1.6830402762927195 0.11924107975222044 -0.6185135753399993 1.3394203056369447
Ni 3.895351714486868 5.594944272959047 3.390236548152742 0.04381108364767938 -0.7147381395923884 0.566128891090696
Ni 6.827557054083203 5.672616915493909 10.810586985776792 -0.1514649727829327 -0.14969399692543894 -0.10215224259073376
Ni 0.7146780306527346 2.5793653749397176 11.45097180206704 -0.30665727381878155 -0.30559309422032527 -0.3265840946496956
Ni 2.1384228954020816 0.9961649582229424 12.812199114780206 -1.1096372165683985 -0.6904350440706496 -0.09514727202781033
P 0.5034824614068198 8.848653231354778 4.951975352991639 0.2533171676347444 0.7335218479577948 0.2331700032629081
Ni 6.079615581087782 0.8027637231590005 10.41895929782425 -0.5050083696302916 -1.359210600889995 -0.1014917261885994
P 5.116955185912304 9.10373650717556 5.022323720474813 0.4574396187123928 -1.1431898557128635 -0.02056959662123554
Ni 9.21098849198245 -0.05245309905269035 2.124211727042256 0.2605566228059771 -1.941116038088657 -1.696289424423427
P 3.811090308507526 3.2827275548426975 2.4845021345612004 0.8273123488473945 -0.22038287880056887 -0.9968413782208898
P 3.10361599255409 5.083114175369802 5.90930398994715 0.40455896866327745 0.12446684692753403 -0.5565692724267189
P 4.271518705466073 8.54200937691953 13.28652746616567 -1.3183107773518392 0.5606169601335312 0.9373527359369533
Ni 2.926784796620735 6.441595702692914 12.76203946615202 0.08115969949946668 -0.4415597142573427 0.0036347685391098696
