# total energy = -340894.5361017843 ev
CRYSTAL
PRIMVEC
9.05792711693586 0.00000000000000 0.00000000000000

0.00000000000000 9.05792711693586 0.00000000000000

0.00000000000000 0.00000000000000 13.25719192494345

PRIMCOORD
 96 1
Ni 6.385639495886755 1.9170922043318233 11.542255027287464 -0.018224750538142806 0.12449924282736624 -0.27282129910594305
Ni 4.818219518346708 0.483274843379003 5.9211661922744 -1.289735793927624 -0.599695928412864 -0.2857344076231853
Ni 2.9918696300443117 1.7361691637676608 4.683514552002964 -0.10993317208773326 -1.0739832148102149 0.03279107838809192
Ni 3.5363688158575437 4.146402105930399 4.887754509109645 -0.24817213309869515 0.11531629077651752 0.16492289806005145
Ni 5.123652828040488 4.720873973290982 2.6708340405181614 0.9135610328339944 -1.1962957343989074 -0.3951998960458807
Ni 7.383315844134432 6.221283404416008 2.6260905968676767 -0.23010190586054566 -0.24095736051781083 -0.18146640424102942
Ni 5.10833587291913 4.814261204101863 11.558746795584009 -0.24514748733975844 -1.3455284754172117 -0.6538441323204933
Ni 5.5511417085564405 7.841637909294443 12.393009076803645 -0.6421137312574425 0.6421242727804037 0.7780883217142599
Ni 2.0504067788298377 6.256835769200944 0.49806643871500367 0.04168478133329595 0.7652220072745531 -0.7762098737446245
Ni 2.5805310339644207 1.6279722217661128 0.40060495218940667 0.41952947393018075 0.12388397784087053 -0.3802018799751517
Ni 0.5919427976019056 8.72484017189829 4.636703183542186 0.4577196118466569 1.43019464540804 -0.05850956620011859
Ni 8.56779382778587 2.120506078465667 1.3335941123831654 0.9508209456267173 1.678043076618729 -0.5734148832291479
Ni 7.066007591706117 0.705335366722088 4.870002783120978 -0.688942261575207 -0.6446874055218897 -0.9715396662313074
Ni 0.6722322654881945 7.236640826819149 2.2630823836624328 0.14793407681153878 0.7843229897700621 0.13259153291719747
Ni 7.641231267035402 4.13631157488061 3.805755197933964 0.8594971611100553 -0.4672699745392534 -0.4085827451106899
Ni 7.4847918040543435 3.8443564610594385 12.604514397424722 -0.04039074511222076 0.26950971823420683 -0.1521825676752476
Ni 8.06689044622994 8.710555820492978 6.8314706792535365 -0.39862023458133927 0.62598494401638 0.5770627643943803
Ni 6.993933663911532 0.5277755345769439 0.30795141349255994 -0.42817995051632707 -0.1812817990340491 0.18759848528069625
Ni 1.91221903942627 6.326962242618775 9.360505584740167 -0.6145962425634641 1.089869289912852 -0.4674419813407434
Ni -0.08915174398962208 4.842322662981796 1.2563508254592137 9.153127254177784e-05 -0.25998892322796513 1.1709780815697253
Ni 6.281726953514067 2.020307286299813 7.041968758355099 1.5820931061839656 0.3817268012601103 0.554259907567252
Ni 3.5578270457111785 4.26382907588503 0.40006781709851574 -0.4082364175148646 0.36637371584280776 0.30267412080131745
Ni 6.06656494762836 5.617898633006119 4.805626281974606 -0.02341529360014677 -0.0802739544604037 1.028551564839977
Ni 5.26415033891416 2.8556836925815015 9.388624108562302 -0.4508946185050234 -0.3474835638065241 -0.45456538248839135
P 0.2500513303898144 5.724293047468252 12.599516233121962 -0.27737215170141905 -0.016891633549016072 -1.3901301732869864
P 3.990587639935369 6.268783175354151 12.591097795457982 -0.7856087984610212 0.33233179576675026 1.1716607094590465
P 2.455205551374767 8.4413632780615 1.5583692965481726 -0.22998594910797165 -0.3334813359901611 -1.199380029751186
P 6.224390273491481 7.88258879877029 5.820251823849182 1.8035820735645198 -1.1680927896021303 -0.7248759993573387
P 4.563827629178564 1.0917157498265861 12.600285251152597 0.48666714811894246 -1.08194772107293 0.3998350808250469
P 4.10920119837072 6.182053521133572 8.224934068141803 -0.3987377339958101 -0.8113943920655574 0.30193544286307994
P 4.936968945692065 1.1212717667165863 3.714585347734384 -0.7363300068305513 -0.06684122599426552 0.053400269998011264
P 0.42965915990511744 5.615326181643336 3.6001366242870874 -1.1160328356820972 -0.8012992126130845 0.8429605969076127
Ni 1.644992067226214 1.0960907287287835 2.5246336585951656 -0.5539495754156847 0.5544403990091742 0.7861687847295492
Ni 1.9296374336890558 6.417523400101527 5.024661457588222 0.6027894797365232 -0.2394594358160457 -0.8690585795462451
Ni 6.099572034832516 5.854120319942776 9.251465349703848 -0.8405702422985653 -0.5767305778659422 -0.3494895384929594
Ni 8.713753268841788 2.4869264128975317 10.212147311135057 -0.9721518458940097 -0.055998112632174524 -0.1920845460765079
Ni 2.3605683265918307 5.231614263931358 7.150770769902541 0.6598641132623282 -0.21308788780105237 -0.5970119538227976
Ni 0.661226883777698 8.98612514376741 9.038409311923235 -0.015527406211637772 0.49793243662011666 -0.1948302271424451
Ni 1.3058813837055816 1.0596325712104722 11.335535915469537 0.46766206777134944 0.9430418159019307 0.24481221548752677
Ni 4.017326641424575 6.714197694063579 1.835219410747596 0.03909568044988105 1.1361167509161658 -0.9014881608298604
Ni 5.678949063235541 8.0844899990394 7.927748001285394 0.4197045660554643 -0.8672163841311838 0.6930182314167936
Ni 5.680950865176296 2.8914987372591168 4.8693134748508795 -0.5958238470519674 0.37916726806305023 -0.19784356004747217
Ni 0.884841747451253 7.321921212666329 6.9725270642437 0.20945594747541993 0.4433959961351332 0.3675587372898444
Ni 5.11247534571065 4.522505364682033 6.94349459555359 0.6162908566570676 0.5014049685497494 0.5863277346360741
Ni 8.077044382771064 7.4158428611899 9.085790424013306 -0.3659430560632923 -0.6845862985993565 0.21687563697825876
Ni 4.399371900507145 0.542132349400925 10.394672699044557 0.3711767936584059 -0.7606318168007095 -0.03166647786534547
Ni 8.17800404083295 7.021062156276089 4.8932164392918915 -0.26484059489331163 -0.39660731791636855 -0.07854231648127763
Ni 7.213099273678753 6.1328599177840175 7.040961516835587 0.15902427318742934 -0.3254206704692138 -0.11433361514827406
Ni 2.397923218916183 5.1136166445547016 2.714144520064449 -0.18078531901360476 0.32455498003480876 -0.28503635311489617
Ni 2.5439370075361034 5.0596585714276 11.440041752082585 -0.8655734492111222 0.29385369429621 0.0853570254102659
Ni 1.0885364173324428 3.3010166899449254 3.6237606045662196 -0.07198908874379215 0.23940441420839415 0.12208009186291233
Ni 3.699176001754222 2.887857450470953 2.5050259632958145 -0.5923292036351476 -1.1813038889757654 0.2739960361403346
Ni 1.007332098785446 3.510128000371693 8.176240462381072 -0.6354036662271186 -0.3252682040517495 0.07678316769832583
Ni 3.6876090285490335 2.672867545204587 7.038243232842731 -0.047264846524234724 -0.38797843859677694 -0.04515808459387707
Ni 4.2355049371124185 6.866388989125111 6.123417934331325 -0.33596090787890526 0.4039411325736204 -0.5033726337990816
Ni 0.7679999196023818 7.574872891388408 11.616588002159084 0.24405965359221837 -1.232901301437083 -0.7184988921864013
P 0.10197595750873399 5.669257080988436 8.113839495186191 0.3039810125381991 -0.6824725946904633 0.6967740989148
P 8.396281973721466 1.5367770093699986 8.00584635654965 0.7820861300197435 0.8921833384891666 -0.37244331907565537
P 1.7118486288765635 3.1685626185436164 10.502493737061753 0.6523127832776314 0.3475313863253241 -0.9279561252134019
P 4.077516568557291 6.017788008936161 3.963648458252087 -1.7795515149778773 0.42619942975118863 0.7637395091917556
P 6.759134071566272 3.9859409232131595 10.466977603986154 1.212826899284711 0.16915621941510867 -0.21157890735569365
P 6.248031463832548 7.811511242982418 10.340477308221312 0.2120548185508477 0.8497524230184655 -0.9597650421938825
P 2.5427323032007156 8.59199660962163 5.901704329605123 -0.8368485704726039 0.11936474981427828 -0.0650836198732105
P 6.89170589602292 3.9165300260546947 1.5453910982643873 0.611918695731301 -0.3054367711481192 0.9013246386688025
Ni 5.302474429463222 2.6762914417367414 0.6146555503912635 0.20809814789594486 0.1620599746899596 -0.2663904558789348
Ni 1.3063795697089373 1.1351122796825441 6.945456542614078 0.02766198469164268 0.1472643044380238 -0.4910933022110962
Ni 6.925636891815118 0.8052406820423286 9.348772851464771 -1.3991701720020677 -0.32467145100801503 -0.7391283955112948
Ni 2.593275537722996 1.7440676764026837 8.97319676408396 0.454130866054134 -0.8518062202237007 1.1895800129416285
Ni 6.601009834101139 1.9925719128038952 2.6707144758773564 -0.17412153384018397 0.06656560373537569 -0.23805561348998358
Ni 3.9940658840315257 6.932910407464112 10.386957156541675 0.7831274268000642 0.7686341182798956 0.17479670553033766
Ni 7.969191642008198 7.220481484455753 0.27427403966570724 -0.08774172359235856 0.16760430154695652 0.33544051659906104
Ni 7.500960204345073 3.874718633482142 8.353993228378425 0.47423586433412523 -0.08696756443049539 -0.2694269287124134
Ni 2.840276158186806 8.53600956077177 12.390224669941254 1.4914087550235153 -0.5192491958200218 0.793602101079143
Ni 0.033395672286773315 5.0310445789803095 10.411933485371735 0.12010059953903832 -0.5114561821381644 -0.22760433624967252
Ni 8.73554664200677 2.3254416843915795 5.315948096372163 0.20977733537058063 0.18378965305756734 1.763795794805517
Ni 3.6344299371726345 2.7077224495848258 11.583458632935923 -0.27819181938923704 0.6623519126811883 -0.7542457107687074
Ni 0.803631994147856 3.5020030395533266 12.536558203396055 1.4542627421008374 0.17638564728401235 0.2513551588123671
Ni 3.198743632419645 8.352532184699493 8.044609756574399 -0.4202552963526118 -0.1020933643283403 0.26951974553653585
Ni 5.422528198344638 7.643631617778843 3.641803995815034 0.5769468076418064 1.9789755321385918 0.576024295827537
Ni 2.8990439907281242 8.294171958888192 3.788879373518469 1.0508571703157128 -0.03769597188887702 -0.6557832583247352
Ni 3.2425658848602885 4.2128148291413945 9.245711754261453 0.6165333116851769 0.18124657492073945 -0.21559342783172547
Ni 7.23245606439096 6.208575132366767 11.387769359232294 0.47777884449037716 -0.330849811904585 0.8265543876354474
Ni 0.5033164133976405 -0.029983551060152713 0.3321858980739866 0.5542275116674197 0.1460725981227678 0.24575658167866707
Ni 4.759768713262071 0.2838899353232077 1.5673447967431775 -1.0498415845670048 0.37338100039857636 0.0056407432255451235
Ni 6.054671889039157 5.548822879159003 0.47715530767232694 -0.8567982741216534 1.2935351130690562 -0.34607331372255884
Ni 8.04915502451047 8.957819120849466 11.176528530089364 -0.3873210075184362 0.1279028691922765 0.9415426056485849
Ni 0.18899727698945995 4.819949582467452 5.9177323320221795 0.061537811503481116 -0.20786649150111297 -0.15285568248287223
Ni 7.769464344299187 8.65965932680468 2.683388327802728 0.03114145859981089 0.062025806883493184 -0.44618821416828963
P 8.6851936239585 1.5014510927684048 3.359054453543144 0.03910442220062943 -0.9951773602549056 1.1685005665635102
P 1.6314866975716047 3.377501828351043 1.4596695913560531 1.5293726358617985 -0.7780973205753244 -0.07431825109760104
P 4.770511415079889 0.9356567197935456 8.168233254618045 -0.7796122145579542 1.9940023445647268 0.7375343115512976
P 8.585456786086667 1.7702722601791994 12.421538830526732 -1.7413829743279556 -1.8147941402302552 -0.2101789416843735
P 6.044708168972041 7.631629864061635 1.500475553994561 1.833968656276177 -0.31591710185415267 -0.7331084145694601
P 1.8155800127025767 3.135591763048796 5.948422401414364 -0.583160392651686 0.5553174022974887 0.25461326073834856
P 7.244783903492182 3.936846957064278 6.077613807390059 -1.5853126415625278 0.5248344032172833 -0.17794964933702256
P 2.360160719861812 8.576951392320284 10.20521437355381 0.45643740270012356 -0.9936552671834242 -0.08904707266734341
