# total energy = -340894.644472073 ev
CRYSTAL
PRIMVEC
9.04465992567330 0.00000000000000 0.00000000000000
0.00000000000000 9.04465992567330 0.00000000000000
0.00000000000000 0.00000000000000 13.23777404946255
PRIMCOORD
 96 1
Ni 6.262115437749692 1.8678940978091134 11.497430444593569 1.1497497683185682 0.8782654428564939 -0.3336574565567092
Ni 4.838106109081325 0.26289569969135435 6.0929902485635985 -0.7449084925281817 -0.07134914116694809 0.010579575288059199
Ni 2.701829820944495 1.611975448689619 4.845766935934275 0.5211281580102896 -1.10075842602153 0.0006867416543794624
Ni 3.5510148405073534 4.343028565456877 4.904886450269128 -0.18413752331528932 0.7323422258273968 -0.08273655706828331
Ni 5.281990878222072 4.3339115483756805 2.9087363630587366 -0.419987901623838 -0.08811864731580307 -0.8771560118423989
Ni 7.214771365456287 6.021111432644973 2.6899948835925653 1.1857968917501127 -0.12346617357716157 -0.5360127884316059
Ni 4.880389893659294 4.640480292390711 11.657329176314851 0.868990445312471 -0.016946912266983714 -0.592931870216153
Ni 5.513805508967174 7.799870408097746 12.50931261362069 -0.1957313988004758 0.3909753164415718 -0.18338753252314224
Ni 1.8599167078630665 6.251053818810899 0.40178368669079356 0.16122539460380622 0.11776218121384882 -0.928494257105059
Ni 2.8420944051659163 1.842804211516218 0.28902843525950966 -0.03807572382579894 -0.659220051920426 0.758993509866338
Ni 0.7796397258733481 -0.17639800013350412 4.618752306146506 -0.6533188559446426 0.5165420813015039 -0.36592428701021495
Ni 8.653686293479625 2.1690722245816896 1.5176975327694222 0.14204059414523923 1.1111323130566864 0.19468213160035505
Ni 6.975368265136658 0.6707311682561841 4.888935288240956 -1.4405142821664934 0.13146101885718003 -1.8512744945444763
Ni 0.6208010282809497 7.3145430077406886 2.0932363699993495 -1.256463147917423 -0.9231828721944746 2.364971135977385
Ni 7.713665755517506 3.8966203362311562 3.9020326606571363 0.37736672451920167 -0.30003565473720584 -0.11708752374432738
Ni 7.64182402270407 3.7630759342431963 12.748558336859748 0.144627381035809 0.35711414491775273 -0.22264930623724236
Ni 7.926694627852246 9.08237603415171 6.792606442365922 1.8101003342990116 0.03930445402657747 1.6611450153118101
Ni 6.912281763012309 0.6666520266851329 0.3881859451433029 -0.4220255008791571 -0.6300796829110439 0.6739154491490716
Ni 1.753180677530529 6.814753196358995 8.999726837339942 0.8779240003566751 -0.6605644817634623 0.10303721629884835
Ni 0.17013819108400413 4.839887907062471 1.4151310906059635 -0.8024495241674438 -0.3805345807242221 0.004329480613289318
Ni 6.345814719564564 1.9473423895166813 7.07745624479655 0.304798623343488 0.6005932434161527 0.8445978754007195
Ni 3.4980131340630973 4.4174751602935105 0.5372853530600741 0.4449160323240854 -0.6682307400594685 -0.18026055685838632
Ni 6.047169097536765 5.6139389376436855 4.806556526757289 -0.10410448122109814 0.14429545161768698 0.8096828086910896
Ni 5.316948488359794 2.853608257094848 9.421747045873463 0.04463717909340054 -0.15776057598365734 -0.7137091841072418
P 0.22497596346822377 5.736114202259558 12.227837373762474 0.7059189986388617 -2.034721933771276 1.3189458398326768
P 3.8516141090525524 6.313697132604912 12.560714319745834 0.09717947196649071 -0.5965321859729017 -0.1548282328282108
P 2.1701666284178254 8.382762553747328 1.3405895268414003 2.1948607801791233 0.7997814904169774 -0.018209066808858962
P 6.468478395809787 7.760263842821399 6.075158701762429 -0.6595591804273996 -1.2894429452775533 -1.6236578169996294
P 4.783865284244089 1.0069871991418593 12.793143082891543 -0.5964619948565986 -0.5679093800298864 -0.3558041678570775
P 3.972685925172487 6.0901583655793505 8.12236679802546 0.7484728128406722 0.4898586584730466 0.02641962764410934
P 4.775544197225536 1.090415141162648 4.021688987517937 0.4400101103820358 -0.16706411277277033 -1.344992914628716
P 0.4161330394678947 5.526079112319538 3.6453786806956767 -0.8508659677976185 0.5541935731056907 -0.19797340075711709
Ni 1.6556249768978069 1.1397266264073727 2.5168846172973693 -0.664484642753475 -0.28662683753046764 -0.3488413633859992
Ni 1.9682084196816814 6.649489172442705 4.785362175441448 0.47548259225703265 -0.5105897203728109 -0.7183438546657758
Ni 5.972740592019736 5.59129110949754 9.09981775611538 -0.45952169805240217 -0.15465005537913365 0.9287354265815875
Ni 8.579827601530171 2.3229852004454967 10.294037553368486 -0.2192631633738288 0.6628100832645294 -0.05095412245036386
Ni 2.3668698898085574 5.3336630196753205 6.948057010396202 0.32177690306903933 -0.19620113934804273 0.2097331123962065
Ni 0.403399062931569 8.948741185565725 8.71189772397028 0.9789734968015334 1.6312921936164355 0.8018926232227093
Ni 1.5633061342908912 1.3917379824920686 11.424225681547854 -0.6235074290101649 -1.212340446566596 0.05834527270811241
Ni 4.001447943345309 6.990997437275852 1.4951274886975798 0.14310888750875356 0.35427513280706086 0.4191736332526587
Ni 5.8256563343070225 7.846875505092763 8.171254088725435 -1.5014805374372207 0.17133882888872426 -0.8754657686241697
Ni 5.361484393228653 2.9024313307102227 5.067617969440641 -0.24834388278986907 -0.7544652829786813 -0.9824388296423147
Ni 0.5779193916900173 7.292455948502314 6.763761213322915 0.43339851860278905 0.9826522312047012 -0.06517155160132647
Ni 5.0939614455822 4.265380161050061 7.1143503165980455 0.04479633037908414 1.0716419682715481 0.3480633475693941
Ni 8.197455563708091 7.099877051981647 8.965044184860224 -0.7859664389107561 -0.276612133606943 0.7481051450886084
Ni 4.608344616111454 0.2566024254005841 10.562154735163983 -0.33837414530608817 0.19227429348981082 -0.2285978105111934
Ni 8.148713892030942 7.155058521438373 4.741148260461567 -0.20621790015409644 0.02354847674390138 -0.05811798718865474
Ni 7.341912148303884 5.941147595328646 7.0338646024111 -0.7261985748235041 0.3333982893580516 -0.6378901800943982
Ni 2.364699171455891 5.186877235736099 2.5872701598825576 -0.13042589272444635 0.27928350979151895 0.911350912556553
Ni 2.253440811221967 5.460279212254355 11.206397712721763 0.38820006768927984 -0.22927683885608902 0.5424402892245045
Ni 1.0174609151934717 3.1617507719155604 3.8057676329782706 -0.10657582557972614 0.7418146840942063 0.11597732139928413
Ni 3.415118826970672 2.7353221961941676 2.9858728397207157 1.1376871807270794 0.5918689761692774 -1.2798013084227313
Ni 1.0610471307830402 3.394596493878178 7.970423749066698 0.24286511906348493 0.021468197176104962 0.790031353008749
Ni 3.564310490417432 2.489949620404708 6.981125191101124 0.6619703609720535 0.07844924254683909 0.5268637749424862
Ni 4.2343479332667435 6.856132514956687 5.9372737675351175 0.134054233505653 0.1314291371779801 0.2706723710837403
Ni 0.5826289460493217 7.430043313422114 11.037550194591615 -0.5522634459625134 0.4795166531170903 0.273357117004755
P 0.3655200276775509 5.519955877633059 7.987977624811922 -0.7372576608511432 -0.2148159262357526 0.5325232872211086
P 8.410556793321254 1.9532575970276957 8.030629527043864 0.3283139328566088 -2.3193358546367735 0.2176611089940316
P 1.8104876420409057 3.2521250126648793 10.308995611750316 -0.5230495434027186 1.0662102557330153 0.3487544600991478
P 4.066967458956604 6.10519059017156 3.6628122624655237 -0.23467744104637003 0.20085200785649282 0.29577790790211644
P 6.8206593592102065 4.015530478658228 10.510924877575091 0.03482045011329487 -1.083532806171863 -0.08479883891395074
P 6.432344979897705 7.623571899222073 10.230985420951388 -0.7609231227888831 0.017293239862808923 0.8933434202355388
P 2.614711657724174 8.556338620022368 5.696889321626888 -0.38828028610791193 0.13261158752185548 0.9267335656602104
P 7.151612506053515 3.917233115921679 1.778720083415622 -1.0687201666390627 0.48650002641345885 -1.2278403419744082
Ni 5.57434141702714 2.8350667044991607 0.4787058049154468 -0.9906915565694099 0.9850112183551809 0.23492992337680835
Ni 1.4642490201309089 1.1909194008910744 6.857709903626291 -0.7836105370840698 -0.5930552831678947 0.3012762120125263
Ni 6.9045124002417255 0.6191693716525293 9.276237463432413 0.1263085281219631 0.6466818102440992 0.08665903205114107
Ni 2.7845070562016536 1.676680944918665 9.183772097336693 -0.09226557960464112 -1.0200013612771208 -0.1132385823118824
Ni 6.347343267071233 1.9620128277167812 2.5953714616679022 0.49669316489637677 -0.2432564409646327 1.2083922605521253
Ni 4.016652016473772 6.935544628025044 10.183567887469366 0.332977142660233 0.22789101425215588 0.44981475517728337
Ni 8.182052508063968 7.026859513393852 0.1854851698373513 -1.1516104756763907 0.7933269930408854 0.8818233354110812
Ni 7.6925012515790145 3.969637874818952 8.354451864098666 -0.3465525673518225 -0.40662819248748033 0.19096894441482595
Ni 2.635261124796077 8.250276376956293 12.378708630534609 1.0383690651510311 0.3958956365613246 -0.1867155684551107
Ni 0.09929317978083482 4.9657353035582705 10.223307409244812 0.17227933842512266 -1.3025360310160858 -1.2062687864512194
Ni 8.457724694192722 2.4405295992423497 5.780102000744371 1.1217795083578874 0.05867925900876346 0.2886916904792964
Ni 3.71212736557417 2.6517495396165343 11.435874298907846 0.17999933277719968 -0.21052655483177934 -0.08322095290386958
Ni 1.2019086625514448 3.522252822334532 12.546179551442775 -0.4806160568288561 0.6421142454780748 0.336712184222633
Ni 3.195939585970047 8.390938926209037 7.849735426522401 -0.017846798373433784 0.16014064618005966 0.48731532322590265
Ni 5.5991147402269394 7.678482028884715 3.6579281461720257 -0.022513350611167677 1.2872477373984474 0.061804434901306465
Ni 3.1906032366864094 8.532388360864621 3.424215041334322 -0.26548337068363315 -0.8557109545947457 1.0022756618625837
Ni 3.4647740092879022 4.336670169615527 9.37078219681679 0.044834125595555045 0.05704223762597273 -0.5903121732051188
Ni 7.225588778580405 5.880674999887298 11.39669102371027 -0.7963123009214543 1.3694975846382995 0.40228019993142977
Ni 0.45279375904647917 0.0930749761664276 0.3249067917651542 -0.24394832482533468 0.021970590733820225 -0.5495743291661245
Ni 4.530144487456669 0.5307532997505107 1.7973059548443426 0.3182038410058004 -0.07363896564238931 -0.9218029611278125
Ni 5.839214279351381 5.6420226063313 0.585342343990154 0.49298409147590583 -1.0086717951969144 -0.5281416132136453
Ni 7.769000984190877 8.731307563907032 11.547482687476139 -0.009849124879937877 0.6947791799719583 -0.04816524685131705
Ni 0.24203509632223608 4.998883981735438 5.873957531051778 -0.5251244236538762 -1.4326364220803134 -1.402707495731365
Ni 7.7820795622656895 8.695970078057595 2.5947754185868996 0.18445762565886942 0.33909302574998373 0.22307199559695776
P 8.59899323565225 1.4349714563493288 3.670450477668967 0.08897405333756289 0.32732740057362336 -0.1894198547601512
P 1.7537595357579063 3.302069624095798 1.6049477480228633 0.6008768360948427 -0.7415444611519552 -0.730387158983555
P 4.7353225950826 0.9847916039858515 8.327182214793302 0.5805792621880711 0.10581477904398551 -0.06236287850793776
P 8.533555121979179 1.7687827156903144 12.516420811759689 0.0850538923475503 -0.6665489814816714 -0.8086178577616849
P 6.261798874656596 7.585484836792591 1.4749524705415118 -0.0923851359016409 0.8407137098549651 -0.4808983639559653
P 1.8814791768328802 3.364260704899673 5.901717400918453 -0.6727371125702544 -0.3794099802014756 -0.062097026441060785
P 6.947971990594056 4.0229380550367 5.975994860616774 0.34152657489214083 0.28448485148680036 0.9396003943205495
P 2.1333458183607314 8.637469218453251 10.20278959848222 1.3845948452910541 0.8566689476326408 -0.8241972002571807
