# total energy = -340854.84628586244 ev
CRYSTAL
PRIMVEC
9.47487085576879 0.00000000000000 0.00000000000000
0.00000000000000 9.47487085576879 0.00000000000000
0.00000000000000 0.00000000000000 13.86743123203519
PRIMCOORD
 96 1
Ni 0.8183919669737301 2.314502493874487 4.477960387104015 0.2171988246456324 -0.20662773399800544 -0.805944681804896
Ni 6.911548742351655 7.743034980796964 6.003557659479955 0.8205279789357094 -1.5827903893613062 2.8009371581970344
Ni 1.3631401898297375 8.35577487664867 12.825668358737559 -0.3354235473181965 -1.5184238501597784 1.045847118695631
Ni 6.0142216265865125 0.4295394786219076 0.5902370776570596 -0.7060460111350293 1.4914393511511346 -0.885491528291288
Ni 3.45693504285113 1.8043091248946383 10.493707467892353 0.6200868333643901 -0.8151080934717188 -1.5811772792379155
Ni 6.959472638953138 1.6536302542632841 7.247951188311853 -1.4226206897155242 0.4359153714873718 0.34500964834473485
Ni 5.305416015503008 1.2795244548538398 4.584961050747789 -0.588768997087715 -0.3280758487038737 -0.9076027583680304
Ni 1.6983990188821076 1.1218247049457557 13.532921038493866 0.39950983627514425 0.6224789877456505 0.5717421235124154
Ni 3.369320912389699 6.669172071935967 13.599027212196622 -0.748312376003408 0.8381737170419307 0.8167924231526772
Ni 1.1647932441090074 4.224210081757441 9.50885623293856 0.47152463605054923 0.10397978271777575 0.35350174497614606
Ni 5.299219449987514 5.551089940963637 0.2840480997638455 0.24682024705649105 0.10058052722823968 -0.6402249988751619
Ni 1.5108155264115328 4.007605059968887 5.986542686463557 0.8033702362095003 0.5372564310307198 0.05065998824871275
Ni 7.023371167755116 5.888651163624975 4.833784423268588 -0.30835265924333344 -1.605597874174125 -2.6910772625493977
Ni 8.994400119577334 1.297725681696752 6.290447273002359 0.9018576283541372 -0.116782848019715 -0.22498952433464478
Ni 7.707921109542497 9.116976523360133 12.744238476459559 0.3979805441148113 0.6207915727408986 3.5736451894359873
Ni 4.462607306429233 2.5323202991278486 0.34229013068700054 0.4402191410690483 1.8256606506311137 2.048868400474988
Ni 1.934275927916099 8.500285606376988 1.7508462188124854 1.6526457195915474 -0.3953294796452095 -0.6347917436747326
Ni 7.211551577087275 4.215957469274269 0.761545584522184 -1.0550511537924023 -1.3519297509578652 -0.6719974061907523
Ni 3.2422249952263344 9.182987948354702 5.361426714348336 0.517601890024586 -0.723173157733619 0.4822476788950082
Ni 9.398209639003714 7.249356311654281 5.166658427335866 -0.7278263402349143 -1.400594048932788 -0.433506247825247
Ni 0.07190384715678079 3.031721790245086 7.787145241893882 1.2641324915372227 -0.04262580509032659 0.9099928558667619
Ni 9.015870176852731 1.9801722021623596 11.608496133768071 -1.5462097620237953 0.02679757980881836 0.9153453784279267
Ni 4.418729179667378 4.776415027947843 10.407174420191348 -1.535940518887303 -1.8940342541095057 -0.9680352526224748
Ni 6.963347861118026 5.438177905416014 12.549290166901532 0.6209445533789951 0.3368235129895167 1.027421822110908
P 8.762455281933144 1.0851664297478238 2.5480296349454172 0.2874151377597179 -1.014911348348723 0.008857193280313777
P 1.5693986526841646 0.5047358433882209 11.335224752073525 2.048403545023427 -0.20408311319928077 0.8371403906814098
P 8.307917304142919 3.5364007844083942 6.275137776733343 -0.41542779305698135 0.4352016332497989 -0.4987880997521926
P 4.666335978775042 8.855327965699008 9.879061228031905 1.0225081868593744 0.017065697233035124 1.751744777178254
P 3.053589792094873 7.560463694989534 3.460131864265393 -0.2535156567987956 2.899228118060149 -0.46822513936367105
P 3.7172381688559843 4.06538282222192 12.399924513365663 2.3132184288851256 0.05078648652424801 -1.951916985358903
P 7.088103485189147 1.770408037104977 12.514954182541288 -1.2010481614822284 -1.5900828092576613 0.6571621409501327
P 6.135831593545793 4.366228920460414 3.3027779471421943 0.8529485613582601 -0.0883536461447446 -0.1653216761603669
Ni 2.55044572700421 7.184747167540894 6.4633873526224805 -0.5153341770363319 -0.26725100410701713 -0.08892057439180816
Ni -0.17452143555977914 9.421347273543219 0.5644322669820615 -0.215416535934229 0.42542167104489953 1.3612649123158618
Ni 7.610178342175771 3.2373833362379285 9.253958520735832 -1.5818755908565207 -0.9907841162832162 -1.4373477115130535
Ni 0.4701516174125241 5.837316313528724 7.256577110705288 0.16957556634071438 -0.25003541155967907 0.8156454540324274
Ni 6.96222035149059 3.0249188329971886 4.743535331232448 -0.13368399465042785 -0.3975501414456121 0.23287535484062474
Ni 8.473471721959788 4.452895563839965 10.80856690007185 2.484852934637398 -0.6581736129337826 3.0899165551200785
Ni 3.913301670709384 1.0127878915630213 2.3061674500151903 0.9275820297034346 0.23900795010092388 0.23231279746893538
Ni 4.704244936921055 1.4288199943456494 12.44355060856374 0.9937604253027208 -1.8793226589309437 -1.6731068156593767
Ni 8.20033014599546 6.647626215694019 13.914441871806101 1.7265641641475684 1.918149916210787 0.8644730170580918
Ni 4.83851333129425 7.3800147802455145 7.022120484807034 -0.254294186836033 -0.8423296481918331 -0.6138560219633299
Ni 9.244034541040222 8.920069758003859 11.064574119647462 -1.0655307131674874 -0.10404868828249823 0.011902922085173049
Ni 4.196316062066899 3.703840701518203 4.420951036874386 -0.04299424417333885 -0.5961676035446313 0.2819931954131982
Ni 6.111234828900192 9.293739713355638 2.9293837105312424 1.13254214619103 0.31819047126936173 -2.2117750394359588
Ni 5.075953594013343 7.96121283114144 4.342308661591275 -0.44738917645492626 -1.166280676094056 1.3110019023952517
Ni 7.505348371436582 5.6660769732205765 6.993817150697119 0.4164186962153409 -1.0743591100923948 1.5099857466947544
Ni 7.237361125197682 0.03791085312017701 4.975703775827963 2.0947679912205794 3.7015496012901608 -0.8809015949277603
Ni 9.347575929348054 8.080653052683216 2.5558094513747323 -0.6873080684058936 0.0745265104536652 0.19635540553771988
Ni 6.480328421646492 5.326402854366647 10.478286168147678 0.6720166894644619 1.7357077783200494 -2.656769233296147
Ni 2.776800390865309 5.991519836104672 11.398127471952447 -0.46326908090997637 -1.177443891799727 0.49413723124374254
Ni 1.1805878537639447 8.199250010722118 9.481648193895298 1.9748602244186377 1.4891119885695387 -2.8675192169926422
Ni 3.2192389586199295 8.20192192429302 11.492952926594068 0.5968031802461012 1.7357784836569845 -1.4186285378369956
Ni 8.37076412228401 3.168055706456779 2.6751388169279275 0.7321321666991197 0.22542198388637305 0.7260371095449754
Ni 9.096851897741004 5.035533795100348 1.5310064761263926 1.760784518783019 0.8456710538602404 -0.29373542355079096
Ni 1.6568896098249508 1.4047822470783575 2.1752313677089665 -1.5812523554502251 0.4376747773806398 0.2780316396622889
P 4.049995632012192 8.843039058247026 13.405479288545614 0.07906039376827674 0.1580210287338956 0.47030901847589324
P 3.0674041537486816 1.6192554229326828 4.6464491724134644 -1.5830667829511447 1.7649918719961475 -1.1662775907702623
P 5.345125199104593 2.8707721596461537 8.664869797422009 1.3902785259393928 -0.44865930141660154 0.4373431050728339
P 3.546320974155676 5.276934553821699 6.248734154222598 0.3808068605490022 -1.439866107059533 -0.06477997258986262
P 8.26105459307314 5.480540052846862 9.093415362095026 0.6356826309201181 0.8845654169325928 -2.175732029769472
P 7.633012780849075 7.7849044349452345 3.7524989006081433 -0.5164145545847042 -1.072743685976159 0.4988112396806441
P 3.0489281556520242 3.182353286522346 1.9298473732953925 0.8795347964872209 -1.277814874120322 1.1449873139329183
P 6.485776472367301 7.920565635328794 0.6093156775377924 0.1408666284417961 -2.072205275428715 0.05818355031926753
Ni 5.547366316731848 4.2776578280462845 6.4783784932319834 -0.16840777128485834 0.06215024827649942 0.4446900323562083
Ni 6.253092594799245 2.2169776485365933 2.187711667551488 -0.12185203501250627 0.46815597668863246 0.6040426354173339
Ni 3.7312420279261684 9.328664087193731 8.118257867475945 0.10680233976823542 0.006849933042297881 -1.3745960822071295
Ni 1.6922972020748013 2.6651958874906807 11.632126461590154 1.0314450843376881 2.2897218884250825 0.7051677222951339
Ni 0.7955490009166886 9.359694289125297 4.899349581847592 0.5205038941627294 0.2779776464959019 -0.1369179282066932
Ni 1.918519217744437 1.1388794724195932 7.5798549656072876 -0.6535430561403066 0.42126471145373257 -0.7674364984273687
Ni 4.405777031258079 4.945617271029949 2.2708195494514984 -0.8636222390220222 -0.4578209133112115 0.25267619161663574
Ni 6.5365144056019675 1.1399501328221175 10.297150325269296 -0.8711332026870868 2.5501777239871366 -0.3904094166357728
Ni 0.8574540168983912 1.5436933281527638 9.70775651111511 -0.9025248296244909 0.03341559934596826 -2.1587228968059855
Ni 6.206931024170058 3.5217905336058064 11.811001600291172 -1.58800818611682 -1.6470684826140862 -0.036652104005394946
Ni 4.642478254053307 7.297896074858986 2.0384710823104273 0.326185059439064 0.801592318373471 -1.2843884135727814
Ni 0.4882334608831193 4.729457568169877 12.622274149331655 -0.08395371730483606 0.20937804304963295 0.4496149804616515
Ni 3.5110555049681076 3.527702852996737 7.985366171832721 -1.9832841868162745 1.7036402083615432 0.7159385876583928
Ni 7.039857442979825 6.210417776631376 2.2074449810058 -0.9030812163485931 0.5047556301895371 0.5002281746328289
Ni 4.266401681513552 2.137616130558336 6.408903055466061 0.11818975566957064 -1.1528633742468855 0.8039083681011574
Ni 1.9698635427115068 5.071832025207166 1.9134833239042457 0.3411367956528899 1.201719219407324 0.15027120958514764
Ni 6.771112207075421 8.557087456935685 10.971619951992556 -1.3254131927245754 -3.022501458900214 -2.888066702126691
Ni 0.6760860396849481 6.479513582756075 10.65006273363125 -1.7211746177008809 -1.592293443755735 0.611738718510011
Ni 5.274025768480328 7.123899547142569 12.197737402502074 -0.012995898039035683 -0.017661678945821196 0.04088285425729088
Ni 5.21225908561258 6.763210164812544 9.228775261586547 -1.1384034900678135 0.860232753724499 0.26224892290673546
Ni 8.420592467920072 7.595662840081371 8.212182261902695 0.7940111635921034 -0.2665892021533022 0.04326189601242872
Ni 2.7721008549391852 5.731538855707656 4.165789923262893 -0.9492327752039911 -1.9360939022837174 1.398060998098289
Ni 2.3988951682575266 3.6479673882997474 13.823998544918178 -2.417369447073443 0.08309368329738594 0.7327767422616541
Ni 6.455314762684864 8.809611713998306 8.463098633387366 -1.5063944297990701 0.3291510840459234 -0.9255799116717415
P 0.2285869434260078 2.8445836167029945 13.859526468027425 -0.1610641864355936 0.040398458421704614 -0.7363127804393705
P 8.260628223886295 9.646934472867995 9.263167147684621 0.5790260587683382 0.6998416820965301 -0.43692170126469915
P 8.292312191904358 6.985500109092377 11.73482837634344 -0.009568617525041585 0.2879496701069492 -0.01326972052571263
P 5.509125738107178 -0.07704206960181527 6.41888767433491 -1.0429862522080682 0.8714946997915637 0.4567315369017747
P 0.730623396117953 8.137966546266128 7.0417571545789945 -0.07887527434066416 1.1564315512141181 0.0533727591941855
P 1.2689883985033357 6.283866975218703 0.11968751567014595 -0.9818428479295284 -0.14678376525717948 0.4098443854319328
P 0.42680503090360233 5.089152089063929 3.5386074818220923 0.4681564909092647 -0.24459084350534005 0.928036343632034
P 2.685765832038292 5.8296037686822215 9.148857568691225 0.0438427082165632 -0.0775347011523697 0.4517384545625575
