# total energy = -340888.0902855011 ev
CRYSTAL
PRIMVEC
9.10516219194751 0.00000000000000 0.00000000000000

0.00000000000000 9.10516219194751 0.00000000000000

0.00000000000000 0.00000000000000 13.32632523181631

PRIMCOORD
 96 1
Ni 6.433734940517986 2.3063831162730817 11.567530423391037 0.4029026640067771 -0.07809494453121389 -0.032619071586601885
Ni 4.609033116035743 0.42692284619653087 6.589254753309643 0.8595514113867583 2.537867024940584 -2.245253887919694
Ni 3.1433023120981654 2.108901252871858 5.2252650320243434 -0.9251389674795809 -1.7749122164336528 -0.47361751402383595
Ni 3.545240593161543 4.684897327657256 5.263885488098972 0.5076735751672805 0.4360066456495975 -0.555623620683998
Ni 3.4898174707251353 2.8359848768306066 2.9830314256598323 1.4191787539135108 -0.7472219711527067 1.250610545791388
Ni 5.210010243240056 4.506172098430339 2.9963841460562493 -0.02635894960950299 0.7254367569568152 -0.259404768589721
Ni 5.754171158188219 3.469740588028852 0.41509888253694177 -0.7488800755814199 -0.14992359643774178 -0.20543988433749136
Ni 5.660861455752158 8.381547663384106 12.410113940633517 0.1520388430085317 -0.25798474831374274 0.5358060717374384
Ni 2.422674248153778 5.9362106664634124 11.548246600324163 0.07032532788812404 -0.9798332736986675 1.7250302440015453
Ni 1.0329533384332417 7.862535206489066 11.469435047691862 -0.7380541886105095 0.624133749740254 1.0191847789130963
Ni 0.7722297497968357 0.6759162543442193 4.963776609761413 -0.6677424875691402 -0.12556625063929988 0.3380517289696629
Ni -0.17829182350521985 2.855123927818175 1.477116809294359 -0.2756240586620608 -1.8127336581568008 0.04015291806980182
Ni 1.360001660232704 1.0311778318002371 2.716505117140278 0.22419839589191715 0.7668430878177438 -0.13210045221339184
Ni 1.8901952563345636 6.59748217789212 0.6780231888820515 0.19494952632912876 0.8314664802250841 -0.8552327294067466
Ni 7.819986783432497 4.32792944280111 3.9146078879296167 -0.11637738505118023 0.011267345383703177 -0.26274154627243784
Ni 7.781153266561907 4.072019753430701 12.570962094356632 0.40764532089808503 0.9977952574937267 -0.1869654796823877
Ni 8.30934372697525 -0.35210208616549155 7.167031016659806 -0.5969044817106559 1.1165223737240062 0.33760641390212826
Ni 6.838231772165335 1.0528390127228942 0.452892589881946 1.1927882354662813 -0.38876956703950466 0.3313511770210358
Ni 1.9802362055334526 6.927507887737698 9.465688402788762 0.4308400138469935 0.6685567559403195 -0.6679510040355207
Ni 0.14333983728924513 5.06776939903083 1.387017587057259 -0.2261087255407525 1.4481985381846285 0.45706320920958055
Ni 6.263668720562799 2.0617000919205952 6.916722823087471 1.149525311012588 0.6753964045699723 1.5470358574695164
Ni 3.621132120269718 4.860408434620323 0.6896359127781241 0.5836100785945949 -0.33501191370207467 -0.25759059819911767
Ni 6.2348508821348 6.227421069762841 4.8232102048845436 2.9479610644894776 -1.740965427174563 1.5855787507397208
Ni 4.909375997042371 3.2309212881463916 9.860894326906275 0.4416934116217296 0.5414882097238803 -0.2998574772881287
P 0.3238669781196068 5.937248654956552 12.447773802093879 -0.4176651670279323 -0.17038623516746784 0.6086297405673841
P 4.054883838131651 6.775142103139234 12.947457820627164 0.10567054015663738 -0.46440036630094217 -1.7895726466593054
P 2.5731097383614876 8.518307199936569 1.5879120652587393 -2.1020287865480505 1.9697226460817563 -0.15627679234927924
P 6.551000324756279 8.34346987497782 6.041743138664322 0.09118520205626877 -1.2872240832493638 -0.9535581420522221
P 4.8863581469488535 1.4911342065328754 13.014662112460725 -0.8576305402149617 0.3058725731339571 -0.6356348084013183
P 4.036646198203916 6.646103744149786 8.230258108960111 0.3894730208644325 0.4149567669578338 -0.20581089452366488
P 4.85237768154181 1.1408859313954853 3.9040404366564614 0.08492842251327955 0.9078526695953074 -0.2424704547282276
P 0.4765132017144627 5.827240085008028 3.7811180151305486 0.14396737885430688 -1.2709975940881726 0.680552237739299
Ni 0.8926892249420938 7.559779457493995 2.856484239053923 0.221306933276735 1.9218276221726902 -1.2089540465928663
Ni 2.227468675307689 6.980108409885739 4.91505488671932 -0.5160471439429564 -0.843142888121748 1.002890412628447
Ni 5.9098694321593985 5.973332412836541 9.417620430394104 1.2236674415436408 -0.17778432740375189 0.13628877926312657
Ni 8.666630292509115 2.537790814108025 10.405061615467993 -0.3586508932772533 1.2451448946911265 0.11727752826794642
Ni 2.4330177124363077 5.473404375955745 7.402986743023908 0.5664042562392697 -0.513063121613968 -0.4982664229207678
Ni 0.5218286835698525 0.5997788878560902 9.63591942618014 1.0314309432703008 -0.818473667509842 -0.7081540586169676
Ni 1.6841636456082563 1.7178891664731248 11.5981137527736 0.03375858450768379 -0.9843321900102854 0.14340996368894013
Ni 4.158600740985786 7.162894541463015 1.7047039810615654 1.2567755369515194 -0.8112113295204738 1.3756556338198953
Ni 5.797857726522356 8.02238543443281 8.099500695343425 0.3116169318169021 0.5644538173811182 0.24822535493413378
Ni 6.915807754284308 1.0646666184473716 4.878501302468752 0.5889014089005212 -0.121151666511372 -0.49247758415313253
Ni 1.0711494939483936 7.533529274812188 7.318897838368583 1.312192066048611 1.6158956565557074 -1.3519999420741684
Ni 5.280274780095939 4.91784379790747 7.305664395597256 -1.0478410091972084 -0.27084180678206904 -0.35152559508638176
Ni 8.669507523770804 7.390022813054307 9.456240886468732 -0.8545477875245799 0.27150643694926146 -0.17479490575812476
Ni 4.5197661056256 0.956042033156367 10.82241493617074 0.15022004463223806 0.09359278305649688 -0.19092240744760666
Ni 8.657015241204228 7.384231929882046 5.181981822376577 -0.6459289912384747 1.129972585691641 -0.8974978087235446
Ni 7.346800607993419 6.157812104586837 7.123280712190127 0.8580987381006318 1.5069713853484628 0.25812770164951027
Ni 2.6706260257434367 5.334987699879144 2.831857506796037 -0.8025143159671082 0.4382941561321935 0.8553664267711334
Ni 3.5610289444519543 5.182130236520773 9.734200547188614 1.3147739678431745 -0.9572759572234417 -0.4478692014151383
Ni 1.115045481013602 3.6560231018988145 4.196219629216156 0.6684379709742682 -0.5572259321741113 -0.5441325893252629
Ni 0.6855294846166621 0.23697914659769 13.830592998851248 0.4970423207056795 0.6214384622962782 -0.6590719563783359
Ni 1.0406472005095955 3.5842197926276618 8.369639021715866 -0.6669719279517029 -0.3529499862377341 -0.44931390428146484
Ni 5.279509946469414 3.004539639857184 4.915974508103594 1.1057741340685665 0.7393058016294235 0.13401643828918208
Ni 4.506864090759099 7.349213475981861 6.016316062647251 -1.0993335206495454 -1.454653806891669 0.018885781160909408
Ni 8.457958184738851 7.478716198244556 0.5622100780179332 -0.5296490509971072 -0.39650627356213003 -0.10761712236004692
P 0.3850245317225086 5.795517699831676 8.159895236352245 -1.3769267872228352 -1.0968709180416658 0.7534908348805539
P 8.546396625386926 1.7080009603016217 7.900965364673286 1.2725163447255439 1.147146012147134 -0.1263607215161372
P 2.0274009458358333 3.818969084997542 10.34706537418806 -0.6274149915946872 -0.4052534236271408 1.65368290260681
P 4.483263510283468 6.348911249271464 3.9004420765469057 -3.370606458340821 0.512503392455756 -0.6995418914679242
P 6.894956932799278 4.169363042730461 10.194905366255782 -0.17756449808346192 -0.49697110114811177 1.5708681840024237
P 6.675039949686653 8.041296856364866 10.151874369601524 -0.6411493104616441 -0.7024171561331903 1.237051833270347
P 2.5018527388235663 9.00546069422195 6.020340544348729 0.5153084660047189 -1.7109385417951695 -1.0269112010230768
P 7.036096052379819 4.474222084198475 1.836567671888046 1.1568298150938012 -0.639767342512453 -0.24997113398064688
Ni 2.8924186722734935 1.8043335765949016 0.824014449409917 -0.3080184158323663 -0.6915532168354929 -1.7150690190237754
Ni 1.903279374445475 1.2270207660017636 7.492806436780837 -2.838212497608725 2.180744138272083 -0.9555661736211867
Ni 7.248046018549476 0.7849314510944846 9.28764879227705 -1.4566443549591366 0.1866626037299882 0.4281416410792239
Ni 2.8460096604354175 2.0335651406591366 9.472885123007874 -0.05007660494141698 -0.25866454798958677 -0.15791252818048934
Ni 6.376864097288513 2.257543026122122 2.542982577606175 0.6255028621736389 0.27232739018866003 0.8211296170754503
Ni 4.416677458964682 7.652743163765677 10.413177046555157 -0.7668757408278922 -0.6191838619341465 0.09747386327845793
Ni 7.408114770386514 6.748882815295206 11.738640094936699 0.5315292987389556 -1.4837836343780897 -0.285703811495566
Ni 7.5072973024548215 3.9414062013771005 8.065038566854914 1.149897349640026 -0.6318858828818472 1.1779923081040293
Ni 3.216890233164544 8.984200140436998 12.566591616490776 -0.3842318270701512 -0.9341684246717007 0.7715363795283551
Ni -0.14338536310034783 5.040581384640307 10.245692140089492 0.47720446004414585 0.0201276239878105 0.3549539040416403
Ni 8.498048213995874 2.8505713467079064 5.937197666048118 1.009884584558093 -0.8830813761878985 0.03025545645043176
Ni 3.6967960183223787 3.3540595020169315 12.213936846978498 -0.001722896228377678 -0.7019541004538427 -1.1224212557069444
Ni 1.165997968799726 3.7232465145730385 12.620536060582568 0.18612652872086008 1.2641489465974551 0.5088819936530848
Ni 3.365431849630382 8.82260172134691 8.20443222683778 -0.23571256717910374 -1.8446654738683905 2.853490249703402
Ni 5.7902731263926475 8.25353818772558 3.767205327257568 -0.3815784486077041 0.5450746415235581 -0.4126805693291474
Ni 3.243486412010732 8.686597913258751 3.762288539658478 0.26965909932787757 0.6582821134871888 -0.020337426005771427
Ni 3.889861878046642 2.9379080627272955 7.367498462753143 0.5078088151935641 -0.03945460645119657 0.6838638186110352
Ni 5.262028035005983 5.338811868011771 11.729085137702466 -0.07165870198756691 -0.45617617861893694 0.34523616253324413
Ni 8.02559955669666 9.241921757089294 2.6849211304296796 0.5932751124881848 0.3735365521398341 0.13849195756203247
Ni 4.606210515747376 0.46877745589189457 1.7242136121515095 0.7331462097859309 0.04775001369076937 0.32327354221922394
Ni 6.222331284081561 6.006548044617059 0.70880045821991 -0.5817815100262883 1.3394480735510867 -1.1800088243134257
Ni 8.03034334621356 9.06853215292361 11.74792827091787 0.14879873880467923 1.2919752247811038 -0.2831417071953446
Ni 0.30062878310035274 5.309438614688318 5.930081071256546 0.3579533529895964 -1.3379519486215343 0.7330863030822728
Ni 7.56001619171173 6.675741047177634 2.746502074075836 0.40771139824933006 -0.8261072727956998 0.40550076375125643
P 8.49728338036935 2.198068106497576 3.5757592758923384 0.22345483285767326 -1.545731536835796 0.7857021295057759
P 2.070614045734501 3.463858653234385 1.7209348432358942 -2.612186818700082 2.011293784655323 -1.1365039590522557
P 5.13257994371661 1.344277045077837 8.711592494070347 -0.619688569484707 0.3044250420541531 -0.8691213144633806
P 8.765047990950897 1.9784151730893451 12.653945632318383 -0.4811750146561196 -0.46134203909059257 -0.23825770219846065
P 6.4242837821330685 8.204051631056961 1.591216328628572 0.48942105671499575 -0.6135176647873046 -0.9969725044821152
P 2.056045786181642 3.5203106590017135 6.364625848747889 -1.416563941998483 0.33787740817532774 -0.08868403290096985
P 6.927954040686504 4.288613352332832 5.996846494271077 -1.1458694594275556 0.5454243115534929 -0.5721789539395178
P 2.5085359278934405 9.032776180883562 10.34244086229625 0.16912228085337971 0.05754334563210735 0.21676147999789766
