# total energy = -340874.5479959567 ev
CRYSTAL
PRIMVEC
9.13782108377804 0.00000000000000 0.00000000000000

0.00000000000000 9.13782108377804 0.00000000000000

0.00000000000000 0.00000000000000 13.37412482121747

PRIMCOORD
 96 1
Ni 2.9544676736817315 4.259695738413751 10.222512246838644 -0.08127977001709873 -2.8526258448205777 2.04306182109554
Ni 3.5933384233823653 5.832990917687971 4.564882509101754 -0.23938513093468453 0.32900530249667853 -0.7337532472423106
Ni 7.743718410116668 1.3215939020017602 1.0845186208956579 -0.42930480814938976 -0.3276552162266873 -0.8060562676820956
Ni 6.0349824491494966 8.804692521626949 7.654386159009633 1.37748034573346 -0.7987833881697662 0.1250859685687717
Ni 1.2799528520641819 0.04697022709877997 8.845699406792601 0.4723769567485155 0.1555838800473127 -0.48013217521390217
Ni 2.982886296746438 1.7636268512403857 10.126392422351394 0.5941372033781639 -1.1396126798845665 0.4676468982626979
Ni 1.3132967606053763 2.244925016977096 0.23127916129583104 -0.7554585001298861 -0.5810585158173348 3.061831366848088
Ni 0.35564581781446947 1.1402538458219835 10.78899957567675 -0.629558006079619 1.114456492333913 -1.6917977072006607
Ni 8.403935109489057 8.83428992359048 7.257655784551682 1.1037943846343765 -0.26788838058069997 -0.5148970894989132
Ni 6.925161549822981 9.39605574035864 4.3311571531453374 0.2764810073457174 -0.7518129329574987 0.24831997153046909
Ni 2.5770756696391626 4.94081977205368 12.63588659602208 -0.3213616699084917 -0.01870169017456134 1.2555876872910054
Ni 2.879263407500851 6.384686855801049 10.849946099874394 -0.07430282447863332 2.760499361896962 1.0191107311420513
Ni 2.0880103561194936 5.592328128088234 2.3528161823749416 0.5287005710409088 -0.5901836180470545 -1.1835271218793293
Ni 3.6935985945289773 0.11161208607692856 7.640209743632596 -1.5487638959042165 -1.4216200163651518 -1.0522892747765489
Ni 3.057195056477047 1.5445750081191152 5.584191812340062 -0.23122059284602114 -0.36895330364452583 -1.9729938606338602
Ni 2.746308113098445 7.6410458542468795 0.3251967709410882 -1.2821410122995016 0.31614181627044907 -0.4986978540312314
Ni 8.92666415528216 5.010541345681883 12.854981386901681 -0.30815905517528863 -0.0970462888227361 0.17603957679850327
Ni 0.9755354858977378 5.037205507129733 4.3849880561917 0.38049267174269313 -0.788189928924636 0.5116700979211833
Ni 6.791630572702544 5.656183220685074 1.065386765233093 0.05248907103765154 2.368701806664411 -0.6655513934550924
Ni 7.646044242290736 1.0943271578723963 8.99824436168572 -0.4617007079815919 -0.5473798926179669 0.7371013377789369
Ni 4.741798032391522 0.8945204793931127 3.568457050796227 -1.0739461909246923 0.228558986853458 1.3028810730603304
Ni 6.144380441217235 3.3556637012238375 9.325964084983132 -0.3602701740482312 -0.8427014297089551 -1.483174797149497
Ni 0.14554172893916736 6.267494302487587 8.194286084095626 -1.0582354650576549 0.6405582138448644 -0.9451462638394433
Ni 7.754601554833731 4.585961634402612 3.969186135689264 -0.4287098548778681 1.4693944555359535 0.6742790031360775
P 2.4903394734558195 3.6489877527920327 5.381387014816557 -2.1870880782122395 0.7014409082628501 0.9186993825018244
P 5.428825098346498 8.258945304933524 5.652039218897342 0.34958749752340434 0.5417352927376798 -0.8754277162973826
P 3.9268963004662853 5.275346258155239 8.744095975970584 1.6296705988526128 1.551609592883128 -1.2033454421568373
P 8.48346156496563 8.938780905823576 2.7574772716103393 0.9117818294463845 0.5240856979767168 -0.3313560621170422
P 2.5854367757819943 0.557828329733246 12.850835557549765 -1.2901988496069716 -1.1066835332567133 0.7852879247864928
P 4.720561736570821 1.9446562215088439 8.06018399316762 0.1674855165809051 2.5343497558159447 -1.4268136447509492
P 7.771826347270057 1.670475904770411 5.798244353635384 -0.850408825655542 -0.3413154873225993 0.7628187971496991
P 1.1831924663303617 6.7349669451706315 12.372482511495933 -0.3849962160400015 -0.8049802610090976 0.7971990744017818
Ni 4.100697654386132 4.501765752435342 6.551475845946022 -0.08934686329594935 -0.550245129980904 1.2192076060000743
Ni 0.729817653764433 5.251779817999651 10.240125396664116 0.5273983072897176 -0.1655535896655149 0.5968628298394429
Ni 7.93863726818524 7.136162972712738 3.9667920266079286 -1.25216580609365 -0.7994495609988554 0.22010854209325964
Ni 0.9983891760214777 7.257028930036492 3.526542780013107 0.6154907293532754 0.8962762776116177 0.27286217964620746
Ni 3.2769687874510867 1.250693549474731 1.5808347953162414 0.10306678398520314 1.691005036096036 -0.17666538330796025
Ni 2.0430705528293878 4.535018282767325 8.139465555043506 -1.3294937905518522 0.2651756096352272 -2.019322568497071
Ni 2.187603466338863 6.570860819248101 6.482143543489058 -0.7745486839921177 -0.020136108628242742 -0.942670548605441
Ni 4.545599879393991 6.840764635795447 6.943216970181037 -0.3221864798026322 0.23857163389445363 0.479571931835058
Ni 5.373724038192099 1.6083935494322703 13.296889147993685 -0.06099787983961107 2.0584159349541067 -0.8062300742557986
Ni 4.114870414634801 3.3647558330403595 4.107447762700569 1.1098233644372757 -2.010868781302763 -1.2137650948282646
Ni 0.13469056659532835 -0.12065944257093696 4.96268292238957 0.8444160984072167 0.7418434804496127 0.2688124350568661
Ni -0.16755291197397945 2.3125083405097557 7.577016229270446 0.5023552482781606 0.3337890970385671 0.5102349081365536
Ni 0.34582905679890213 9.312627435348746 12.78828443199837 0.1920063845404048 -1.360905214983598 1.3258721346388649
Ni 6.6524706978946915 1.420364608338228 11.06888006510578 0.4390444040346567 0.17853920329190542 1.1070838540189256
Ni 6.990707139290229 8.145005815867986 1.4778140884693571 2.550785789884781 -2.622638353050709 0.5253727922192565
Ni 1.1408569420027779 3.301110910324706 11.645746130946105 0.15565175717077065 0.7377366573700906 -0.9779527688465028
Ni 6.05065381202923 5.573440252244263 8.303820229695091 0.5991670524925875 -0.6969116529339288 -0.5918154972235227
Ni 5.002500063271291 5.170480625264379 10.711911090821934 1.980623866375292 -1.3348283153908884 -0.5852607268241404
Ni 1.3041772153260909 0.1740965055355989 1.7134126977146051 -1.488817340147255 -0.8633401890052292 0.9124413174072543
Ni 2.5326749977834035 6.975090603336023 8.668358974830001 0.10274668164162305 0.8455548399973503 0.07781520850726599
Ni 4.38002256430316 8.840339161040268 11.98583663620654 -0.3752689614499085 -0.5127543321242976 -1.1510502322975467
Ni 7.112322397929516 3.609567193338288 1.7720711115535994 0.14318190683853405 -1.591705689573065 -0.2533721892423959
Ni 4.716751265246711 4.126585101055686 0.5554872200132532 0.1862211453171954 0.1433539136400241 0.37169718493825016
Ni 3.3504368676569523 2.4618568856446643 12.578498339291123 0.9513577919667939 1.5960912202352704 -1.3337505089456771
P 3.281345803672307 8.637634879546894 9.96856397940168 -1.833088824774385 -1.3414854156960898 -0.0643246302199989
P 1.3386450758405841 2.9080749568651663 9.528903208474178 -1.8911528187966529 -0.08060279855473215 -1.2202334761614275
P 9.308241281306605 6.455267384595838 5.811551762242821 -1.6012061728643325 0.3873055808994685 -0.25015419652573045
P 8.603879769064248 2.2592348445395816 12.55150887141848 -0.9717772361634103 -0.25659198173127423 -0.1864350611002144
P 2.3528426820556128 0.7807957291192195 3.6582242621791083 0.061991868321764204 -0.01258657841575897 -1.017418688151609
P 7.803169073029524 7.828608766473943 9.135022006579435 1.2285394249239616 -0.08673693647692804 -3.4104400453979915
P 8.721118011482316 5.080061887249823 2.1197715940771484 0.9271511128136032 0.5341204565048995 -0.2085573469205505
P 4.955230115646298 2.6520789037597776 10.912576724467801 -1.443389289721443 0.6779747068201099 1.6621135498726665
Ni 0.2667668026251221 6.980235196514617 1.1719675671108487 0.13646284294714564 -0.0502691805681973 0.0847409890928218
Ni 6.94622422704618 8.273337372884301 10.824254202572552 -1.169829826897895 0.5671033391888233 1.8326180557855534
Ni 2.4416531635880516 2.2526190621926854 7.554320623448642 -0.4606879504463614 0.6583494763900145 1.7727568606535469
Ni 3.2318736412053224 8.317016156887291 5.101426112563418 0.3549179085973823 -0.2000732207089393 0.7116127065895294
Ni 2.0661526884761563 3.2369268561747058 3.046959783263292 -1.0052450289035526 -1.0046153657393537 1.184163727022064
Ni 5.272751117013639 5.259912478619455 2.7962883384086448 -0.2024833728123287 -0.16507742136004472 -0.18879147714753294
Ni 9.07392013942613 2.2325067183452836 2.7971984653723885 -0.12093235141171431 -0.6366257115596777 -0.5252131267129406
Ni 7.901345821006118 7.328431862714183 12.719313987249883 0.1808969048908046 -0.18767458993427033 -0.09242730199348598
Ni 7.053968273527196 6.856810649332947 6.444509428025394 0.8455160163396148 -0.4427110542529666 -0.5999129295196766
Ni 6.441843925662701 3.4743000302428366 6.6975475684986145 0.04957241161148882 0.3119432048080692 0.26409317520432585
Ni 5.525421003303737 7.557791167834485 3.5815908408061636 -0.9089921825163892 -0.16593102760959166 -0.47054530285641544
Ni 6.731485435399683 3.3122407762066395 12.677894072578598 0.17254287649915448 1.8010513367228658 0.5832586087924472
Ni 7.958502890867772 3.4922101592482466 10.74854278733055 1.6945796408211717 0.33022606227765705 -1.1513417953960363
Ni 6.872527701317287 2.5389983698608236 3.848524865554143 -1.301744902573358 -0.7496082119966961 0.9826429752333207
Ni 0.388690005829451 2.54213264243677 5.039664494739609 1.5584512983953096 0.32965090650047746 0.014254710146801257
Ni 5.268748751450185 0.12568524407755713 1.4511462718931383 -2.4161319751219166 -1.7214201580527837 1.4419607848050326
Ni 7.634585414855642 5.886246138016303 10.33354408128708 -1.0401230717276602 0.16275211566097778 -0.10096233604769064
Ni 5.201677145889109 7.3391779401174295 9.52427581595972 -1.2432872726570974 -0.5616829395042003 -0.04034035149025955
Ni 3.090054660509422 7.870907739517842 2.851791462683573 0.7987260525692695 0.32165863232362024 -0.5761873037679625
Ni 0.3989380719924956 7.832419237798053 10.772589876866588 -0.31352366192131165 -0.12506205730937173 -1.400684294653749
Ni 4.621955511010933 6.323609660764232 12.55364894907821 -0.24383776738939944 1.4105167073631386 2.21316960579064
Ni 8.621744208965053 4.296649086218792 6.313483127619438 0.3909110388625397 1.941491933370837 0.532153819696832
Ni 4.997611329078488 0.5163773464708272 9.480729530360085 2.3007205535284307 1.155030042880901 3.0437397994536997
Ni 5.393863795502265 1.4292648459154063 6.09049653880953 0.6990952908488088 -0.6624717260885042 -1.2642749306523582
P 5.242623721436682 2.4378426922639416 2.0937991656730275 0.4916774568493404 0.2013916824100467 -0.20970354470985178
P 7.950196611650467 4.428087502348291 8.464242900004313 0.5533839327202018 -0.461392946933186 0.1359995301574819
P 4.389087282656918 6.973235625689033 1.4188879364773739 2.4929897048119196 -1.2798722708699828 0.7406813418207114
P 5.522661381385557 4.588099884498155 4.883481773337789 2.5481658357634305 1.3770172900541124 0.6259561476609735
P 6.365945185091816 8.958619115043343 12.85686651935771 1.497386569873505 -0.5252853747117728 0.18081437247932733
P 2.6750696611973344 3.6765565585110744 1.162098720516031 0.42175296394406075 0.962019128335382 -1.6779991107546712
P 6.615151837252807 5.581810496208017 12.307604896738018 0.5664582494056567 -0.9755457020669069 -0.8866405542940665
P 1.7349249557271238 -0.09147963902350027 6.612755900607287 -0.9629557812170382 -0.22222558843626244 0.6781073757432322
