# total energy = -340895.8011937148 ev
CRYSTAL
PRIMVEC
9.03667818924140 0.00000000000000 0.00000000000000

0.00000000000000 9.03667818924140 0.00000000000000

0.00000000000000 0.00000000000000 13.22609197139121

PRIMCOORD
 96 1
Ni 6.377924829543426 2.1288696924385575 11.53020318437378 0.05397105489981673 -0.0093888974140677 -0.14432759040720305
Ni 4.5573865980716 0.33484597854066134 6.047908051845104 -0.10806192320694936 -0.19111421174343862 -0.24744399668341902
Ni 2.6324205130554734 1.5499168287294252 4.723566592252365 1.3656622700526093 -0.40400155349791067 0.008441960119766107
Ni 3.120166183460466 4.068999323512778 4.416734316202819 1.1577577262247092 0.5029787407947724 1.1482125057384356
Ni 5.131043968342089 4.4407140455352145 2.7595313326071773 0.548141710484656 0.3790034887916763 0.2859755770997139
Ni 7.2986177536095 6.133464610256438 2.616041533776394 -0.24718585792602588 -0.24641915496333044 0.4690728320759471
Ni 5.087351629134171 4.640948761599131 11.582776770939205 0.6365830312472004 0.014281449619678631 -0.5560180279089393
Ni 5.657593135036389 7.734935688247739 12.395387408787622 -0.41581114453832907 0.28115373023103835 -0.22551094405575353
Ni 1.8091520169109205 6.415616814411311 0.5336375370923744 0.6987260804348483 0.11942182830445887 -1.5997887236915158
Ni 2.5979275122785093 1.6152520122812852 0.3438203036838636 0.3550847731925497 -0.6472721355299305 0.549473284811886
Ni 0.5974735357270486 0.2448253010871945 4.737705378999978 -0.541027468037378 -1.123122138428711 0.10228285463132707
Ni 8.561656195473455 2.3739715158793735 1.2658913211789369 0.8049180403125944 -0.8755467583737503 0.10148889797512199
Ni 6.7340603183095125 0.7251030606087496 4.807724272874789 0.2231416724926286 0.40995211465439074 -0.14215115158117456
Ni 0.9541828535602925 7.2656429147739905 2.546869376651073 -1.474188791600803 0.6022462056385434 0.2267011077091128
Ni 7.4801826924648225 3.7589599303619106 3.9577099201937984 0.39576193919693775 -0.39659369106961373 -0.4859040447006729
Ni 7.835685613755303 3.9457932526212067 12.567022845611575 -0.7064069940188737 -0.5902908330488802 -0.2977049497215002
Ni 7.84941232797595 8.788476818869263 6.884696322278998 0.17243411883543205 -0.1319698401727985 0.0005898110651989843
Ni 6.859986429346189 0.5183031978158665 0.3753230676368567 -0.2357735023240262 0.1951626707811994 -0.44163633313154904
Ni 1.907443965941845 6.558107156630637 9.270604386423054 -0.0015377768007650934 0.21528232434920985 -0.9030835303414383
Ni -0.05908180222158531 4.895150520010449 1.4553597388080421 0.8238135916655166 -0.5085914589958596 0.10085743503871017
Ni 6.2695479476157 2.0013079426435283 7.137302203316144 0.22923852941898587 -0.07194332310752126 0.054441823888648176
Ni 3.4299164029081997 4.442937068378058 0.5728422618947797 0.5775517882156569 -0.4313485780522958 -0.16150615906901863
Ni 6.2258465717295595 5.735950171907507 4.827470318459736 -1.135423067283251 0.13869198938798047 0.01920794038701853
Ni 5.153816397463899 2.7634071638969964 9.355529281026604 -0.3835553698284168 0.3318623123294994 0.13993434643551383
P 0.3121946409070386 5.56515695349393 12.351517047018712 -0.0626331014501889 0.22203506969201117 -0.5955914193261872
P 4.077475727685896 6.215951409075439 12.72020719283993 -0.7294975572897501 0.13782089963693683 -0.5630541088201141
P 2.322552816790842 8.433895638757521 1.3240775885886287 0.7805627513966815 0.8101283808689402 0.41293665120401146
P 6.27652426320381 7.776847801845737 5.711661388179887 -0.22865771721485134 -0.2335973206083138 0.34434964616323277
P 4.664191097988535 1.0651803721726714 12.545093538567965 0.3439799215286399 0.217226078339142 0.8990978062208129
P 3.7865127622636567 6.166692476082191 8.041027860350825 0.7934645470600141 1.3518521036423945 1.9432881060393112
P 4.686565913268535 0.930244692947723 3.7942879202066746 0.2337086493751975 1.0711552584431165 -0.058786474010589077
P 0.05103464026405674 5.459021167765493 3.739227439794298 0.5218115572305594 0.6503649155226412 -0.7630792498999374
Ni 1.5028718819007967 1.116427374374967 2.5430206553959227 -0.4646070829951095 -0.23700994583428858 -0.3071612100383936
Ni 1.7215866049306268 6.596016021775873 4.688239506075424 0.5019649548182774 -0.02718813037901769 1.061910857026713
Ni 5.909282696901729 5.597589591636064 9.008172021486283 0.06569734219780943 0.08478726894972495 0.20427723148795787
Ni 8.650631329256528 2.2078321867506117 10.269254022514971 -0.5147315104553264 0.9087705534238866 -0.4243505494679079
Ni 2.424902234343867 5.0148051763604045 6.871246130411973 -1.7063995162742356 0.49557010703552723 -0.6842427992170087
Ni 0.6426252984679711 0.12992213014686085 9.239205544269623 -0.3078993737559988 0.02713953652926939 -0.006789255007691532
Ni 1.5526910889438679 1.2790604723532282 11.447182317871803 -0.3839508054946226 -0.0016411351478487865 -0.12696955874472973
Ni 4.19319039233065 6.678430527169091 1.8676699304113944 0.39809212999201116 0.9063130930223294 -1.4655421716693986
Ni 5.567605893292347 7.816970653155593 7.838932492240806 -0.6489384674887598 0.2531616158934866 0.3877655512550225
Ni 5.120931925410619 2.9039907670112823 5.043254446741866 -0.010715586645291222 -0.7629170132904604 -0.8617558752372448
Ni 0.8725093557813558 7.514937756910252 7.035976641405779 -0.21130534197933287 -0.40341379931524074 -0.3519786234634003
Ni 4.740551028972382 4.66666714782162 6.878850495136578 2.2938749913615073 -0.5443724732502109 -0.5361176894405864
Ni 8.422265433884597 7.243602456588238 9.103056239159335 -1.051481434163273 -0.7782806402307242 0.39030554406805684
Ni 4.668113016337291 0.44409489991690115 10.436074717181741 -0.542301449653795 -0.920182394805254 0.8332881068148553
Ni 8.181754242981034 7.390349074250571 4.670608946862467 0.28224799173648163 -0.4997859448890877 0.00711424244727807
Ni 7.3336168083669495 6.267514695015538 7.043092121838522 0.5474868505094764 -1.124013797005045 -0.2739201885970766
Ni 2.336026504021246 5.2736156406654215 2.575067427377937 -0.8818991829543392 -0.7908574484544703 0.05583844712585868
Ni 2.359223657019535 5.307701990922354 11.324761534317807 0.5889206921742309 0.09643436627035006 1.3069740121827815
Ni 1.0303078309103437 3.2715576537293893 3.777570065494235 -1.4375541710969049 0.5717750336328797 -0.2161462150114019
Ni 3.7811088286863384 2.553286321857183 2.557344694047105 -0.8884045881730247 1.3369736438686651e-05 0.20119884967295026
Ni 1.297594699388479 3.4180422077232557 8.23386424795362 0.08273835684049621 -0.6122477969359456 -0.22809387429158134
Ni 3.698576846476222 2.610172211270594 7.099938249867752 -0.598442258511421 -0.3625839097830723 0.0823794308391807
Ni 3.9126919002905756 6.822077564200955 6.016867062149303 0.39845928352344284 1.2940657887615454 -1.658755174923395
Ni 0.9781119774946391 7.556443219988217 11.325899252106074 -0.9459301931933193 -0.845742530528124 0.12864540378525585
P 0.3272352881413008 5.539194576959422 7.936144558224089 0.004575535185824378 0.45377991047261845 0.14831125764529943
P 8.387781469785857 1.472870110200634 8.025050109584845 -0.03389382453396743 1.0867330582767156 0.8017072466847806
P 1.8665078135919244 3.248243023914203 10.402611897722194 -0.17711044126517883 -0.39394262660001184 0.17263080822727042
P 3.9946274617379776 6.003490067375885 3.877889845118387 -0.0009199407111080932 0.45070204287824317 1.019204319297122
P 6.764098236722567 3.95729694399901 10.113516813688635 1.536620061452831 -0.06170544742959696 1.408645972702987
P 6.34523916441105 7.675022511629644 9.964140522663428 0.07265089069750715 -1.2854248252570961 1.259436371613134
P 2.387119882693752 8.65733654449795 5.806426321700398 0.32669876585068897 -1.1383428120332073 -0.3301934092675088
P 7.012091797194724 3.8238794267155156 1.7140617629743842 -0.1357575893500049 0.9660673302628265 -0.2757212463615574
Ni 5.425974035504199 2.9122412542288276 0.6806850761395299 -1.204318604703384 -0.29245707105899954 -1.8708030514957075
Ni 1.284410185861209 1.1350338948360015 7.0186370632316 0.8083574050114465 0.23731359311763647 0.10909344979525729
Ni 6.768173778601114 0.6028241529028519 9.299635618882071 0.3568899447220886 0.8191460109865182 -1.082415661848284
Ni 2.7199949617139905 1.5362443345781163 9.126347373611143 -0.04569004583794712 0.8548002698550182 0.6662707881196203
Ni 6.389256824034994 1.722797519812501 2.4405709307146233 0.5883216251376513 0.3095765043481056 1.7764667054049663
Ni 4.198612399264414 6.879288774030391 10.274424809794137 0.038026101534786125 0.4764845511589859 0.34406528215359455
Ni 8.10503284486827 6.984683552144546 0.24833424324116232 -0.05033242970596494 0.2234214085165765 0.3298887335428964
Ni 8.004057002405132 3.7293919192164493 8.147127499366372 -1.7890969925744673 0.291054277174202 -0.33745960391161883
Ni 2.944619672301623 8.423467312088249 12.368393043600053 1.7466241681222374 -0.35078048939024103 0.37809177561068436
Ni 0.3122967553709578 4.799678014585082 10.112034798460071 -1.2363938879713736 0.04943331493046325 0.37763849012334966
Ni 8.466310203543209 2.222236651837979 5.9383166403642145 -0.11597732139928413 1.0551995064448085 -0.7881403066336233
Ni 3.588464922329692 2.8797272859826872 11.742283178252329 0.16279788129724868 -0.19532876404541846 -0.5716253954288929
Ni 1.2463386605079603 3.5702650523886894 12.854253662927741 -0.1556396729859126 -0.13192227476431473 -0.9698345106147426
Ni 3.0112561375175875 8.416237969509895 7.950124299434978 0.7334040914330079 -0.45023924430921164 0.004652154060030698
Ni 5.665970135749055 7.982088837645162 3.4778541735452544 -0.18519553226615845 -0.4338332921473625 0.2257991647201337
Ni 3.098966136349448 8.363138448271897 3.472893940868683 0.09532390681499067 -0.22135218469237364 0.6281811803367504
Ni 3.398125368919895 4.4170108385564415 9.26626587720822 0.6330431364147421 -0.377157436721873 -0.08492045209347955
Ni 7.314531343960099 6.079606008047712 11.35979763945597 -0.1443633287411449 -0.2774045476012513 -1.164385258843556
Ni 0.5107620898388228 -0.2447846360351913 0.1766995913000903 0.1512230319754557 1.131480023475103 0.3389606139371775
Ni 4.450762831719125 0.4968275320190484 1.5156172128664318 0.1413433109678985 -1.7061802011745777 -0.5062656390761604
Ni 6.090178921568553 5.48470340727509 0.533417945811557 -0.44250125223500564 0.2488377917071521 -0.3170049356016928
Ni 7.867350134248487 8.762568662404092 11.264147111469608 0.11912512299964646 -0.4158471399825871 0.31464697689247745
Ni 0.12457512764234692 4.798286366138749 5.772818915389282 -0.2955123129455556 -0.5245394976846838 0.8378178763644086
Ni 8.085359996376928 8.873647511120478 2.5461157176872797 -0.07143398757127052 -0.3634231178549161 -0.30320402516285844
P 8.504652829243147 1.6812830200563118 3.614241143292807 -0.8552746383882753 0.00426160348983137 -0.3445815596683807
P 1.7782013939973493 3.1651507676542647 1.6679954883973003 0.30224346102180205 0.5286902866282637 0.35752629275450687
P 4.662311468918162 0.9271902957083691 8.317585457017875 0.5951381338388525 0.1521699692697573 -1.7574834794342442
P 8.509930249325343 1.4626134804175965 12.394964492246787 -0.0858337079363683 1.1405531894209648 0.12865594530821714
P 6.337115190688626 7.664359231326573 1.4048230195140694 -0.29251646354202526 0.2682565625533961 -0.39388863343362485
P 1.846952441917481 3.128814284519821 5.928265143176838 -0.8617304213159482 -0.21605494084917629 0.8475626144559983
P 6.744461534944117 3.919225418645761 6.046387178900183 0.5467954808694067 0.48365201544170255 1.0552393585438085
P 2.5121875092992494 8.658041405399338 10.1741583465715 0.20881548567794359 -0.9128897177985826 0.42879444417187446
