# total energy = -340889.9441393957 ev
CRYSTAL
PRIMVEC
9.09174130240931 0.00000000000000 0.00000000000000
0.00000000000000 9.09174130240931 0.00000000000000
0.00000000000000 0.00000000000000 13.30668240337008
PRIMCOORD
 96 1
Ni 6.568664844723046 1.9245670584045231 11.425170253833137 -1.0670708039610977 1.845247571624106 0.8612097729257878
Ni 4.3672269906968015 0.6612041542122686 6.1217657596966655 0.4024154399577134 0.015208846529954455 -1.1858963934424545
Ni 2.4148028371691397 1.4594790358770486 4.649274623773849 1.0462523245538495 -1.06058879578118 0.06476583152247556
Ni 3.5479792803668593 3.82630475458509 4.55703345396924 -0.6505901441595698 1.430832536102355 0.11503424075972446
Ni 5.146152828679772 4.64451600641502 2.6396734188362942 -0.3234576332055719 -0.33804967208713393 0.4445367946077957
Ni 7.168501563993356 6.003722228286486 2.6463531211166367 0.03184208421126129 1.1294573366181193 -0.24460601301399165
Ni 5.227332986106179 4.6087945551295055 11.428883320950726 -2.322106475403375 0.10068234291342659 0.797834908213568
Ni 5.779474430893463 7.841172222242603 12.413218868501936 -0.5599052787784874 0.31191132312886927 -0.06421098746027006
Ni 1.6490327487433436 6.593803509218961 0.451643155599244 1.3818905589860135 0.5716945581039315 -0.13083521234772305
Ni 2.790300841634142 1.6196664245763268 0.39446974088584313 0.73386020513382 -0.21226410634817633 -0.6776376351956652
Ni 0.5244698211851999 8.836617877574646 4.205430363800136 1.3165598560990035 1.457231337810858 1.3624535333073244
Ni 8.502941882759265 2.2670893174349223 1.2072541323766735 -0.06228600252341531 1.1801476638841353 1.273326756441981
Ni 6.911223470718358 0.7397086121952221 4.7362871331981315 -1.00484008015565 0.4337096220853047 -0.6637233391074182
Ni 0.535061699716028 7.2677106442752395 2.548335968109767 0.853490292794343 -0.9884420984136008 -0.2528749378910032
Ni 7.599386456020423 3.957807699709465 3.7765292897090577 1.019566073511915 -0.9895384168015732 1.1080441610496659
Ni 7.418406255132299 4.061253531403681 12.696677539817594 2.419876529766013 -1.4955893687637662 -0.025913634541968274
Ni 8.069902248061119 9.09201398041541 6.575949147795064 1.1200190740233549 -0.044055338448001545 1.3570333907330179
Ni 6.948663261095999 0.5043561620661005 0.4616968030493639 -0.670199176639749 0.03646441347462107 -0.714303366047815
Ni 1.9133933084350916 6.705786485926436 9.250619406140984 0.2376558069484036 0.17746139684669437 0.0493096448684054
Ni -0.01714793313046759 5.0179138186563135 1.5000754788091117 0.7452687040810778 -1.5008958685783442 -0.3422809365596622
Ni 6.505231766174044 1.7721258332316532 7.142960135361034 0.34353563490236966 1.7681291320735486 -1.677860271183962
Ni 3.682918903675486 4.51034008936956 0.6164364204047174 -1.4366740824847968 -0.33022323406417964 0.18555214427462882
Ni 6.238616454657709 5.628378783422363 4.947025512300206 -1.1919181741565021 0.15590603927342184 0.13672355280770002
Ni 5.426205733731357 2.5736082812017345 9.367199167213426 -0.274644725467927 2.355215599252518 0.7856273104037824
P 0.20643434880465403 5.504994763214752 12.497529312433201 0.2508944171258647 -0.11543584707351733 -0.236461015309354
P 4.12954159976853 6.164727873696302 12.65529375209517 -1.2314604552254984 1.0501318621139142 -0.5922204459714252
P 2.4461784361475836 8.642663761953912 1.320113552938545 -0.18766559107320582 -0.5645371211235438 0.7432452458931457
P 6.4086683825895605 7.863183327756023 5.8980671034738235 -0.7582332346615458 -0.4126150061985346 -0.7384527096005088
P 4.874864362172152 1.0898906632103618 12.711620725700229 0.6215659890130779 -0.3274179034049006 1.260597996021403
P 4.051898129679885 6.2724286402853044 8.406815811927856 -1.1743665384259838 0.5024609206180896 -1.2167360045311302
P 4.628396349217459 1.0968003865437774 3.818857709345089 0.024772836069305724 0.38232586829668996 0.8832911782058595
P 0.14085107345518796 5.501448984135762 3.8087713316265472 0.5257540868180752 0.002626896099885799 0.2164321216829369
Ni 1.3253213023140458 1.2099925648346008 2.270705102921369 0.6617554167477699 0.2738895924694573 1.8681681849760214
Ni 2.0147116726819134 6.319714786413061 4.828276461770719 -0.3559874875124772 0.46357581351711774 0.19884629028037368
Ni 5.973019418158928 5.5922209285578965 9.374757131696411 -0.0445369060701104 0.6239339750246222 -1.5695720908988195
Ni 8.661429115848874 2.3316043131900774 10.190989111460969 0.034916352261210835 0.05536356437196917 0.5892256250091594
Ni 2.252851650671595 5.13977951807882 7.201789156152086 1.232789201339251 -0.21053272547936647 -0.553582164773937
Ni 0.7651363940621919 0.014626793287893675 9.077286268799883 -0.07606685835759157 0.4231616713661293 -0.20928214090171698
Ni 1.658879104493461 1.1829537264219976 11.488550600283016 -0.8683993486956915 -0.28011860409830464 0.3826953358209667
Ni 3.949879701358493 6.735552846707493 1.675989761484893 0.49654815467808033 1.4021513661175788 -0.21393583762364446
Ni 5.721805516283126 7.919488481182133 7.898780222186711 -0.852096754880926 -0.16247675051240404 1.25178194039167
Ni 5.481374419503944 2.774081175283072 5.127570218783498 0.3880974806731445 -0.30560235019170595 -0.5167485408853552
Ni 0.4907485529698857 7.300859132793179 6.69974138718382 1.1419726954763105 -0.3405649823098199 0.39107713212675876
Ni 4.8390519934743565 4.8059944223687 7.010532560153753 0.00036278265605743974 1.527837944384827 -0.11771153048157146
Ni 8.39229539201233 7.203932079559567 9.380585846997798 -0.5112024142561453 0.3726695761538485 -0.8373658764286548
Ni 4.602012116173285 0.4259335297542007 10.692730488749845 0.15968710358240884 -0.5118906985724216 -1.425405708659829
Ni 8.040490465187961 7.289912676354453 4.6506592959629 0.19594942834855283 -1.0645128134259345 0.1403135841518035
Ni 7.479093627830392 6.267519100022088 7.1166131784558955 -0.7077501383103295 -0.7360433288280679 0.2971519054315076
Ni 2.310147803891576 5.225469179154402 2.6264858481848212 -0.5671586179067909 -0.589228710332953 0.04145209649719958
Ni 2.3495241351508174 5.008767526980766 11.880898328766202 0.39721101293863853 0.8869907385446337 -0.9145323956083282
Ni 1.2163840589180102 3.1787454856080717 3.7537881173750147 -1.8042413044150734 1.5749611231248748 -0.9988902903301186
Ni 3.7164219701013237 2.610493475364455 2.3825217007643684 0.051006058734221836 -0.06221272608331867 1.0053951813281716
Ni 1.078089583096186 3.287837288604986 8.547547783572954 1.2110476958971015 0.029023126705227435 -0.7290674117308669
Ni 3.779673213825762 2.8922374442844805 7.207005997268815 -1.1459759030984327 -1.1429923949900769 0.02006874572541705
Ni 4.15708957568991 7.210514500208769 5.924374056717558 0.3120946427842689 -0.5518844653565398 -0.31355348671798255
Ni 0.5155526413886025 7.559182776309417 11.663639352855279 0.7648363418003602 0.33251074454677576 -0.6518155319262388
P 0.3777554838119596 5.499785195491006 8.144248143606305 -0.7877129892882176 1.4292099128972675 -1.042271999749863
P 8.682149194107893 1.7669435407315912 7.937968354402529 -0.025481946321188373 -1.1168854134903796 0.25478423909857406
P 1.7277308608144573 3.255861634705482 10.729058359175278 1.4623048956790237 -0.3173286374896987 -2.0633964188878333
P 4.021868108403211 6.1226512952922905 3.8886650076691667 0.14529715340932395 -0.05381010384192023 0.36382780949250243
P 6.9515998935127 4.06804506210113 10.57784088237172 2.3465967472352554 -1.40097380086971 -2.0424082466719407
P 6.234179684938358 7.634171457959434 10.171055468818187 0.9880165808404081 1.143333066158947 -0.17201220080666507
P 2.0992012239153772 8.493213719645114 5.805293157633244 0.7359230012001197 -0.5046831250803888 -1.136861085281358
P 7.080384408009849 4.024859291267282 1.6385717912862015 -1.0041379118823028 0.022687414295186732 -0.8062550139564629
Ni 5.337543073274159 2.984573168197862 0.41177677948780383 0.7410384680498141 -0.6943724314518428 -0.18929721313935788
Ni 1.8694438313380766 1.1555966770664083 7.024144715120582 -1.8898842364968742 2.092267850506545 0.09043932502917973
Ni 6.9899761332368415 0.6901395298450698 9.06673439393046 0.5615875515769166 -1.2439336479918446 0.7953615069724109
Ni 2.9023838274951275 1.7599701752095784 9.338017405393343 0.18653610545445293 -0.49375259421081413 0.04936955157206336
Ni 6.193603243836996 2.275353710211337 2.589839766816402 1.0142081516341115 -0.6739632716678715 0.7100227363945901
Ni 4.058398724658032 7.1011954036811495 10.484787820075436 0.33646715809136246 -0.7520664437292015 0.38087885143751826
Ni 8.228934985624418 7.025752134969723 0.34589802254842195 -1.4092434970776697 0.1605185983447687 0.3237803066523134
Ni 7.80075943248335 3.9304051916477345 8.363262734748389 -0.8612694225191296 -0.24549484337684818 -0.5675481400357257
Ni 3.2919467556401227 8.585758553606743 12.611940693222726 -0.10260861340186199 -1.3126769761048296 -0.06373404782385152
Ni 0.19675437191901232 4.992156915756883 10.12844793272645 -0.2297892597161333 -0.718280348417692 2.46792093476875
Ni 8.641381826440739 2.296064696729127 5.6135701553099056 0.3923475141987501 0.1849394503912944 0.6581810691329504
Ni 3.9029481331386355 2.6874277896373022 11.613672961413457 -1.0292863861234725 0.3715146366137989 -0.5009737945496017
Ni 0.982626300200311 3.2507520761352455 12.697036663596107 -1.3796652691999207 0.11431356054361602 1.2140072927460577
Ni 3.123658625506538 8.539963453040407 7.764582484962304 0.6976251340611856 -1.4357898801076305 2.14419153595903
Ni 5.684320267199347 7.954973547195714 3.7614133607430884 -0.7561053896852655 -0.8317791263694966 0.04391264222255018
Ni 3.1764907337834836 8.50935156032513 3.500109444452254 -0.5497856738459822 -0.8559608658220227 0.06653603604902089
Ni 3.528141101006974 4.481355618334128 9.522714310095544 -0.45014719881603765 -0.6733670328447694 0.1044685494287362
Ni 7.410941935583965 6.221414880253995 11.347579515843616 0.17979415874492907 -0.6741370782415745 0.7116798123820388
Ni 0.3061134721080354 -0.11984642369572703 0.7472529390663646 0.29019861404212605 0.17284395267934105 -1.713012393605063
Ni 5.010304031248328 0.2944269479333347 1.8878991568571561 -0.6542297977946863 -0.7542086868831849 -1.6262834275479343
Ni 6.005631493944405 5.569609768123416 0.15507328425842767 -0.1860401396546409 1.432709955630726 2.3231128051807026
Ni 7.716860844429718 9.174566990767271 11.172888981537149 1.3741865054735365 -2.41078485187739 0.33480828233170085
Ni 0.09793714568406231 4.725005191508085 6.075511526198309 -0.5567302234846154 -0.1650997899575479 -0.9678174801847139
Ni 7.7916585995139425 8.715979563217944 2.621003528224229 -0.8850151028755016 0.6097885367621756 -0.6118294784516044
P 8.535890352970183 1.6296673399273232 3.4969164249329174 -0.37759349581802715 -0.1410599753995248 -0.4047708275637674
P 1.8089019264996353 3.2690264760038845 1.512637537664086 -0.1805793736503858 0.758959314194293 -0.21320461588457476
P 4.846843615706906 0.9759620538800562 8.235625597994236 -1.430036522563621 -1.0061960799629122 0.10120736217896119
P 8.532126372101716 1.5644977388037393 12.533630798502054 0.4681613760052711 -0.5047905971925307 -0.8138366829584629
P 6.190030189534323 7.476329738497025 1.3492043973463481 0.39780390932763104 1.0949292209342627 0.3719892622573722
P 1.8386228285745512 3.2277499708279542 5.835153163348951 0.47279501812254054 0.2941498853803902 1.7211877303270036
P 6.654381781022314 4.002720901376667 6.403707928575466 2.0993764365268683 0.26267829713467017 0.17800081428993217
P 2.352133464883305 8.486267629346786 10.522005771967107 -0.4195819244346709 0.30135025978357133 -0.48987357087138206
