# total energy = -340867.3232777563 ev
CRYSTAL
PRIMVEC
9.28954588369539 0.00000000000000 0.00000000000000
0.00000000000000 9.28954588369539 0.00000000000000
0.00000000000000 0.00000000000000 13.59618940247752
PRIMCOORD
 96 1
Ni 4.922576916120924 8.66914374610126 13.449663994594946 2.3353666828473907 -0.05678127065510221 1.3200169614096686
Ni 9.228355841093094 4.218531508178201 11.62214552837346 -3.985958091013071 1.0961201559185703 -0.5613607802780912
Ni 4.851196044033526 1.7393838977767675 9.905096486239554 0.5046990659199888 0.13004716922878892 0.855187735101424
Ni 1.1534922264399303 3.5617884688805894 13.497318437036531 1.3012741335845266 0.707313307883227 1.8342954434879764
Ni 6.253248654966238 5.409302683041704 7.161996642443515 0.9988293551851959 0.6709553380794832 0.9849834504410391
Ni 6.811150923960632 0.25307789075203513 7.530549164711637 0.14578617723060056 -0.03439596098136657 0.34668626471620934
Ni 7.162388661288138 3.3408830630713298 9.276204435047775 -2.0294360027819884 0.8646635358023431 0.4890109657607707
Ni 5.037637233881794 4.958081561243001 13.251920214029765 0.3052979315774097 -0.8259265242434615 0.6552019318999683
Ni 1.2759563124274604 9.048649572153645 11.943694805380286 -0.04725173389811217 -1.0388272357343722 -0.7753868636226969
Ni 6.882123056020461 8.951313708315569 1.3421982076227787 -0.20523136787111107 1.758373338238365 0.5155169824710992
Ni 3.8517616498030467 1.2106693825692825 2.1075313958357538 0.6645936575275134 0.2524049402331201 -2.8260432092360426
Ni 0.5539672172744275 7.543325077437015 0.12307812498349277 -0.6074650308353216 0.3094281516956993 0.7730607865926815
Ni 3.9539931044258765 0.21132416798118242 11.560160103192517 -0.8028310758765786 -0.41210567066228376 -1.208459623454951
Ni 9.272685554992243 0.5603054745655822 9.629854667492552 -0.30201129040633795 -0.020346939087468187 1.4606313646313425
Ni 0.2197748680511859 6.665927450074334 10.899385400895694 2.0426656140983854 -0.11946090907251038 0.6828230360513465
Ni 1.967237884054712 5.261236608054581 9.320840703967603 -0.32458197661800225 -0.041812822270727995 0.15245279061749875
Ni 7.695720080897945 3.8719106752530164 5.977904651212343 -1.373201772962764 0.6092450055538797 -1.1878314056816381
Ni 8.14514832030299 8.258833785243851 11.570846797004249 -0.380546407798764 1.8283430825592832 -1.515863288521454
Ni 3.7382805548759688 7.837116261798816 2.3318692889219905 0.06211990925919625 0.6784261925352316 -0.5686148907373433
Ni 4.606518689802655 6.29956633172675 5.777211439766406 -0.871817630348621 -0.42083790832895906 -0.8214314645865853
Ni 4.641038643040133 1.9109896825334727 5.4791284851151225 -0.5208453366625482 0.8180949440141846 -1.011252411439897
Ni 6.858964217640206 3.550520249484179 3.8477076918932416 0.8830988596893953 -0.3157479232661401 0.19700178087246717
Ni 6.7862177822788805 1.3457579616810675 5.071650906857849 1.1740909161670943 -0.7524963321777686 1.3404631450791624
Ni 4.183333418076802 4.14079658657131 7.243818964326103 -0.8143141368155136 1.5770082354618904 -0.17703870748697895
P 8.271383961999458 2.2760316853375375 10.754123839870465 -0.7218858063807632 -0.2096148416507874 0.7090791415343982
P 1.971055887494056 9.121869774365106 1.4722499948493755 0.24471142824360437 -2.7491451132264073 -1.365651471419332
P 5.865205736065296 7.513561371793076 8.09676186163021 0.16228443199593987 -0.17827515099724137 -0.5508619376292965
P 8.990487724139692 9.160932315636256 7.597985695532989 0.2247074743178517 -0.7997334107878613 -0.8774606875670113
P 2.5850019879959043 5.889507188613531 7.240052982344813 0.2896298860228496 -1.0821863194462975 0.5023771026550315
P 2.7862414247514127 7.4439548030071725 10.810289364431583 -0.08762319573662329 -0.4517945046114735 1.9388508962035642
P 7.568834170975796 0.5340717964324725 12.934789045139127 1.8819678098632748 -1.518718755692378 2.9871487904325327
P 4.636774741388894 3.8673123499428574 9.519440051726853 0.6750405638924504 0.8863101675378413 0.22255597519248768
Ni 0.052367958123151294 1.083523365356863 0.6398964474794835 -0.6486499897140635 -0.699527493290221 -1.2042139608047195
Ni 3.7526979303938814 5.340606489771751 11.364918926341593 0.09420393427793453 -0.09108184370918507 -1.6489996381985281
Ni 2.685765694337916 1.2081797842195399 13.534300119985508 -0.16071657328818775 0.6155830319567657 -0.6783850548846511
Ni 4.38622639403475 2.007182932203569 7.760351168802794 -0.47219569397564487 -1.355790519464852 -0.5936852034424098
Ni 6.871105654368241 7.885301137321635 5.7229892882454605 2.1922539386838955 -0.8682967616795562 0.379252885798321
Ni 0.2192416481061291 6.897636597975946 6.94173871799611 -0.2576661886320595 0.16959099295968214 1.4044746149341165
Ni 2.8455737555715865 8.035122936518091 13.405190292731536 -0.4788669353482333 -1.0186361054984778 0.015382395993341248
Ni 0.05397969436822726 3.2067234385676575 2.014900687087771 -1.60385620889267 1.3896426921276066 -0.09761913060707059
Ni 8.065165328544465 1.3768222037763647 3.118122534909669 0.12169931148472588 0.8241241809273999 -1.564681081355105
Ni 4.03429194075116 6.774828798783416 9.18966488166519 0.12735291022607745 -0.20915127175080755 -0.46362209337402094
Ni 1.624202815916843 7.753900508004058 9.031948826208989 -0.9366973617411417 0.31072578746120033 -0.5004724294331511
Ni 2.2604066688290776 2.693541044407821 5.101617124606357 0.2557054653612628 -0.1697632568714883 0.7434727885229195
Ni 1.2282452037547795 4.9654017235549315 5.6133094755747805 0.09413734270605723 0.42540470176403505 0.4375205111909626
Ni 5.571656079901604 7.076831941880935 11.77904503272913 0.20959555837707772 -0.26790843518535795 -0.5037086769822616
Ni 7.468878655142843 7.3993835609099134 13.425272433449724 -1.917440034627956 -0.9333999219367924 0.4808659680561332
Ni 3.599987082366194 9.081943305308412 8.451269519178274 0.17093439436145402 0.8613226443545682 0.6747315172924638
Ni 6.611397814578104 5.246011042027609 2.269679493727261 1.8609251302603629 0.22350034138362798 -2.7277861879346568
Ni 4.8334623005646495 8.610201576216493 6.241942348430896 -0.3308084171436883 1.023294687316412 0.26017147155241643
Ni 3.2226921682811196 0.35677523574646747 3.9110661119849772 -1.5163561689974723 -1.6492585482868691 3.646426949284404
Ni 4.084186092752907 2.9227884625979352 11.95018076645413 -0.7520823845688015 -0.49925269809343686 0.07297664946804205
Ni 8.86159527226402 5.509964204376823 3.990522386480702 -1.3102470265070982 -0.5254936340678369 -0.25371517440411145
Ni 1.8714347953200232 5.809189773196086 12.645177227559225 -0.4986950258177541 0.2760287502996472 -0.4967070488534477
Ni 1.664101416335294 3.3164608464240404 7.4869319589969106 1.840653010274888 6.757051426375795 -3.828053533252381
Ni 2.3514720890623897 3.811853759838514 2.3890139316400587 0.8503448051868259 -0.2153563721202549 0.19543237950281828
P 3.91857206521853 3.8004554867969684 4.5043364697740556 0.7233500496311155 1.3389081418872169 -0.359776008020632
P 7.132578507913793 3.0945614591841 1.6463221540906203 -0.7020898547007586 -0.02564289737908487 -0.08499501408515683
P 3.6591243327186644 3.078100383528339 0.4980868817780012 -0.037857951388038026 0.9153708323492235 1.2798360183154087
P 8.975002050822448 4.761551924350626 7.325668225892327 0.8661100384408825 0.09737230470358714 0.737429153432001
P 7.554435374550046 5.7998909375688745 11.47087455998835 -0.7741725315996216 0.6680425353080625 0.8767520915357611
P 1.8115358021889003 3.9819174799457517 11.17799839591554 3.7657212508720628 -0.15127471114899751 -0.17318256696568238
P 0.4179626889190431 3.3597965788925097 4.187136558242416 -0.5862248905096227 -0.2105905753004954 -0.14048199140886772
P 8.335937017717226 8.833949583126579 4.090127686426397 -0.15502235111688786 -1.7158557765911286 0.3214210623915174
Ni 6.221784962389452 1.4944650153477883 11.897182977106679 -1.5281500763086069 0.3438613936729046 -2.7849459249751005
Ni 8.67406720552426 2.0792512307009714 6.745436674982722 0.29990015760060607 -2.068090481929393 0.6563175335616503
Ni 0.026482637968083964 3.115648728788264 8.907108474333906 0.2647485494001376 0.2977910816774033 1.5726394169702336
Ni 5.523954260775005 1.7924364954460983 0.4927816220110682 0.5684359419573178 0.6770817626921952 0.3066109939618784
Ni 7.741629017630887 2.9528215650782266 13.116203661602896 0.323201808441024 -0.6596887640267284 0.5372931978059263
Ni 6.16369743074415 5.65764011842854 9.727461786076194 -1.1374298133006346 0.5582654291822192 -0.6741154809750196
Ni 8.167907708201756 7.644302443338892 9.112220722850637 -0.9300875697341079 1.5923114414778643 -0.6204079641492348
Ni 2.546468950851379 7.910122804450413 6.522962264840359 -0.44315508376892065 -0.9672225269131923 -0.29078482556289925
Ni 1.756829665317129 6.14412435715121 3.138911610084629 -0.4816861499645833 -0.1251924122396489 -0.0768441028432483
Ni 6.219490444507413 3.8870340562730954 11.34788282778341 0.03240001359726033 0.5362261899939926 0.7231019381760515
Ni 8.23356621990318 5.256861231850369 0.18325115972400907 0.1771819179330626 -0.7515709921500218 0.25115512698641906
Ni 5.875563579945756 8.862106197298482 9.885123033210517 0.21832265383743044 -0.6506011999031635 0.3526352832107927
Ni 1.4250906852139134 1.4532751680240603 7.93740155651765 0.48068547661421096 -7.206979310092175 0.1019421834624567
Ni 1.4827694768316466 1.48181265358529 2.396232837899704 0.16278939665681644 1.6060323906083824 1.9022121619346075
Ni 0.781197875010328 0.9914175159624641 4.552697846672416 -0.9992489592211177 -0.5099348603976315 1.1276596212877483
Ni 6.184701094433583 7.790826453676548 3.5362189932922807 -0.41019508390313225 0.9613308440191056 -1.084262742359352
Ni 4.670681584585018 5.591572866699546 3.1890407876022278 -3.225958508479722 0.3681220659924821 1.3503840037373003
Ni 0.8279001389785984 7.648194763146886 4.924308487510447 -0.4731608861023916 0.41616904209838007 -2.030658819445496
Ni 2.609935129677656 2.676438990072462 9.486442655092073 0.8549691913327145 1.32333548425994 1.4064206829168941
Ni 4.91357534596831 3.188655271439861 2.626240140959254 0.04840230256278761 0.42157992870130623 -0.8237305450334071
Ni 0.8043316316161647 1.9997977430690705 11.946087792450784 0.2091399588968979 -0.7137588063982545 -1.2620049036712588
Ni 8.45282737605608 5.453158630090717 9.336258563598454 0.8815220021205785 -1.6814060795536911 -1.2879061969180527
Ni 8.106150805854409 7.147228122083734 2.0957030168106514 1.4752151759827885 -0.32631438592807677 0.8077028021465832
Ni 3.0858292858678387 5.820485861230739 1.1669230521640275 0.5181302517242302 -0.8250857735097209 -0.8163255108185877
P 0.8794775567302456 5.554461130105433 1.099092644588836 0.21712374843332286 -0.17461544275746702 0.6305833620203398
P 6.494386692140197 2.401589190170083 7.604715971668767 0.16337277996411217 -0.23638671042799286 -2.673806648394408
P 6.481920121299321 5.838163867423129 4.403955492730587 0.9587114041183876 -0.8995140678226251 1.8626264292221857
P 5.163064685069204 6.582163613060789 1.0282905112222913 0.5068994160054173 1.2028458768125994 0.11536514173658195
P 3.0983237253469578 7.320403840128151 4.361603523192109 0.20765514682125527 -0.007487052405664524 0.44224105659508356
P 5.375275075746527 0.7780227081597979 3.5698564396520505 0.46743889601694977 -0.3917918988055962 -0.6003667292276434
P 3.0564836097975503 0.626346715565548 6.305572952222808 -0.7358690080337327 2.3295228224721036 0.4063831663562098
P 2.1421135890319745 0.7397172648942605 10.16379083655224 0.4741900986978544 -0.8870437032697561 -0.25326343157867354
