# total energy = -340889.4667860072 ev
CRYSTAL
PRIMVEC
9.09110568390403 0.00000000000000 0.00000000000000
0.00000000000000 9.09110568390403 0.00000000000000
0.00000000000000 0.00000000000000 13.30575211143790
PRIMCOORD
 96 1
Ni 6.476985519558067 2.2777856208210134 11.75946429877994 -0.5673825609921389 -1.5977177000951 -1.14867710407968
Ni 4.786485326075351 0.6063576579576927 6.249312414301928 -0.3485544282731997 -0.7016098297405465 -0.43058778862687136
Ni 2.790160337303774 1.4162760815596154 4.855268631698284 0.7804563077258042 0.11736237467226884 -0.6645018691446556
Ni 3.372545658677127 4.053678570015628 4.915637209897931 -0.0472339932862993 0.028125297481306405 -0.5131651944094711
Ni 5.498382539056464 4.437777785263972 2.746413936741052 -0.3300388859675155 0.4503143205215212 -1.6552111663258786
Ni 7.335349536251987 6.138978210139524 2.298036058737361 1.4255820863366933 -1.514076114714044 0.8183212010923778
Ni 4.966380125396871 4.201190850882365 11.541715044491024 0.941235101710495 2.5296086415865338 0.6706743165039547
Ni 5.644103872102989 7.616064697635143 12.392166162795544 -0.9138217426945487 1.0196943715596631 -0.1731000345542051
Ni 1.85954930372042 6.541023268012726 0.737525949021507 0.7339481368619359 -0.002060224963138387 -0.4054483132467662
Ni 2.727768078978345 1.4370401669472417 0.41597808644810347 1.3956786139090414 0.3444573753856906 -0.9525867792778886
Ni 0.07852533447642829 0.012060260803513679 4.9622073078868345 1.8056456409617678 0.27523813607755176 -0.18620957535296964
Ni 8.715970301309733 2.150291954675622 1.4070031537595367 0.9590708443403354 -0.0982523933156953 0.8147789922670742
Ni 6.8755486839533955 0.8382335813726325 4.98193955277906 -0.27763440422387026 0.03177446419811947 -0.43433491437412935
Ni 0.9591207410157521 7.582227602270543 2.7881939311438164 -0.0887619373267568 1.0715422094688902 -0.27489257981267495
Ni 7.7832501312071445 4.0510876048950175 3.7396881435992886 0.8576109998309358 -0.2934783132346623 -0.15748495372476748
Ni 7.824214653429844 3.9920317823564795 12.337425888126315 1.0706356384942206 0.4691646204588049 1.2109211976215661
Ni 7.828005644501052 9.140379479171358 7.115343869531715 0.9045644857623389 -0.8543904360111093 0.23563491986363289
Ni 6.745609510378376 0.6065822082681456 0.3538985621582847 -0.6715695746247144 1.6395554620664925 0.04138087693963196
Ni 1.9337236350153606 6.651507475418954 9.380621947149448 -0.081210350231744 -0.21407416297372167 -1.3226705969824317
Ni 9.335838251427912 4.622999972517694 1.2581690261260048 0.3214850828602334 0.6082209351647396 0.5293831989302302
Ni 6.61757946899749 2.1614376502470884 7.335301353391849 -1.0236505279939339 0.10964623697493374 -1.0253333150129955
Ni 3.166404837239111 4.1411077334012685 0.36103326190093327 0.6284974260255886 0.5544501692011871 -0.48555128934694447
Ni 6.102577422971374 5.564474877396238 4.66828276994141 0.4377717079698203 0.7201389988929856 1.1871066117004718
Ni 5.227385769652017 2.9441909409476246 9.413939031268788 0.03774996505526402 -0.8146501799986938 -0.36564377965531863
P 0.193661460662362 6.150933014117076 12.779389991068287 -0.8833441429309818 -1.1739860151581136 -0.11830596953246077
P 4.110343431758656 6.034648681282956 12.477017088608536 -0.38314245066071434 -0.06628638193206003 1.1142400054477326
P 2.639357076178578 8.53040265203993 1.3372016442997312 1.2260562534907917 -1.5195669626252861 0.909469122152808
P 6.69043558996791 7.875270302964393 5.90404131143999 -1.464826890769929 -0.4359608800133266 -0.6890813582562325
P 4.706783602523108 1.3552474890871389 12.71956687920982 0.1987316190793803 -0.21706307039871645 0.7882364658918554
P 3.920939335889212 6.272535643777712 8.12521116248868 -0.9146907755630634 -0.1197056780934648 -0.056834235380224696
P 4.911624395847976 0.9034959017632428 4.001545624457246 -0.9878175774557245 0.6129517649815057 -0.41390955664024204
P 0.3415001122232388 5.686095689268247 3.323164590810004 0.016857694987287095 -1.8802937645949618 0.5420021732458215
Ni 1.7778929924456122 0.8463046650009751 2.612637407455823 -1.0528721438632125 1.1927887496869134 1.016214897651495
Ni 1.9187596750556262 6.350991885850924 4.820979708381073 -0.16618942347730087 0.02441905227431278 -0.5151254034596354
Ni 5.826953280772575 5.735578577519057 8.797151147757143 0.9183952209978441 -0.2390416315523367 1.1131316028749023
Ni 8.620113682952844 2.1747379378662206 10.484600366171522 0.6345945400622619 1.563281372794101 -1.0579469872829588
Ni 2.314322774574459 5.122892600893095 7.021804574014278 -0.20067794417247375 1.3627859769460788 1.083847252088488
Ni 0.7208210423228364 0.06527141149629667 9.088281079814584 -0.0980112238391667 -0.5667973779126303 0.44498545210944
Ni 1.4120123529927167 1.015376503002894 11.57525940625252 0.26327813550219814 0.08127462781077616 -0.4175466391721971
Ni 4.265301328182514 6.366083121290267 1.5680429998875645 -0.10013804037418239 0.9058623786381559 0.19515161503760586
Ni 5.635149133001933 8.13647595154464 8.00714860938231 -0.5660188478753929 -0.16923309539963113 0.12226881083495071
Ni 5.448854195277222 3.0080105028658113 4.647738689311393 0.33325456469133574 -0.5117701138341573 1.3702462898788659
Ni 0.5099219361685836 7.3996600178772365 6.764311732996338 1.1134064538028439 0.46825650682223874 0.21623440384983403
Ni 5.033717945215675 4.609163309663067 6.634208010408395 -0.45828885408656556 0.029505208547968544 1.238815352928673
Ni 8.38516314759478 7.266193495295912 9.411957170229162 -0.9947505571301319 0.24817753241533386 -0.547431828901825
Ni 4.855586820397306 0.3952794570214187 10.825559557606422 -0.5334501699107523 -0.0010834628721658759 -1.1201247463632837
Ni 8.213759440984312 7.090816975500509 4.515613104818806 -0.428485654682204 -0.71198988742329 0.03341662778723277
Ni 7.463534126429541 6.274044767321646 7.090542424108781 -1.4026465605864424 -0.30308164065238125 -0.29564858141310374
Ni 2.529927437031967 4.9343885244866 2.5855868224860847 -0.8564851137566089 0.4340752329548395 0.6743476515904838
Ni 2.1857290846410193 5.530910515202229 11.582870479933135 -0.25138164117492834 -0.07464863785382629 0.4137966852114616
Ni 1.1133513489847024 3.0284382173430426 3.719703165968982 -0.919868463109261 0.2201558503914273 0.8185618563482742
Ni 3.9404215753750633 2.628093196233189 2.663213046610133 0.14069616430220286 -0.5465530258412975 0.6012918121450741
Ni 0.6913404048031362 3.5103850030935857 8.105678012810987 1.7855565835213765 -0.7122367133267734 0.18645742969771759
Ni 3.458238420876675 2.668794076390984 7.139201658184407 0.45102317366308775 0.9592649626290125 -0.4949088193024445
Ni 3.9610038386489625 6.854484592078119 6.01054088722389 0.8539536055840068 0.6257018655583223 -0.21105157409731393
Ni 0.8205086526159533 7.560554406314282 11.294720612319681 -0.6739198200244458 0.6953311958206865 0.31239314786129424
P 9.276382420239175 5.630585397947385 8.041437532699522 0.7447426563742787 0.8310520183954849 0.3592520171963619
P 8.788971879971134 1.6145167321561924 8.130732190972003 -0.7323365694004419 1.3135861181826605 0.4840255967310374
P 1.5863433956341897 3.757108520315475 10.482444865013287 0.20058872689277712 -1.6256267678005423 -0.43969669290667496
P 4.0644969857823865 5.810625654959887 3.879771172899139 0.22911537357756023 1.5487726376549649 -0.12724029590761313
P 6.700899452612901 4.13408030870572 10.385126396862034 1.8934920084527904 0.6111057129117023 0.34234624257995877
P 6.3131092484558975 7.801786895701615 10.195465931812235 0.4591002942442674 -0.24783866101867635 -0.15614078099204723
P 2.375078633876345 8.443528046101155 5.844604571573194 -0.6164710909886738 -0.22562432970516624 -1.0255875971156467
P 7.309885349224516 3.8471013755046664 1.3258568535137336 -0.73032108163231 0.9663987454603162 0.5917159955311809
Ni 5.486864108151857 3.1284767443156527 0.5660949690939798 -1.0233196270170763 -0.922441623153076 0.02421542090393894
Ni 1.5828978665790625 1.097941924846337 6.841166122247614 -1.3617770760655903 0.6563653560804502 0.9124662571079188
Ni 6.9385409552541235 0.7925998672694233 9.263464868169438 -0.5260042551556684 -0.27012421188975416 0.810023994080592
Ni 2.5783103014947293 1.8329305462707832 9.219076635545258 0.08473430422460244 -0.30468369503217846 1.041946240979328
Ni 6.523086516493555 2.1528374642678 2.7165560183353676 0.5741941845973336 -0.9099460617892264 -0.6126342337410868
Ni 4.264555857516234 6.733918348465728 10.335508960247065 -0.2473943743924062 1.058315683476287 0.5813781039402826
Ni 7.81998728928569 7.7618314862101006 0.0814599433919825 1.5608460238797313 -1.9157104535313585 0.41265382985626997
Ni 7.524226347991623 4.075833594573266 8.398657075765032 -0.44206647869043225 -0.1891401187362033 -0.7530177518988773
Ni 2.9759916286384818 8.188540713810372 12.413228436449682 0.910476994592032 -0.3107442994039616 -0.12043664272221838
Ni -0.19102867645559465 4.99991721427382 10.13150545775591 1.0519480893870463 -0.6561318999134054 0.5479172531786758
Ni 8.684342344626916 2.3348232178971817 5.845057308636374 0.4181454490984605 1.0346314524854696 -0.11052246893229999
Ni 3.3823640528183865 2.82948846050293 11.504020592983704 -2.0653892809481462 -2.2268825845013582 -0.0647059248188176
Ni 1.0542046153893005 3.208423927721426 12.744036499275202 0.570845836950391 -0.11349774951054001 -0.6320488908222728
Ni 2.918417656326819 8.558421439765263 8.009995943683277 1.3277557248148228 -0.5318303749191421 0.18908278313570662
Ni 5.696305000954019 7.826987440664181 3.9339123437036356 -0.1007993281072651 0.24192178131360917 -0.43430200425366494
Ni 3.229706206133175 8.244196462822217 3.6839505746362686 0.45382901854299906 -0.4978938700726973 -0.016947940708248233
Ni 3.38803690276667 4.371376349330862 9.377867342126482 -0.5128404640802007 0.7215785595529896 -0.23823224827716388
Ni 7.418142235737588 6.165651514223279 11.519680931639014 -0.35841049513167306 1.0405830420832143 -0.7145699894456403
Ni 0.7904489116640325 -0.06598051773983207 0.4296229269727482 -1.6479660547276909 -0.3969747285581163 -0.23636896981618002
Ni 4.8936058243776275 0.4110470707238265 1.870335900617276 -0.8774830561645146 -0.9706418370073864 -0.44437687199116366
Ni 6.064067499283989 5.491464207629151 0.15239784106258195 0.19584349889830788 -0.04248310886487522 0.7225766618002006
Ni 7.862042744190751 -0.022202298307207227 11.381354303957766 0.04196528868819224 -0.5331771187550236 -0.23124964631174366
Ni -0.03514075992002245 5.001080875801673 5.744146035517875 0.1585912994150688 -0.9157786093106036 -0.13242004033633967
Ni 7.791932137137611 -0.36923343923002216 2.5467205274557956 0.3469706287258476 0.1679927952346268 -0.12139463576011353
P 8.490610882450769 1.4716500062951812 3.5468876106454235 0.4874886155789734 0.8656948052803348 0.4137444918172875
P 2.0516716401900825 2.9297906295404443 1.809581859536527 -1.4363511519277392 0.5425451902334849 -1.233712484484469
P 4.601726785211632 1.2403268221059716 8.294087541718344 0.7021137659601585 -1.116666098390722 0.5399715159690378
P 8.614486288532992 1.6044528781614016 12.651042670098947 -0.7740018103497122 -0.4190795308769557 -0.6110995422641153
P 6.165342416629943 7.562227169760571 1.4856003079708873 -1.2268360690796098 1.8889041319717923 -0.9727154317069635
P 1.7033731991345904 3.411928328510401 5.998299713417217 -1.6283464807245505 -2.0889860944314798 -0.7579115896560689
P 6.959214129584887 3.938403349912693 6.0352759675753145 1.1299504742044542 0.16643907759426177 -0.4338816288867947
P 2.5473005399985844 8.76217130040777 10.267143845485704 0.2165056552333497 -0.27750224952138014 0.0779033973456981
