# total energy = -340886.33358345786 ev
CRYSTAL
PRIMVEC
9.10688117832923 0.00000000000000 0.00000000000000
0.00000000000000 9.10688117832923 0.00000000000000
0.00000000000000 0.00000000000000 13.32884114214376
PRIMCOORD
 96 1
Ni 6.813613538326776 1.9908279321676667 11.436918380569937 -1.275127814206462 1.3179904178979431 0.7520039659223823
Ni 4.560589395630447 0.4837165371239334 5.873047584370029 0.7090536876131014 0.7665283847908024 0.9503231800546924
Ni 2.9864650168357088 1.9703465568254084 4.991837548629485 -1.4312050889504255 -0.11740119833000427 0.5259741732486812
Ni 3.4215098285186905 4.553267463316006 5.03763514243059 0.4776248354110162 -0.5711188881061197 -0.01829519876476204
Ni 3.358481105199984 3.1124496084252162 2.9735041038134313 0.41771350376736444 -0.32116318074444045 -0.5888001074359666
Ni 5.240581985250611 4.532139499423592 2.8679799417399092 0.3715246639161279 0.8869303176203436 -0.08218171300607782
Ni 5.995651701736751 3.248879792508086 0.6239060416786942 -0.6009557689618941 1.4701580731748551 0.3044276131573144
Ni 5.735495432549425 8.625473045316113 12.558620197380181 0.8507559245823155 -0.21750067215676736 1.1892591392671004
Ni 2.551329136342846 5.776676748377657 11.696124802070203 -0.3722558856551976 -0.4169074629263013 -0.5710893204197648
Ni 1.12446302312584 7.903934864628193 11.671959693368255 0.2185435115989849 0.3789556662728764 -0.17997387885590296
Ni 0.5593227737753178 0.4685135100023833 5.156515456161272 -0.7681304391705998 0.5326204749206053 -0.669419361050931
Ni 8.646036382587265 2.811266840386457 1.6214400896565595 1.8998074091478574 0.25185806659071464 0.39008802874061205
Ni 1.6199866314508573 1.2112789195854883 2.8342180018526912 -1.0563287349532453 1.4577471011050118 0.22431820929923305
Ni 2.0621985584714815 7.082776512811341 0.4197142882275982 -0.07781109474220793 -1.005021600038837 0.2317163015355171
Ni 7.939888830769249 4.602854430296263 4.291420046329188 0.08547786725884633 -0.28158644689308276 -1.1449294641117895
Ni 8.146760739295146 4.4853665586686615 12.723444725695877 -0.6405021637959486 -2.3596911185253684 0.8595262145757778
Ni 7.903998612795109 9.062894752936991 7.10727129060506 0.36108701352257166 0.08475230194673146 0.23043897748499026
Ni 7.1570066997454225 1.4634029197413014 0.40982421547451126 -0.15579959560254455 -3.2596690133582893 0.40093731275029015
Ni 1.7457708716586267 6.959642374971112 9.466529021403884 1.7584106192342037 -0.43752539628696907 0.34225214020425576
Ni 0.27528097713237815 5.436653132924611 1.659187200664175 0.45018833646661827 -0.7053847234019465 -0.18610570278525368
Ni 6.646748157981643 2.272203234057288 7.3194261007921595 -0.8655747347627029 -0.298274449071725 0.49574622760207526
Ni 3.8944301582312204 4.172791082513777 0.4882544959203084 -1.3031466680168913 0.07579123609870173 0.8566463219248214
Ni 6.052433104697614 5.9097920277808536 4.920088076076565 -0.07230404888104967 1.3436148033342667 0.30055347491388884
Ni 5.259333053205129 3.0944361978307358 9.870779825713672 0.17460310146229285 -0.4395609386597591 -1.2675440883219333
P 0.2702075337339023 6.185129467575358 12.535708195502197 0.9129953901385115 -0.2965392115481732 1.148671447652725
P 4.143075329849576 6.151488649205282 13.090254410199252 -0.10694940686906097 1.2413352911370492 -0.45478289781583614
P 2.2823482994780417 8.925089429824917 1.4013540968169158 0.8910949905209944 0.1595624050790865 -0.3629070974504459
P 6.519288251672062 7.990832723016734 5.801830864354914 -2.0620591881336487 0.10288500699170024 1.3191952368393216
P 4.872035618542806 1.6196314630923212 12.965043903493733 0.7530545186740838 -0.7632396867372018 0.2038810244908037
P 4.067706782791981 6.630592551108737 8.263734982835018 -0.34158905269896006 0.7694350169146361 0.08816724116555139
P 4.832320510553659 1.4673279854471766 3.947962226055526 0.41579314681620005 0.2525941734257908 -0.18221305259906684
P 0.24742576025404747 6.151743641872949 3.990454932746045 1.5557138448594885 -0.8188032829351188 -0.7106189752176922
Ni 0.6184573947835084 7.737907317333967 2.5019570917539085 0.9054672000822666 0.09066481077642449 0.17639284637286395
Ni 2.229009297530684 6.509798881682452 4.961727468018498 -1.1207225278482829 1.4386988262243094 -0.8746916094623066
Ni 6.0891429419606835 5.807794960714027 9.387875622373878 -0.33958744888789905 0.39025463622546336 0.02647002126607054
Ni 8.82140758977529 2.5301647449264792 10.32177442875923 0.8322552946749667 1.0388681162746367 1.276591286125866
Ni 2.3590464511599007 5.736952533507523 7.206090966895135 1.593776456059165 -0.22802265473401376 1.595596282876723
Ni 0.7349435095024177 0.03617526334906761 9.46106489281102 -0.18563159136231255 0.8150756975718865 0.011351934677709482
Ni 1.6511776988351325 1.3507872294423389 11.773271922984776 -0.9607114652675518 -0.0770752450174479 -0.3700380520682724
Ni 4.357196315642008 7.23318575921096 1.6312372722235677 0.5714757572249061 1.8573399840122657 -0.9430503005423629
Ni 5.668068085713462 8.003354684375385 8.446779647943625 0.3066860701741879 1.3262416021631416 -0.4239371160795732
Ni 6.851343346260514 0.917745931576741 4.983933686619904 0.605136382702145 0.15649713589020145 0.5964005454910438
Ni 0.9535906151459402 7.794051238625663 7.329583005158197 -0.5197726724236598 0.23767637577369388 -1.012258226996592
Ni 4.854359162544885 5.079754467000596 6.983979603723736 0.8413310317239897 -0.2630914734126888 0.2412034150903459
Ni 8.206319740957383 7.4873405938271205 9.35611355355165 -0.005811978696086764 -0.4377123154867945 -0.24531203794208076
Ni 4.741060456171813 0.5878437036538794 10.608291475654738 0.4587195138660809 1.1856948189546095 -1.024828607462435
Ni 8.304300673508454 7.7855909461877095 4.761621972066767 0.14450962451102212 -0.5149479973415066 0.4324320409244617
Ni 7.365891228969692 6.314410750082561 7.249049945892246 0.3952420621377258 1.6583520259477054 0.40618082053741655
Ni 2.81968159841947 5.6734138248534824 2.580797181844171 -1.1946659121049683 -0.7763695392509403 0.009742938319376768
Ni 3.7261258906899672 4.962248381611018 9.489148692402152 -0.17586962687954227 -0.18350040395192269 0.006738090054781943
Ni 1.0845566706359437 3.4965596347417014 4.1453757279871715 0.5708147266021395 0.4210932188728748 -0.425608590244725
Ni 0.20806035649484506 0.4696154426019445 0.7512384516544423 1.9337169174111086 0.5602199818054288 0.6043192861174883
Ni 1.2298205292772795 3.4775444672385287 8.504453525241324 -1.2900414980935007 1.0609261245159407 -1.7787051078171818
Ni 5.551736787971351 3.2487522961742523 5.252896309722733 -0.7817775976403891 -0.0356696854874676 0.6171642604009564
Ni 4.222560187113795 7.366610672567752 6.078457838497335 0.3042759180707985 -1.2049017309003636 -0.12776017296682513
Ni 8.16696890820776 7.842372349148572 13.323882335068214 -0.18778926113526367 -1.911440108290779 0.6812631477633945
P 0.2394982203538981 5.885786289496197 8.407126466745199 0.06197901280595778 -0.7459978689376185 -0.7295538644489822
P 8.683046746922942 1.6000334552059092 8.498122421578389 1.0624685293023959 1.1704746595707454 -3.345767030699638
P 2.177937908949366 3.7664147321813637 10.308512077976244 -0.040735530046149195 0.4000016883098982 2.4634276748840866
P 4.481359531033893 6.52913279002021 3.668150575631563 -1.6257275550444643 -0.263171691831321 0.7080365592024966
P 7.0380526202787355 4.277256114328382 10.473057025045607 0.15021001732990905 -0.8898832296010803 2.1234501896466202
P 6.664807102981065 8.007261536319284 10.68338590559459 -1.701781814996566 1.1651470767102448 -0.851506943815727
P 2.3373265400032595 8.788112832882762 5.8295421925136335 1.9431862903541246 -0.6898164366500442 0.26358255411649445
P 7.372384435114214 4.469602547678244 1.84961663556604 -0.6608992393950618 0.09183312005291282 1.094051960535632
Ni 2.7128123500240044 1.9914563069558464 0.5646293533270892 0.20361671508582352 -1.258498176069581 0.9335739856208116
Ni 1.4774275164629902 1.334194492282003 7.171196131012996 -0.52759936755693 0.8226450252787122 0.4088799646361346
Ni 7.124194607545263 0.6981781202653206 9.416892877266292 -1.9950140736586934 -0.37306449759942195 0.4729336005829339
Ni 2.4595590966256657 1.7726999187404664 9.430314598466568 1.8512336140042116 -0.5571043189945825 0.19092780676424537
Ni 6.6951967648383865 2.6660485161500618 3.345605796858995 0.8506335400718381 -0.3316586809591256 -2.015102873988768
Ni 4.390864454655048 7.353023206133493 10.759480271066938 -0.028399891298931734 -1.1348098591792843 -0.1520702104670994
Ni 7.119786877147019 6.310822638973246 11.769939715231226 -0.36790892154041155 -0.7598679420514913 -0.720613881646875
Ni 7.899335889729198 4.048773577217701 8.52076850253152 0.3131868474071832 0.5237666240744011 -0.8567820761717374
Ni 3.362342422738943 9.013325999718711 12.598807041804513 -0.024865652893428146 -0.4738905651795644 1.0012479919290176
Ni 0.337541079695688 5.079918390858381 10.702259916442447 -0.3256253302808521 -0.4545990639398042 -1.6279621008019383
Ni 8.450766640440218 2.75382974199445 5.752714723121743 0.20454179800325417 -0.4239723401928827 0.7916969136366301
Ni 3.6656926284528724 2.7246968297134875 11.657324024932263 -1.067025038324827 -0.2865635883927 -0.44827749259715055
Ni 1.4682386735459878 3.682212510565303 12.703252038480942 -0.6134009367037823 0.5047785130076725 -0.36774257116587633
Ni 3.183301142512709 8.879819124433025 7.996345118078836 0.6422739109843906 -0.713299607373649 0.5279752628391101
Ni 5.807749426309086 8.350554522047062 3.4844784464228757 -1.7758990058269544 -0.4547931822284812 0.8143187648012039
Ni 3.113314762119087 8.621547979610238 3.4956616962762737 0.8406134368316749 -0.7239851121119532 0.7329927149272022
Ni 3.755331658018835 2.9749630261477265 7.251156367464795 0.11761562833365552 -0.11081043248636399 0.32302748764668887
Ni 4.851463174390665 4.65248693168146 11.69584431013577 1.9824141255064955 1.1690284140425222 -0.5726327536474848
Ni 7.836052173742824 0.032933213717300604 2.873151739453057 0.9393085741117436 1.457443453821664 -1.3016813963252745
Ni 5.052251686416505 0.9855466605332166 1.8700233344841957 -0.131752839065986 -0.23335409424925618 -1.0696578479619836
Ni 6.18348112211651 5.779190247530376 0.7264868598168592 -0.8453092996454474 0.8480480387328491 -1.4624707318329264
Ni 8.382392177981492 0.21262199318178918 11.645581612586195 -0.23872949962855655 0.24348398359440646 -1.2562142651314108
Ni 0.48444144485058693 5.078452183019296 6.270246930730725 -2.8309478456265116 0.2636244630980234 -1.0512495206581252
Ni 7.351720922152193 6.595449097375623 2.684015481651503 0.4276541599198441 -0.4258479599490408 0.31200465417362394
P 8.768769817664017 1.8250098431361679 3.715681208884704 -0.7872131668336636 0.6964632525426004 0.057949837041906656
P 1.8549623747060602 3.7551495203990726 1.5976082927987756 -0.1367091546299968 0.4027003181879839 0.3574417034605005
P 4.710279198432003 1.4024050308829437 8.399142464182923 0.9620021590545174 -0.5070197436333655 0.06828412908837918
P 8.908305448163832 2.07439267211456 12.650762708529776 -0.29340940766993984 1.0791351913247995 -0.2171466312514583
P 6.563802685941941 8.226400413536165 1.2904240901888522 -1.1032287419388935 0.13652737763649392 1.0357282850940743
P 1.8438155523766142 3.503590146864522 6.346020733992289 0.6364498481034457 -1.0105438154086468 -1.182672487188518
P 7.022862342790568 4.555862924397617 6.300916173834381 0.033210425313697646 -3.1536439180757108 0.4624041618065198
P 2.682750535882255 8.890747381618757 10.427804933415691 0.024854597149834613 -0.3871477151653655 0.23424703837717079
