# total energy = -340896.12681778736 ev
CRYSTAL
PRIMVEC
9.05787863021826 0.00000000000000 0.00000000000000
0.00000000000000 9.05787863021826 0.00000000000000
0.00000000000000 0.00000000000000 13.25712095973411
PRIMCOORD
 96 1
Ni 6.32375797910571 1.9625343354593106 11.446370597842366 0.10879623026981264 -0.01488128798720663 -0.00597678640872519
Ni 4.714091422192587 0.4967105146507361 5.943591565885843 0.1149005433953376 -0.921965711957922 -0.05008457536121697
Ni 2.796801190587223 1.7739764756139427 4.918338433646648 0.2619013097593296 -1.4778317876700289 0.4417489474500134
Ni 3.4463597842957796 4.372310487113312 4.929726904472588 0.16830672693061982 -0.2090152603935755 -0.05094563780993162
Ni 4.969215632232681 4.576302972177324 2.7678748551202403 0.5556768425194365 0.022249812537135875 -0.6010264742988295
Ni 7.308159172848071 6.182509419446361 2.614105589803772 0.2452467319217841 -1.0047025261365212 -0.11070244615359
Ni 5.108290301016164 4.5656418490069335 11.428115349212288 0.7812410084106287 -0.14636441833157374 0.12912748562799697
Ni 5.435814135101222 7.8302190666871265 12.473784034139452 0.0008055266204308708 0.09399104693618007 -0.05095617933289289
Ni 1.4404019785910593 6.598601190965631 0.6888398960475777 1.637933095971721 0.28409918601260753 0.1287806438115395
Ni 2.5178547596991057 1.4648220194299464 0.20641093866341173 0.562639904100831 0.6572197336609455 -0.24623326420476951
Ni 0.6169792157822549 0.07440322680222032 4.9311979039652565 0.3563572121470701 0.4554310729227962 -0.11808511177090632
Ni 8.663906217581475 2.13556699129954 1.249302477996659 0.5915357611995747 0.3079556809152309 0.357936383708732
Ni 7.075915164276459 0.7952002245128831 4.918895493183588 -0.3879190461137513 -0.33637716948071744 -0.7454589657150129
Ni 0.7696606298729255 7.862564751344273 2.7207720745674284 0.0405403833162076 -1.1914638602279028 -0.034595221476366234
Ni 7.891042721818107 3.7820809985585795 3.74939202030062 -1.326410266530522 0.5344922380220214 -0.23865776585035675
Ni 7.511300217319035 3.7035763643038937 12.757924252645159 0.448336370859544 0.2082354448047575 -0.3666819911118459
Ni 7.949855527888914 8.643879247887565 7.065183389652605 -0.46693727379018285 1.0853408059148792 0.33832040925001733
Ni 6.817557291558516 0.5345661068903358 0.328123465651651 -0.15969044601651852 0.22456503520271645 0.12817386346547602
Ni 1.8932325059124542 6.556454881609793 9.231291736182323 0.14122606866374388 0.022178592979568253 -0.3785005810133288
Ni 9.14401907539498 4.61832247123207 1.4842140318305301 -0.25162820996809565 0.04535631664761221 0.4114459255910979
Ni 6.281620727628519 2.0628503415018455 6.932997237582019 1.0962463970837895 -0.25123380274315443 1.496964394734422
Ni 3.4956708756633246 4.273280699838997 0.6028145051502624 0.0032606730291427715 0.07113136872918717 -0.222616653227094
Ni 6.000645331922928 5.655186898111981 4.752147193550338 0.25313101976586727 -0.27449945813931437 0.22213405716372067
Ni 5.463830153763936 2.9738464866691543 9.261782367292064 0.12316843983108465 -0.17357748841125592 -0.14086354311800256
P 0.14105924999557562 5.621935425589891 12.637893773722121 0.5030535598967659 -1.0408144413677303 -0.7351969216673725
P 4.063038278506873 6.0420307794722135 12.806524300538722 -0.7760916029992053 0.16821570987871032 -1.365793396313835
P 2.420047786042465 8.582974071848739 1.2670033844533923 -0.8000825665971639 -0.2818638689241855 0.2992087879605363
P 6.426555843898191 7.882057306197864 5.791055077853563 -0.8354524614560256 -0.8200191576200909 -0.5024894598631797
P 4.620233683627101 1.0071817585456997 12.530365884698902 0.3504218204992417 0.24736326404415462 0.21089782212826907
P 3.9430213864018087 6.264881767884357 8.205707085584558 0.4735632637471328 0.31366378704360176 -0.6322257827197693
P 4.733285067050748 0.9115758494008731 3.666203556996309 0.824695737160154 0.5936281249522293 0.3962504487975821
P 0.3731990929627183 5.6293266545678335 3.591910836313612 -0.27829723461884975 0.2301759536315907 -0.7245612963303973
Ni 1.8026356036607671 1.150377762114678 2.6719193118595452 -1.7135003889850748 0.5340572073671319 -0.9011539174188932
Ni 1.9633586024164096 6.746389539009876 4.8180885501182535 -0.8913076207524326 -0.26211728242487764 -0.0752523328760962
Ni 5.986976993040925 5.622225277706673 9.132207601636111 0.2915384158994721 -0.42658560944601365 0.32186843434158113
Ni 8.34131892736036 2.205077152055334 10.033161276744787 0.47235253126848326 0.36798965417967594 0.11792441782332594
Ni 2.3937799379590925 5.33013586489822 7.004068070829111 -0.49765707147154287 0.028869888956814797 0.041589907626644496
Ni 0.5037964931181921 9.202714129043342 9.135707565946253 0.2522861552670687 -0.6720334016350102 0.29532513663541393
Ni 1.2664182454926385 1.2088101372822078 11.289936504627233 0.79431223977229 0.16530033600412822 -0.47902068731727826
Ni 3.992260014740158 6.868625611384052 1.6367242520147263 0.1278805005947733 0.24012175199039293 -0.5433717998998384
Ni 5.671309922107982 7.764295825876511 7.891553586173936 -0.5336255191463519 0.5476382884856763 0.24901365516338408
Ni 5.3549363366403835 2.7708413103779317 4.882014528686668 -0.23752236669433288 0.37442024029636806 -0.9661177238847878
Ni 0.8465049549711695 7.556227295420251 7.000701257335114 1.1598796576637185 -0.7570297012717478 -0.030143613462915827
Ni 5.088978903735561 4.723575021138549 6.8788284058947795 -0.6189678892685986 -0.5063540850249086 0.6022942852676595
Ni 8.14069597315394 7.140688054498597 9.139697561491332 -0.006303316510208499 0.16490155790381278 0.20192081544063933
Ni 4.593848083121287 0.36954514471553473 10.446280252491313 -0.28603137003831386 -1.1537434628589938 -0.06855615180284323
Ni 8.212760455688876 7.23327769005316 4.6597849107498766 -0.17109945918440855 0.19484385398919993 0.27631054320612414
Ni 7.169093561943236 6.036423952588212 6.933275314456557 0.8949804416183296 0.04117493157641296 0.22639566065355204
Ni 2.3875209438123304 5.0933085697299925 2.71122688204665 -0.9131763958010659 0.01830034097108461 -0.18178007882670627
Ni 2.4209988633006563 5.191731479134795 11.559825056865911 -0.5403787787097855 0.4761341097981026 0.3144991384607035
Ni 1.079065083507646 3.130502497911199 3.895419516735413 0.7822463097466915 0.8745298870734615 -0.19177395681462456
Ni 3.606321921244869 2.6380799830131068 2.9509427347161834 0.627568743563732 0.9777565936752967 -1.4433021293242756
Ni 1.2538911993204647 3.405309478256523 8.188300560183931 -0.3744528933065164 0.5324942337553862 0.8030935855093458
Ni 3.749834950566578 2.606250597438979 7.1269617451932366 0.24014900568390252 0.9409070289471152 -0.3118244198420178
Ni 4.087177525107627 6.940771614826832 5.914624469964938 0.8345296925314403 0.8591240940413526 0.7767804015361139
Ni 0.6750900362577297 7.311872903094341 11.147766758709237 -0.15261039924128558 0.05693836505825678 1.0752273716299612
P 0.1869944699904747 5.594209259043959 8.067886027206157 0.4796878885876319 0.06914107777203576 -0.6190627629752499
P 8.540374868560429 1.586079840909984 7.808643199744163 -0.9929844663686447 0.025297855334840302 1.1826519183632276
P 1.9406595585209159 3.327701573988131 10.378138737199448 -0.9642091940081652 0.021836379148801103 0.17257064441329634
P 3.8983388710241274 6.232309636260975 3.829757142829901 0.5027506839443664 0.08177470737564627 -0.2624594962556448
P 7.145262283216563 4.048165241764495 10.350762204769385 -1.2375850800659975 -0.4286126671783715 0.0776758547159243
P 6.249130116912983 7.485449031653537 10.284251107634422 0.08603373976231635 0.6214549173565104 0.04605077161147553
P 2.625552936840933 8.81556227980903 5.906060245701893 -0.9363060398399938 -1.3110574382235356 -0.21530906382208725
P 6.833952051914 3.965294710000779 1.6735128261494219 0.9863507631022109 0.24678090917812337 0.5533193980308535
Ni 5.403613376502467 2.886854620119944 0.4486340121431098 -0.6337635595205343 -0.6850735226484203 -0.4688437467842764
Ni 1.4919322502277168 1.2343171235590276 7.089020103106467 0.4161613287888961 -0.3098526408276277 -0.3124522832340038
Ni 6.865618395672438 0.38390641131422 9.36105218835059 -0.36956471197627966 0.4163503048712507 -1.1279303584506315
Ni 2.859554173870535 1.7030170542742389 9.199447858002355 -1.0425764183641593 -0.6717557224935914 0.7514357521237381
Ni 6.571581538954355 1.883422823335112 2.4527394816640196 -1.1530330670555304 0.47782203902348674 1.1041728510197177
Ni 4.13151584109663 6.799876312434812 10.4819682943701 -0.039822531313576576 0.6105228438250389 -0.018348934820832916
Ni 8.131592805111255 7.231955239770342 0.524023641930254 -0.6375379389613021 -0.053149844550102014 -0.435417863025663
Ni 7.821650313484757 3.7596899225371674 8.114352038889912 -0.3919471934365379 0.34420412172430404 -0.18686109289403946
Ni 2.9222618677606 8.009003475469749 12.364836775531867 0.07063925958411706 0.10466729570310361 0.6550114131557171
Ni 9.265847543229933 4.762551072967085 10.208526336337249 0.2503267175478528 0.06779176283299293 0.11056154970035152
Ni 8.689712113853727 2.5604358472301176 5.857354220628131 0.3240160768122033 0.051575558084446665 -0.013100284827383889
Ni 3.68394794127056 2.6412140090258127 11.388781511177099 0.30824004492486917 0.15010460210029636 0.6702631971084649
Ni 0.8831087483814167 3.3817227622533843 12.49015705558618 0.43360214997316293 0.0911252953526108 0.34676262648009953
Ni 3.216642923867362 8.420258339790221 8.111926338987592 -0.22082279455146486 0.06809900966076658 0.04205733418136628
Ni 5.5938288281406825 7.750600313358559 3.599414382986807 -0.3667357271679168 1.1831553403622075 0.04039485887727882
Ni 3.0036559653044574 8.408347229366209 3.4289278968349346 1.992314672449659 -0.18607022156162795 0.8151543733286218
Ni 3.644156680363575 4.573033077984876 9.44123071857969 -0.701386915096463 -1.176605969279464 -0.38337307861428166
Ni 7.420051147804588 5.917910668338954 11.521657873600772 -0.8009665118640141 0.5774533149645796 -0.5383272954973956
Ni 0.5019876347518991 9.111320133470505 0.14963977844018903 0.2540393905127496 -1.1367263594757067 0.4669619563805313
Ni 4.541647528464571 0.57178493026088 1.3633493222838782 -0.10160716872054114 -1.0009314891298633 1.2637537680415656
Ni 6.018489352862323 5.5307678769832895 0.3014815271800566 0.12976357655009912 0.6058778888538597 1.1631693841585837
Ni 7.671126486088383 8.643535048498887 11.49995610214458 0.7258877284513047 -0.24669143478811065 0.037826069708838075
Ni 0.13875854881861818 5.169621197351515 5.740412478324551 -0.00528593098928767 -1.0405629874785565 0.37118142164409623
Ni 7.765346539799846 8.881250015774759 2.5324950089601934 -0.33495637787379084 -0.992115176389814 -0.13897223963256067
P 8.672176060788413 1.508861425423518 3.4904145886830555 0.09743555384135477 0.4869124313605292 0.6038513453421342
P 1.8882597305339124 3.191960204547641 1.5209763381171424 -0.8519723134879198 -0.4850517240027065 0.3278202810496419
P 4.703385009628951 1.0344006838872633 8.330588964312236 1.9381541272468557 -0.051755792416052805 -0.8761273134675684
P 8.430566205693282 1.5158269341049364 12.3370236533509 -0.6764844954278285 1.1546209803679406 -0.36846685092641057
P 6.126332456062541 7.666615662520963 1.3965319549282325 0.5975079196226097 0.25938934197075325 -0.05148788346664681
P 1.8923357759261596 3.3224389464928072 6.115310829321904 -0.5899830720004742 0.4460894838068962 -0.7028241617636218
P 6.963117401454998 3.9654668096951182 5.931249300438117 0.058949481951014605 0.6412233582326892 -0.42300226297012955
P 2.4003287842226366 8.573046636848954 10.334244257264269 -0.5038937964098741 -0.06557984278333866 -1.0095631966629321
