# total energy = -340886.691672072 ev
CRYSTAL
PRIMVEC
9.12059132004762 0.00000000000000 0.00000000000000

0.00000000000000 9.12059132004762 0.00000000000000

0.00000000000000 0.00000000000000 13.34890732039090

PRIMCOORD
 96 1
Ni 6.449507669390696 2.315380704834467 11.507212172917086 0.4410586062512082 -1.0834582441801857 0.9409628218857149
Ni 5.155651447063999 0.8230303148128952 6.201742242616488 -1.666810955348336 -1.1262090048841507 0.41306314947954664
Ni 2.8699217850022753 2.021460525076111 5.142399227701096 1.1764033663503546 -0.841755520855918 -0.5091167353717103
Ni 3.579266663688007 4.539710545319412 4.941899441948478 -0.1453370055083239 -0.38676256391180486 -0.08509194467433732
Ni 3.948285793366623 3.0079619364527415 2.7602339041034396 -0.5088603963865301 0.22588323979350775 0.5591542595450757
Ni 5.443925980720747 4.940660865630871 2.7169694665467543 -0.4773181028038747 0.24914015343891935 -0.35765973300857756
Ni 5.366419194660222 3.1462027409148963 0.7873469128614711 0.5963653213777342 -0.14551544006771713 -0.48717776920677386
Ni 5.417914053932724 8.219139544205902 12.935358159493958 -0.19210948577717238 -0.08717916622066921 -0.6576149122168352
Ni 2.136908971528704 5.890059711027952 11.83211135356191 -0.02532588035929832 -1.043242076972616 -1.0109757607397427
Ni 0.6624440613217583 7.863463839804591 11.325346667536351 0.008158110330760143 0.24295485056381386 -0.3375894446212638
Ni 0.8381039162864455 0.4190273325463337 5.079232747562314 0.314648005333742 0.6645995710647845 0.11530523503292399
Ni 8.947263720667417 2.6134416331067647 1.1639963293391267 0.3037665825345478 -0.7025197431493256 0.8787009877320159
Ni 1.6040292960318472 1.7149448085385615 2.986123592307846 0.2708281799353142 -0.5059383376437286 -1.3147348870751228
Ni 1.5428848510154005 6.713183967932683 0.6116013243372441 2.9503223656328026 1.5003950176825256 2.4969528032247257
Ni 8.042218311445007 4.350212016962205 3.687008210373462 -0.7628658483375508 -1.397144914041923 0.6972710931558765
Ni 7.862734192489359 4.130898275186327 12.71558200373205 0.39924089888447367 0.49840114872641905 0.21953647163987353
Ni 7.860764144738233 0.06947792941554112 7.348426777342591 0.6162859715610612 0.049184689254766906 -1.7547305992794555
Ni 6.893872004958464 1.113715420787341 0.48118689939009723 0.2174489929832255 -0.4982774786643612 0.17723693954071412
Ni 2.0470437840664353 6.483399787183226 9.29201386858227 -0.5716647333072606 0.7763703105818888 -0.7156061440196385
Ni 0.23470838806813 5.044307266759587 1.7494279406564286 -0.6512406332593752 0.05666248568905081 -0.02734599611312065
Ni 6.394574347145163 2.590147642567981 7.152277513707043 -0.9403629835181868 -1.845051653563216 1.121162957819811
Ni 3.5599127686514764 4.601402225822284 0.5852118050635884 -0.042682626470191005 0.859270646921546 -0.24847809437488816
Ni 5.818344500532081 5.948741596355491 5.132040972002234 0.49285476498689307 0.23487387332789228 -0.5825731526896484
Ni 5.625672006353613 3.346281155342969 9.373335798042318 -0.022684843192025447 -0.966702392743664 0.4703229024329642
P 9.263237490528663 6.175743996715626 12.673879923489107 -1.4777317717570548 -2.3013923827844756 -2.405496864005573
P 4.044973183226311 6.378029594272276 12.79127014385936 0.8369614419013843 -0.08358322133929476 0.8899446789666351
P 2.558791049195883 8.70178300204903 1.5458171211634892 0.7533463388828896 0.8770981620212701 0.18534979845583563
P 6.486892973704899 8.147725313227562 5.644078271939486 0.3270594916242174 -0.35123506042915636 1.136694477796507
P 4.866711110232102 1.3144322766162413 12.998418840772032 0.021905027603207432 -0.6839949448722608 -0.7151086355579297
P 4.127158832695764 6.454204773982502 8.307879250684424 -0.6514265240179362 1.375017228904948 0.7271653096121476
P 4.894975823105905 1.547974141039144 4.065116009422437 0.10160356917611535 -0.27378674834300587 -0.37092405421765146
P 0.3606911176343862 6.172752442723175 3.7265341174987268 -0.17459230282901544 -0.29175413145470397 -0.04243657189765595
Ni 1.0242424187570092 8.087027777191695 2.8900655232575447 -0.7805951472965137 -0.26609992122170945 0.5135811989009671
Ni 2.077287665282804 7.185475554490958 5.243370559360342 0.3325359413577563 -0.31495962303688985 -2.0900474458164586
Ni 6.348022848433357 5.789103884374155 9.592644979522474 -1.4832894683504905 -0.2016171681572915 0.12173916358372583
Ni 9.087611381752305 2.611763444281731 10.628133087525498 -1.1169522621725732 0.5781662818712042 -0.9442024118689352
Ni 2.590029074879256 5.516954556384037 6.838244605704315 -0.23976719686445158 0.6393747350597246 1.60461596987683
Ni 0.51356499900352 -0.0028510968842692884 9.123110547756633 0.51114764975881 0.92788053478046 0.4090578849748956
Ni 1.7575470911566735 1.7701791103016287 11.735384745159026 0.6776494622702072 -0.9772053491575171 0.9875452976309446
Ni 4.2537435212970856 7.181088550008124 2.0004804285857567 -1.0904213057615801 -0.8178697153772561 -2.266379099934084
Ni 5.946652980915639 8.217944746727209 8.410666492099454 -1.040976163756575 -0.2191184102658484 -1.665245410633429
Ni 6.965213271205279 1.0448184730465535 4.772047579613038 0.8994104523652252 -0.584532076188232 0.8345623455415884
Ni 0.8511363293956342 7.676208976941723 7.146924638590672 -0.23847984551159573 0.7762111592962052 0.4326395289495775
Ni 5.3415291006193675 4.9368302172259035 7.490205459224477 0.5857204400693784 0.38779383338979667 -0.8069517829131715
Ni 8.066032175695893 7.32591442149025 9.276596420811417 2.0915746810942624 0.5263341276912612 -1.3131302615921643
Ni 4.933364392478552 0.5194751422568997 10.601342262228464 -0.33384283309463797 -0.3712492987675542 -0.10018663422393068
Ni 8.535158917024347 7.775942644342505 5.0631741222132 -0.29164845911477516 -0.7423358467049989 -0.7944091703614706
Ni 7.514154308228681 6.440232027895808 6.850312060239109 -0.37275930765417736 -0.0440126581355242 0.7486355636707817
Ni 2.4958589682571177 5.590959035331449 2.836095335468117 -1.026382067992484 -0.02677495410099905 -0.0333081272338265
Ni 3.6918603650197546 4.676619743431269 9.477803964459811 0.0780034132586721 0.2591062635126957 0.9074513203918307
Ni 1.2385854381978683 3.749903808946465 4.257046999516799 0.6438389414786654 -0.396378232624698 -1.8028413387437532
Ni 0.6587775835627172 0.24289411888588971 0.800635614590135 -0.49697212958937637 0.26982005038577406 -0.7229466435451098
Ni 1.332217429925023 3.977508168341667 8.530939731424018 -0.28125965968128336 -0.7223776584155172 -0.21982880606931174
Ni 5.634117674027425 3.621832463940357 4.593211934708803 0.8504113967587031 -1.996071825499246 0.453757027654483
Ni 4.382015519314883 7.454405313702616 6.3316267612009485 -0.14870206532581487 0.08465202892344131 -0.043353941505602754
Ni 8.274337363603207 7.249356176939525 0.7531930340946023 -1.3843230796869062 1.3273183801670883 0.9046333913270614
P 0.2298462007712523 5.852118050635885 7.990669640683005 0.4411028292255822 0.13456356904190372 0.7315084170721918
P -0.19116577247251257 2.0270332064461956 8.327702856180135 0.05993112913799356 -0.26694221461734674 0.09378613001422557
P 2.1694603623794944 3.887478810233471 10.789641432811258 -1.081917639165943 -0.9192979353177716 0.48321467079396785
P 3.9583458057253855 6.487230435588194 4.098835748036743 0.4536703814779477 0.7753562674950776 0.41483823910209844
P 7.322530682065861 4.022883110757661 10.64271052882469 -0.43472546494432873 1.3426868922033584 -1.2118215979486484
P 6.307937849052795 7.886776071526255 10.385743337346263 -3.552064635051734 2.461765456690315 -0.621420207463833
P 2.84271506073556 9.036672878557667 6.15118954043978 -0.9118214244350684 0.5748328466225971 0.09778933763634771
P 7.256734735414809 3.9357358595446317 1.5258202244304104 -0.38331497168283657 1.2210595716071486 0.6512838277924848
Ni 3.039765438805419 2.0673553412042076 0.6259133564255212 -0.9701602693852777 -0.8894947359134101 -0.25700592934024125
Ni 1.7584956326664751 1.5367193312016894 7.269427862522415 -0.7434843584871453 0.09560235728735793 0.3105661219548845
Ni 7.184134827549219 1.1658031185034698 9.301692640218825 -0.6521106945691544 0.2513345899870768 0.7018558843130815
Ni 2.7922234665215013 2.0614451979508277 9.385696935621493 0.03396195876774152 -0.9284939999947428 1.6222907614487738
Ni 6.817404966322143 2.1215772573173903 2.7456436939762305 -0.2114344113580294 1.6251110045063883 -0.6329765448428647
Ni 3.8380360840350582 7.022408500128033 10.805794000252208 1.7608608805469093 1.6021852489481503 -1.6892937098318843
Ni 7.427773186696645 6.879251696879501 11.51040255580294 2.6473366271283374 -3.851969163527715 4.259408539062581
Ni 7.740965176168568 4.311039076725684 8.312551729679342 1.3344691322792566 -0.6044961780149848 0.06444315807573417
Ni 2.7865595792370126 8.539846901024713 12.652361712103769 0.5507459808767224 0.22542532632048273 -0.06228394564088628
Ni 0.12811238766758976 5.251052833530592 10.349327551902173 -0.5045124038304796 -0.161630857572341 0.6244548805250988
Ni 8.458235848816008 2.489711689626288 6.197857782722021 2.0437251657111513 0.3111582470129286 -0.5751290377067773
Ni 4.012458274741283 2.6906109572839956 11.593886977493504 -0.9302544343292753 -0.09643616604256296 -0.45209609501229236
Ni 1.1925994161553672 3.9531561891957967 13.042470385370024 0.6774424884657236 0.12625736316905353 -0.7971566511996208
Ni 3.6338442828673654 8.91799574273517 8.39472734649821 -1.7894584896789438 -1.0418647370091152 0.09051234435896026
Ni 5.546906578674313 8.134874399888039 3.5615152565675547 0.9535925948345835 0.33242358414960815 2.980344880136822
Ni 3.3015993778764448 9.024670180222099 3.7832268018331137 -0.4726862604588181 0.021239626105066647 0.48181264824011866
Ni 3.849473305701321 3.1644895267529 7.6429571246683095 -0.4365625181530675 -0.31399211691729795 -2.0031526436054277
Ni 5.320378449069078 4.502015140896236 11.616139396489794 0.5632610826245976 1.976804492629202 0.44992814082669613
Ni 7.652230942044909 9.084866083728745 2.694610336630612 2.1130446780425802 -0.5126154925535882 0.03133737666070087
Ni 4.728862491201885 0.6117983291123568 1.9039544731945632 -0.2380646123510481 0.42182212661909935 -0.740452513639357
Ni 6.079375827556351 5.62581793581666 0.44388824069457816 -0.18404033561579272 0.9619006004796465 -0.0185304547040197
Ni 7.621804648999732 0.11362524022365714 11.650779402780435 -0.4125409584274895 -0.47712604139772674 -0.6454011437594627
Ni 0.22638037602390004 5.137127525848546 5.674167103101369 -0.6947694097799454 1.035113534328211 2.128793970457037
Ni 7.275933580396853 6.408911916889473 2.9030532454686755 0.7310623306737087 1.209665470837594 -0.3705005935269877
P 8.840115012425589 2.1051784339075494 3.9384218737238297 -0.8750117118058865 -0.5794657174089182 -0.17454242342768653
P 2.013972519503542 3.6798850284585085 1.8214049121266396 -0.855545632661475 -0.8386182607785171 0.12218524998220892
P 4.9859081197667 1.4077906506001836 8.396809577524053 0.48708726637549654 0.5660594713053413 0.8678434761922215
P 8.728679626206773 1.5495520033583332 12.611860813753527 1.3203568612475904 1.2366162883948253 0.3411141699450706
P 6.279809945050599 8.033015634681641 1.5467383008989697 0.6049792882989904 -1.0048735044967467 -0.8829420223965568
P 1.9265334093644193 3.5485576323081776 6.280887998958854 0.2583716993395163 0.0639119681626125 0.6171856005571952
P 7.021815661684405 4.207803102211787 6.15323255292243 0.9293838587988639 3.180521459192845 -1.8467699218059035
P 2.3293534509211606 9.155796923360741 10.39336632767215 0.5089308446131493 -0.3565032508066312 0.29342817672301724
