# total energy = -340891.30316148576 ev
CRYSTAL
PRIMVEC
9.04065109856860 0.00000000000000 0.00000000000000

0.00000000000000 9.04065109856860 0.00000000000000

0.00000000000000 0.00000000000000 13.23190672577561

PRIMCOORD
 96 1
Ni 6.500969607623006 1.97261586657112 11.68873579652169 1.3794734649040887 -0.0840997559643971 -1.33131695980352
Ni 4.161963266407635 0.5659257850996467 5.98562536240016 1.5161324830224405 0.24480270240583002 0.8008078747989628
Ni 2.5816664623673526 1.8444284719951376 4.782937577184209 -0.7813505374052995 -0.7057223092470233 -0.5308554126003826
Ni 3.1900028467120376 4.150752858813712 4.468124018123284 -0.4518343567104734 0.992873137601761 0.4852993212371383
Ni 5.0975079427255565 4.521781187567385 2.784006182851486 -1.006671476937434 -0.5823710639811712 0.5457438996764408
Ni 6.9558861396540985 5.932827958893303 2.7107280879226354 0.9970282974207152 0.7148720940670915 -0.9249854726208522
Ni 5.000980908951118 4.764585959139933 11.453207845168778 1.2797771400530151 -0.3506483346877509 -1.1587211185792432
Ni 5.901185679394329 7.87918977413156 12.730483715684837 -1.5681628692561187 0.016005888509953083 -0.8005523071447309
Ni 2.0370305069797436 6.537575204677674 0.5329310241683748 -0.4308505553699547 0.42234251789894356 -1.6652734356578869
Ni 2.7522816334258153 1.4144731781630924 0.3205923433625663 1.176704442530541 -0.4378084747450267 1.344639387944039
Ni 0.1605845684572881 -0.2595589065346901 4.896242251614131 1.5310171134437567 1.630527547536269 -0.4392413505368113
Ni 8.599802006789886 2.40599756724034 1.1923841549459573 0.8443142827220298 0.0507368642332352 0.7988803187589467
Ni 6.81209458095948 0.8568765450927037 5.066735373880241 0.1157682907122716 -0.46538535592203073 -0.9483652849973732
Ni 0.8806010221959051 7.612635211632212 2.572070715093007 -0.21275904370672388 -1.1789225332277824 -0.05118475040393121
Ni 7.616387081915661 3.905353420322249 3.925880219065797 -0.27077418676892717 0.31742736785109205 -0.5672519489515456
Ni 7.546068896217658 3.9036085746241627 12.649491233014137 1.2285453384612326 0.48005761322222484 0.10971668520155298
Ni 7.895345417978607 8.776257438578732 7.05146842536921 -0.750291868327282 0.9574196818901575 0.7949208198905665
Ni 7.020861300442418 0.8099872072008684 0.5668822860056443 -0.006215127671776393 -0.3861480702562576 -0.9230473750578748
Ni 1.7311310300862432 6.450260594563081 8.880303582027254 0.33741229561345115 -0.3949142464846618 0.143993604106552
Ni 0.24741007933734152 4.839994031511629 1.5102498378808409 -1.466323015699481 -0.13095939663041317 -0.6857492085592062
Ni 6.308638792176962 2.04683057297314 6.978944320757565 -0.4694356147320044 -0.8568952047108338 1.01417704128586
Ni 3.5240187491031967 4.285729782505046 0.10571775987119741 -0.8151528306667252 -0.9539828882944668 1.1669753881682352
Ni 5.6794094627116705 5.816755037039784 5.300596229136122 -1.2459897591899252 -0.9482459858106894 -3.4160033984183813
Ni 5.447733732871475 2.7570550973045176 9.573337307939402 -0.6456371710296687 0.930805421736739 -0.44764500121947426
P 0.38285711689551694 5.418017112096297 12.605019365276021 0.35486262987941464 0.3489493497187732 -1.1493839003387172
P 4.146087882750435 6.23051852441964 12.763312128632458 -0.8140930219436431 1.0730331921921197 -0.715780979034606
P 2.5637569321709344 8.58765137146228 1.513372478834825 0.42229366693887915 -1.0439861542274922 -1.6000005825920056
P 6.2258987516127915 7.853423917968111 5.885512806325924 -0.3861735241775543 1.022261360955891 -0.07920000466993457
P 4.897085744379061 0.996704682263794 12.5912052501119 -0.9357568522047433 -1.6710067385972385 1.001201197851482
P 4.00538822679543 6.139687100955017 8.049789576082837 -0.17493503088041487 0.6938150162864761 0.21813470619634046
P 4.6926585375131245 1.0027076747173134 3.8385628967558163 0.5310361611526209 -0.20040000792073875 -0.064206873695212
P 0.19775882247781015 5.7587230964386675 3.519912485289358 -0.5251892154535407 -0.9150422453652112 -0.22907346459603128
Ni 1.3417049759667397 0.9705591187463569 2.472209489124505 -0.38035434639261595 2.1090949493662126 0.7342186169145033
Ni 1.8075154927967643 6.6022881865787175 4.707065719401571 0.9770608531598528 0.1256220435778998 -0.05251092541452247
Ni 6.1426614752279205 5.552858426018349 8.918861055694446 -0.9036178055783534 0.7086880767435666 2.0964734039474604
Ni 8.806073506518048 2.398457664068299 10.34847642069549 0.11279275302371541 -0.3653355043862805 -0.03362951512898724
Ni 2.3710735313247593 5.1741003404156425 6.819711329667447 0.8221002085188357 1.4847699095507592 -0.2851649082729605
Ni 0.6285458562281143 9.219023335282218 9.091312383028978 0.0009999020194240843 -0.8569810795564209 0.6872101093754488
Ni 1.9406390829745863 1.1708547479748561 11.511652943533639 -1.4547617932244432 -0.641556830312708 -2.6457751961784886
Ni 4.1573254122982135 6.9405441544227395 1.7227946455359568 0.8272375297454012 0.3086545067544684 0.05919116564817548
Ni 5.519615951241857 7.8787377415672895 7.944066391820869 -0.21778966415209586 0.5175466113066183 0.7278224835801723
Ni 4.985069362688777 2.761747195321651 4.973886981113839 0.14794358989323553 0.7341666806306453 -0.026341466108006244
Ni 0.5079941957277984 7.318416256199475 6.672546703978237 1.173514989058966 -0.7197605325076443 1.2516862953540702
Ni 4.986488744940589 4.45205968485422 7.143721039215902 -0.07011655431142763 -0.6679350631959207 0.01949693238234707
Ni 8.268670072158777 7.096630998865531 9.130320081130183 -0.2652414298761561 0.7862315196466846 0.07965226171600476
Ni 4.521564211936536 0.19711151184577402 10.569766250338994 0.8798345871158266 0.9249047399815878 -1.056336448262729
Ni 7.795617993649129 7.028609138594025 4.665676713751786 0.5602922298042609 -0.4769604623541399 -0.39379247417539276
Ni 7.215651173038096 6.098552137606353 6.886043492213708 0.537710487849003 0.022477098056593547 0.9440656291807547
Ni 2.4125791613761267 5.137946775925244 2.2523480823840982 1.107311910869332 -0.6755090188884366 1.7672809251406403
Ni 2.4350270985178266 5.210407595977893 11.335337641839718 -0.17263209377885108 -0.19703186277945423 0.35486262987941464
Ni 0.8921748639715009 3.469666353575246 3.510146773770847 0.5168146182366002 -0.29526291593891085 0.36336526803378716
Ni 3.831771559510208 2.360631579090098 2.379334878469377 -1.6531985067712238 1.0904549872129927 1.3921572310193444
Ni 1.2016291249504287 3.6937750582895443 8.251165563139944 -0.8952447510233098 -1.3470130303825383 0.28876728091223813
Ni 3.4281878454777357 2.7222305085530762 7.100254491900727 0.41977167184797387 -0.05726772337321749 -0.546154504851298
Ni 3.9418324482589218 7.209612017979435 5.9916455320911215 -0.18762445342262524 -0.5685799237343497 -0.43645298915839664
Ni 1.002355089317182 7.183330844692716 11.121854414581174 -0.2434922111245226 -0.1449521113650794 0.7513781594129253
P -0.12511176500868226 5.421705697820748 7.967870426655383 0.8772015203683539 0.5818072210579013 0.32601588085105143
P 8.589278688693657 1.749573958708502 7.993315339698198 -2.02051736013612 -0.07487283804949041 1.0166704971316747
P 1.8958336152040407 3.241489355782509 10.369752689430598 0.6948635121556485 -0.4023331646565522 0.5624113330297927
P 3.788503002458184 6.177739202215354 3.739773892029765 0.62619680291687 -0.04293870834505508 0.9201088612548411
P 7.113636463933408 3.853532407154216 10.462680639928312 -0.7113118875196588 1.3120447418374694 -0.2081955927057576
P 6.277584155011542 7.762149502590502 10.07683829997835 0.7507274132028039 -0.506982719747843 0.7540839883798627
P 2.209571336762001 8.668664647630937 5.893293190822156 -0.9106466874006769 -0.672034687186591 -0.7868077038651288
P 6.9078441187233715 3.794361344491137 1.5968393877623448 0.6950761423870869 0.3886957763787758 0.9180226681497737
Ni 5.260040771534853 2.6741161624120666 0.6504902290932163 0.556853379326041 0.6720220887811007 -0.631677623525783
Ni 1.2947387925389784 1.3163007458547071 6.992070442358867 1.0469740332112227 -0.3477206195179947 -0.9277532651739765
Ni 6.987401850035075 0.7915804411837515 9.329539872855717 -0.3197681001691267 -0.6447627388445154 -0.23984612973150307
Ni 2.791933929963671 1.5892470488128483 9.03412393519279 -0.07041685916066583 -0.231992180904723 1.3361981991552214
Ni 6.425633860461594 2.0794854054160803 2.877450354537596 0.36500614607131976 -0.5670822561429009 -0.3822561914010191
Ni 4.140663491979183 6.831233639730716 10.33474095919755 0.3904896350544049 -0.3873696013681845 -0.7117466610642322
Ni 7.982650987441917 6.937714430570403 0.15025110403805203 0.8907507198076982 -0.8090816847719807 0.6862945395397149
Ni 7.409790118741224 3.689191448087836 8.160712038899053 1.5075090030194875 0.3768633025202219 0.4732089657315075
Ni 3.1646347792051466 8.22542863706061 12.272157049988884 0.3779429087376459 -0.43937324812898526 1.0088216905112175
Ni 0.2698742896513553 4.902690948176023 10.146094209150315 -0.7015105851585208 -0.33957047960703457 0.7720284886734252
Ni 8.582443956321878 2.7652640086716795 5.901986681098218 -0.7666415133298992 -0.9660287637154072 0.14506652545575663
Ni 3.984911151633952 2.6260198975736277 11.549761096831944 -1.067061547989717 0.22006586178078227 -0.45232620874522744
Ni 1.2724987903768428 3.157149119940818 12.68298142163585 -1.0184815821984847 1.2004195267592939 -0.9367495551353158
Ni 2.984318989317427 8.255841387984765 7.944965936623769 0.23423521130262884 0.7927479806089638 0.2273217720122472
Ni 5.849427950785295 8.093507453503747 3.639277108275899 -0.988362394215601 -0.35632481624723794 -0.11926833344573008
Ni 3.0323790915507245 8.618272057366001 3.665728245806783 0.6637063698265537 -0.8484871831527967 0.7897323337110915
Ni 3.429525861867978 4.3392323568121665 9.134342266887067 0.4583053091467978 -0.21527383970877761 0.5302823137057319
Ni 7.3183077683840505 6.069839029123856 11.201828015852007 -0.4648253696535027 -0.8163869601841424 0.25308294013675126
Ni 0.6714717725964212 8.666612419789146 0.15441613208524546 0.1315404659448638 0.6071433858298446 0.004994882111430107
Ni 4.8640783265359895 0.3407466672731551 1.6316531277322432 -0.37241272294803607 -0.893203552223565 -0.330343818802444
Ni 5.8200458341076775 5.283519342923091 0.5524452699679557 0.22680883693157067 1.0800201650329142 -0.5416057091383512
Ni 8.0936611445756 8.385556652627983 11.380181080345661 -0.766801435946531 1.696705171804607 -0.23063129600145443
Ni 0.12264728346827654 5.138010060484242 5.737659283008766 -0.1030521286971838 -0.6729708258476153 -0.7037795836983557
Ni 8.09509860812998 -0.0005948748545806929 2.590754125039458 -0.06796891184080553 0.35812278868792513 0.537776565200248
P 8.689159804094986 1.6452990867824577 3.890564722949557 -0.8564624880487895 0.5960642451975476 -0.2705250468725986
P 1.8502235294690925 3.0705396806264864 1.5162175717943471 0.42812827134278525 0.3541018404539902 0.6405379021298904
P 4.8277077864147415 1.1010337980975509 8.375413041885741 -0.18422108416803112 -0.5157159858557828 -1.0895903252198524
P 8.721434929183939 1.330349917952251 12.34001075414648 -0.007031452925484664 0.06942981265704817 0.352500043184509
P 6.6577525822147745 7.874244537878435 1.5575939205323326 -1.120895305980721 -0.7334082051980659 0.2914088323001433
P 1.6079702376249547 3.3758605558377193 6.048305101827112 0.989736134634676 -0.3870757242768495 -1.5806237207272908
P 6.609258528719778 3.910515632206224 5.831645893772 0.944582163805857 0.2522679004346236 0.33754445031594127
P 2.4916939007748446 8.349565819860722 10.074112543615794 -0.7343255748060128 0.9246118913315174 0.5214917119972954
