# total energy = -340856.89671316143 ev
CRYSTAL
PRIMVEC
9.31512417496109 0.00000000000000 0.00000000000000

0.00000000000000 9.31512417496109 0.00000000000000

0.00000000000000 0.00000000000000 13.63362581723756

PRIMCOORD
 96 1
Ni 1.3455510879838573 6.650980184691365 5.0763580782791635 0.33331935649100014 0.305524445765919 -0.1035817759484087
Ni 0.5440964156591791 9.146073513230549 12.779220739414043 0.3247107888863827 2.141694737679105 0.6986517755534871
Ni 3.997669468376608 0.46438037566112134 7.9051722587012625 -2.3256643679579625 -0.7415444611519552 -0.5108188056644816
Ni 2.7103192775856724 7.133280065142822 0.5471014747876101 -0.426720078141349 2.064786614367141 0.24929570518017707
Ni 0.9917812938748981 1.082939101162019 2.7041340349902656 0.34486155280264474 -0.27241815013025344 2.474899680079428
Ni 0.0719379111318463 4.20548057840812 1.1311327602220411 1.1317859847512959 0.46793640447865864 1.3156239745482954
Ni 7.030655339730783 4.747313418840365 7.38380847260508 -0.7039531331617426 -1.2183956516217402 -0.9990473847332728
Ni 4.079623932765744 0.07308460294433809 10.271001469095964 2.0705643973911827 -0.12664354286387866 0.04121966877141933
Ni 8.024765414703351 0.6189620703870139 2.2459631212479665 0.48327637726983863 -0.17631339928518022 -1.1367777815389326
Ni 7.669933696413855 6.377702380442206 9.39564059985569 -2.0472650605436096 1.479713063853142 0.8367403270295137
Ni 8.678947970411496 1.1941337410134762 4.4478610465658575 -0.4562576825891497 0.8726547815379357 1.7310054877483736
Ni 0.3676716857495988 7.062075254300522 12.973581741337865 1.364579835621708 -0.08306797226577306 3.2532386843519134
Ni 1.2785194528685784 8.67208272373557 7.121265417703732 0.9037224494770177 0.8859268160564936 -0.6046802690013328
Ni 5.454862322182675 2.8882660988206883 11.51215236895892 0.06752565365579984 -0.5786781885106163 -0.2766177900338978
Ni 8.885734416760034 0.5216981990618071 10.730359129685635 -0.2971968997368301 -0.7594115712403631 -0.8655194560447352
Ni 1.3790482752927158 4.668609932863574 3.4001852802971677 0.9684047201467515 0.5740771994034951 0.0189459449748835
Ni 2.13334978795181 0.8166141057580587 11.078234313080177 -0.13112111901925805 1.510740879693224 -2.1265676522296797
Ni 8.96280775596846 8.343528971352162 3.912523642371227 1.091140957536424 -0.9452493650762109 0.4991033169997663
Ni 2.224274717129164 2.9381951655546925 1.3909297164530183 -0.2628294780005538 -3.0283882566982943 0.3410020698472385
Ni 9.013277099917122 5.698657757735354 6.908417619914184 1.6009277223919653 1.5631319917004305 1.2596256048058048
Ni 5.936053702831642 4.43652360866997 9.358066182601034 -0.9848944902716587 -0.007539502910154758 -0.11353323073416575
Ni 4.729195501900508 3.62549298847168 0.7022122685788927 0.1277617156287219 -0.4718506519314003 0.1775099906964427
Ni 8.697755206556264 3.448365898183043 12.917506555530895 -0.4507017857679271 -0.27960232658351847 -3.42763095535498
Ni 5.959518501171747 5.395599500809217 11.50165422377063 0.151425634904565 0.4097315140031524 -0.729631254654137
P 6.394749058077136 0.8984893915898743 10.020701282181276 -0.24141604532178423 1.034614226094289 -0.8002044368870089
P 3.2673544010234954 8.795610588280278 12.706744414092416 -0.23458282445003467 -1.3156728255083598 -0.052640766124167404
P 4.182751674894879 2.263258512704128 6.630973160525078 -0.18674307925893646 -1.076408793532572 -1.0163678782895915
P 5.463422921497703 5.441597585050357 13.512300535686308 0.576718236570768 1.2188617926248815 0.41345112894658476
P 7.4309541801711525 5.939574819851318 5.300903809278519 -1.1532930055851363 0.7854313923428925 0.8406838850582942
P 7.472238811470612 8.478765947255946 0.44792613993743746 -0.005815578240512565 0.029438616976091236 0.46282222318054483
P 7.074687932725493 4.388159482833598 2.756377910135352 -0.2353500416333624 -0.541771288181938 -0.3205363457937189
P 3.5062221357735095 5.750058614123086 5.226477828421923 -0.2494522853626994 -0.6586508096805173 -0.9246242326266915
Ni 3.0302285945345364 1.1087140503510098 4.123926664367783 -0.7963611518815188 1.0918282134114357 0.6794662037639718
Ni 3.3679297990695862 7.283290828330212 9.265276365520668 0.8336089804893838 -0.7963423828284415 -1.0049442098336823
Ni 5.760184154335746 6.031785236194584 2.001702860988192 -1.1037290786140797 -0.9678313641417848 -0.3837610580813197
Ni 4.043863170229953 8.446675343730078 5.5739170639949815 -0.5366511933465532 -0.14677219529295368 1.1707798495159902
Ni 8.239227523549802 0.3431896758260334 6.576138749286946 -0.22540578593645694 0.7598566291975816 0.44160162323887175
Ni 2.9776540324735814 6.835922664343776 6.906835911792648 -0.11937220601344603 -0.1409897842832217 0.830648355199163
Ni 0.13810510270367102 8.290004266603358 1.4894464720087703 1.120444848706864 -0.7815418274804992 -0.059805145083090545
Ni 6.600473580245138 2.1143096736972753 3.1916177821651326 -1.5662995907951347 0.9676619284434561 1.4448093099974213
Ni 3.504135547909999 2.386087742919535 10.340737284821856 0.7481305990099051 0.14283609346334109 1.3665377306790272
Ni 5.7268360090171395 9.213645425560488 12.473786194255846 -0.2576276220846402 3.9371981480005482 -2.127478594079723
Ni 3.3896619842730247 6.063568440615558 3.026214707434596 0.3991663368927964 0.09497577944695257 0.4823469234770338
Ni 0.5893800298595553 6.212843308976084 11.011456980860762 1.1570483588625105 -2.7446299989648733 -4.663731994676284
Ni 8.688067477189964 5.872179894884801 3.530086552949973 -0.5051639213715493 0.34743445573614357 -0.08393469114144253
Ni 1.548686005571252 4.328719674096717 7.0990423254449055 -0.0649648349071591 -0.11713997424881761 -1.3109124280052389
Ni 5.196339674968342 7.701437447103109 0.04389752369104403 -0.8015336972213938 -4.0226338491675495 3.634692948676927
Ni 7.739191646258504 1.096567128145573 12.717637520554868 0.85184478677112 0.3412139287477285 0.6705817567901483
Ni 3.1399421296078773 3.3022954326129077 8.514608682886374 0.07202971217374046 -3.121073697449173 -0.6618119810173182
Ni 1.0186461126175976 3.0607822025359424 10.502772942085164 0.1675377099750792 0.7914421173133466 -0.934482356367694
Ni 1.9946289555259153 1.8615437733563776 6.9587118395243035 -0.4513414762344549 -0.36290941144329114 -0.38653810660582466
Ni 5.810169111816095 0.3949249451793892 1.6571401358269735 -0.5477334193026439 0.12540170003697756 -2.005829161996326
Ni 3.5367943740236965 1.5110808484061071 13.04811670914983 1.6854054305210715 1.3672632959911422 -0.44249045360172823
Ni 8.88261385008916 3.1018805313475895 3.217917172857318 -1.3263069081834384 0.17933110306558148 -1.7501080129057796
Ni 2.7632943899954268 3.854235183009033 12.227017370997663 0.13679065860020956 -0.48288145582426506 1.1254194191033198
Ni 8.913754310927178 2.105190166918807 8.932029653469238 -0.4855752006063444 -0.18724598703728398 -1.3861578189027999
P 6.698487319083794 8.975783724244666 4.940825812932196 1.7217176346885443 0.1476453419265264 1.106736497981836
P 1.2261311932954362 2.9493546845747187 4.555431171516903 1.3798843271892622 -1.8028151134915078 1.2728127929200401
P 4.429844664481857 8.021151146439768 2.179934725029563 -0.6473340991161175 -1.6255390931827423 -0.018849528606335278
P 8.463554349125976 7.582511254007392 11.264169784992632 -0.7955831360649137 1.7238619347250572 -0.6029409177127228
P 7.917427236349631 2.652500300492768 6.96297909800767 0.1599987212855567 0.1159438970581874 0.11398600200086821
P 4.159026053071837 1.9381886168428308 2.0490795836391524 0.01016177102435024 0.6254164731074197 1.7370231546973631
P 0.965847987571266 6.1004842785757925 1.909130086306128 0.9539664332342345 2.1058075368641926 -0.8564833139843959
P 1.1556715924043897 5.13425437090451 12.701658356175109 0.052380827594561405 -2.086713753457535 1.6584103899894664
Ni 2.7640861755686337 0.48621223269554037 1.3532071887205512 0.3896139173176709 -1.3363588931028019 -0.5889605442732309
Ni 1.2972614831426112 2.040748136384135 12.429872834853338 -2.386945069145315 1.7791866754392909 4.331572205711024
Ni 4.235596375563165 7.244800734347954 11.481994653744119 0.38066802097829283 -0.7586921765758352 0.054200397301803434
Ni 8.179042504861668 6.243247874987239 1.183782774790561 -1.3497031756201916 1.109713835442605 1.3960750780165119
Ni 4.200152327256656 4.3181470079133035 7.040731509784174 1.674657705086264 2.1333183406899514 -2.5064892819602513
Ni 6.395531528525954 3.057615060243114 5.432781751327025 0.0353791508302423 -1.1328501643497522 0.8385454985590527
Ni 6.991168527438723 7.60324672090103 3.145277832858854 -1.1848337565058948 0.7245422701670038 0.3174489651176468
Ni 6.136477919221352 9.149566684877051 7.684211919079877 0.06228934495752498 -0.1283687530851015 0.8353359904828195
Ni 2.2405482394396685 8.1785115427714 3.0230382500173767 -0.06700037727994912 -0.16538235419497324 0.5854715572833659
Ni 5.427112566622862 4.946340366571473 4.672884643446453 0.5955124864591356 1.2150534746223847 -0.706009501470139
Ni 2.1509926335477436 4.928455327741383 9.244035087372618 -1.1300556323237505 3.38728134789334 2.476754731010296
Ni 5.46878843314673 2.219850033043594 8.34300173531165 1.5715263864117128 0.49891536935867625 0.636472216700949
Ni 7.868494887925429 5.856847200137755 12.686389004273918 -1.301578809309139 -1.569563092037755 -1.4216920072536678
Ni 1.9925237374136233 8.124949577525033 10.949655788090846 -0.8833197174509496 -3.657047405112728 0.15424356396933436
Ni 6.571624640007225 8.226568269502877 10.626239326808893 -0.4793166212911422 -1.0654813479867908 -1.3010458196238044
Ni 8.96932834304193 8.092886919372337 8.675062632028146 1.5898532097453588 1.3451602934445157 2.299916312459581
Ni 5.012365968252561 0.02171821251685287 3.7835492245952933 0.5524555073686614 0.4923022349175328 -0.7679923709308387
Ni 8.744610282241347 4.603133923521537 9.198934981122738 1.4790762016000916 -3.0420017337166705 -0.13007056626755664
Ni 5.3207711065789445 6.4852361764081286 6.86706685123155 0.14199714250181353 0.03151015479313928 -2.5729787810420524
Ni 2.717380141873802 4.917733619567719 0.9754574698926837 -0.2841670631360655 1.7292381114353055 -0.8405134209187008
Ni 7.6197996969432555 7.477799940731844 7.107713774740183 -1.8830319894617311 -1.1207454106664183 -2.0023532876325834
Ni 7.23104229562293 2.6946698686093424 1.022351669100207 1.0576759930097592 0.897140939604758 1.1407470505993256
Ni 3.489874092467879 3.655310701646222 3.7409986678911404 0.37562763034090796 -0.6252946028175747 -0.27796864763483736
Ni 8.804152557346525 4.217226950264758 5.291973399525181 0.1733293769561918 -1.8318801491782644 0.44822452787202804
P 1.3490722050035318 9.163334438726466 4.976546520433107 0.4591185490767125 -0.31414689732760737 0.03583757852389957
P 1.4722554099457843 0.8318601698482722 8.995943516450959 -0.5894783644499137 0.0008214674600308433 -0.8437036457212244
P 0.4700579439772362 1.5640000700695176 0.8396895318986325 -1.1702131783792427 0.7618183809096428 -2.431106079933245
P 5.8370153003100125 1.9019620980875056 13.39991821747504 -1.1442051843512553 -0.19202566781411443 -0.38484554939475013
P 4.036215453105211 4.676881763322491 10.851003031718989 0.040463250221369026 0.8405324470820943 -1.9218132239949872
P 1.2803079567515874 6.687057661456439 8.156862262175038 -0.7433182652229263 -0.705995617513068 0.9663146703869421
P 7.409901999048232 3.5727228087985203 10.784266686046895 1.4799971707524642 1.0995435797778226 0.40015029807262054
P 5.642813587013273 6.976189807418521 8.757723182846096 0.17132263093880817 1.059039191905873 2.1195991913316465
