# total energy = -340870.5256251123 ev
CRYSTAL
PRIMVEC
9.24242476743176 0.00000000000000 0.00000000000000

0.00000000000000 9.24242476743176 0.00000000000000

0.00000000000000 0.00000000000000 13.52722288574620

PRIMCOORD
 96 1
Ni 0.6453782021410189 4.011156981316745 3.8797833043446377 0.4361313441529198 -0.5778420657625661 -0.5196798555995372
Ni 8.935299185766599 8.245795798346053 2.1439431378758464 -0.20054578946998364 -0.15188303415695778 0.1745928170496477
Ni 1.026241898684051 8.24537988922252 5.999309803941515 -0.12552022789271286 0.49921593131823055 1.323866931283378
Ni 7.547567561756251 1.1311526644893994 6.997605382251535 -0.7548735741606935 -2.15342950961753 0.7202279590623661
Ni 1.9796257613498163 1.364671773716598 9.82368569484888 0.37645655400010647 0.5714927265057705 0.08187909416399447
Ni 7.99331123308568 6.659814158784239 9.703889079390983 1.669248361145235 -0.16751688403947282 0.5160489437151693
Ni 8.3799680815983 7.277522389057752 4.285627427089652 -0.12364332258497417 0.08811839020548697 0.7320318936758295
Ni 1.025964625935028 5.722493630711874 9.229813678566382 1.7055456529143722 -1.0655919054227259 -1.3596942253946322
Ni 0.8364496262202815 6.017742896296568 2.4017448702199857 -3.8495741809329767 1.3877943260649583 2.996239182769575
Ni 5.496368461458623 4.610149301031203 5.309530068014445 0.9538394207380668 -0.09324157036466521 -0.0059143086019059436
Ni 1.8135578695349543 0.9335773459605533 12.43875497574222 -0.562989831241082 -0.13478314125187754 -0.5535597961764337
Ni 4.8305164395297435 1.12686417930451 2.8312616160340895 0.31961074865565603 0.3156121690192242 -0.5040560330193512
Ni 8.13456321386298 5.436523759794485 12.830584809509114 -0.33109483803585554 0.09523211843213276 0.10581683592651454
Ni 0.03508147244889092 2.476905194297659 12.736083786944587 -0.3578091141022483 0.2925270050649865 -0.6858607944364059
Ni 5.276287838134073 8.684080832726764 0.9570364690128955 0.8340846345742216 0.44797770196854464 0.8251914458496499
Ni 2.9774934153838437 5.366734208865387 5.015123711586782 -0.31144441079477975 -0.9013256671100671 -0.05670156645710235
Ni 7.562078168955124 4.8709150790623985 3.4581937864251024 -0.11139227313176299 1.096179805511912 -1.46730466288646
Ni 5.585400741169919 8.746494928531847 10.703699491153165 -0.880421055746916 1.5552947550441987 0.6225224393890763
Ni 3.8603575755480843 3.5194045184994276 1.1533714541111117 2.0409303765748334 -1.2894064356126633 1.1873693784435548
Ni 8.609309614740217 8.912294790022655 11.264240550275606 0.3104946452870007 0.11342884394581756 -0.9239963692347055
Ni 7.993117142161363 0.9437532558496986 1.082287039444077 -2.79133151678647 1.0507129314283647 0.014128468981582121
Ni 2.739399305797765 5.960227285724223 12.564841985632956 0.30453688504166904 0.9114162185768497 0.7533203707409606
Ni 2.019211067485338 1.444720416359548 3.872613955297399 -0.17586319912163906 0.8952447510233098 0.18368243805574175
Ni 2.715313546332631 1.1064476625514472 1.4028679433795144 0.7155148698574129 1.6833328642627592 -0.7575945726362824
P 6.946125999425423 7.361905729010428 11.575407120139216 0.8826401748854218 -0.2619290776734715 0.02462936851290597
P 9.008397524834038 0.19853098527047885 4.445438197201561 0.9465670554463697 -1.13417325403655 -0.8240336780961227
P 7.404578005085073 3.1040129707630535 4.688684034464488 -0.3826904507249603 4.498243968141383 3.3042730252209096
P 3.6691780150967026 0.08373359747746585 4.2727222291076234 -0.1667758921083902 -0.2903793625943644 0.4290582393562224
P 6.951948727154906 8.081705785474224 6.192424728181079 -0.14141015965009193 1.0904053649219803 0.5837514892684657
P 1.9507154560516815 7.917819105951676 11.171795043023836 1.6145882505981934 2.3262163838066905 0.6323890477705109
P 4.590111723701805 4.397055950982034 12.916198316224957 1.4744569576605253 1.7941402114253293 -1.2316327191373047
P 3.775216356748078 7.2594534482464175 0.5593506347866359 -0.599898017121341 -1.1558381406044933 1.2526643429966233
Ni 5.217884954764855 2.8303817371771895 11.487642901133452 0.2764226433039562 0.32576468407219383 -0.611002868785251
Ni 2.3869856417894897 6.7871378051356155 7.3994992925654675 -0.3996247645864537 -0.6475356736039622 0.5005413349978735
Ni 6.3543889833103995 4.758102039909894 0.834729610933842 0.034353023558573094 -2.2062780208771295 0.3695688257413377
Ni 6.46181368870689 6.138864875494796 7.484233844666908 -1.4433311827899982 -0.6039331064226632 -0.27447400421801765
Ni 4.049115620657998 5.091577975159897 10.73481226632104 -0.24052335830418575 -0.4972202410444405 -0.6802015392680995
Ni -0.029821608399923982 2.0081201575244165 5.512343068772337 0.6302432050721016 0.8643156655446211 -0.07233721611183026
Ni 9.085701167261659 4.497031261854773 10.733905584431733 -0.36139785989477113 -1.6983511920484622 0.38579197246841945
Ni 7.053837219995904 1.2049626702793308 12.456949613533112 0.6571315448225135 -0.001475556104261975 -1.4002855165534336
Ni 0.7200412837554447 4.601868088260383 6.211606456958491 -0.011395129210819085 1.4336486653949116 1.0394682117524807
Ni 5.97371198375171 6.632798550604428 2.138761834439103 2.367758211804219 -0.7684335722333153 0.286679545145274
Ni 3.992570464707234 4.059550318446232 6.91989137615536 -0.7221601430880724 -0.5238458140517688 -0.9175917512599423
Ni 4.6616111232498785 0.8492744151050935 8.687385923895118 -1.0976191090615999 0.2761652758775115 0.025511256897227032
Ni 2.2583772983676393 8.205230795163985 1.7282244082956255 -0.39886294671976474 -1.2255050089730122 -1.5885789710186256
Ni 0.5551601193064011 6.754502802575604 0.24849276191693923 1.9833011560971388 1.385732301329607 -0.6359569676274274
Ni 7.790125762601601 5.380496179641897 5.72261100950896 0.6476799124913104 -0.10607034669821733 -0.2556229329497856
Ni 6.546307937759175 1.5681714866495697 9.712992867983907 1.533948942378571 0.263111785127663 0.25726226832542143
Ni 4.052368954246535 2.7602317316743625 4.694393080366872 -1.7322064500350103 -1.1597719284412606 1.8295764407457524
Ni 4.0996994125047665 3.188488734965405 9.04365183062982 0.8135464054115537 -0.21627914104484042 0.850697046319922
Ni 3.566596340383148 7.4162973999437805 9.85006357570594 -1.123554340870123 -0.16054302382480093 0.05147477084052425
Ni 0.8229880342552132 8.073923663651643 9.236834224571643 0.675875658199236 1.546673074813459 -0.1771016995144305
Ni 4.490894291676397 7.981647292776778 7.777178973707219 0.9188760172890046 -1.371360348878651 -1.1596834824925124
Ni 2.6636206634897697 3.504967850700295 12.59341216969229 -0.7819938274162532 -1.2007388577719258 -1.3683277326999144
Ni 5.989849257744851 6.8384425061298435 4.865607154403602 -0.4976491010517429 0.48967662436922765 -1.4747752602318924
Ni 5.820472577791646 6.723707042584112 9.674778213471054 -2.6785621608015227 -1.690336806384418 0.42734511331985753
P 3.691239683493969 1.2967214653560202 11.351666496527562 0.8161841001447168 0.4877932913035857 -0.6828921987263852
P 4.273503214017371 5.709258478158508 8.125911379850965 0.36688973624727783 1.3111348284286903 1.482606840461169
P 8.478252028701998 0.6062291384639601 9.107175941673493 0.42602947983222755 -0.7059832762178938 -0.1918212651127922
P 2.688371877552559 9.005005554870989 7.97915461076306 -1.2782859002194693 -0.30244297862711783 0.1658808910979466
P 2.0546372823855146 3.3005438952705797 2.16561385169699 -0.6874584779408289 -0.9013452074940927 0.7131764515322234
P 2.002399096469575 3.048364330034131 5.549908905052474 0.3688908258377066 -0.07734906750412485 -0.39201147101557005
P 8.502605818491189 5.104850097413133 8.215677508104676 -0.37225511432424924 -0.7997820046376097 -1.037735288221774
P 7.566801048113482 3.0358223593533222 11.266431929235386 -0.7194681980782061 -0.3814864031145301 0.10721011672961538
Ni 7.641683175199637 1.5747336083764483 3.5723636135628265 -0.0493482114158247 -1.676372630894842 -3.0764223772883854
Ni 0.45487149022726664 2.0076395514261103 2.0098614303882814 1.592756499435083 -1.9517262095043355 2.2783139036984568
Ni 5.102641157845916 1.5129849671690188 13.562935154836188 -1.6978562546899145 0.5112286395083906 0.26239727555914166
Ni 7.663005449599507 3.366044961014788 7.069908872771776 -0.8988388961324714 1.1336037546863251 -0.6511280189409109
Ni 8.559437489615942 7.224286021245329 7.35811910750127 1.1701373308359846 0.13641424909739733 0.17631339928518022
Ni 7.7841089439478015 8.271462012480619 13.444788312234977 -0.41290991173113406 -1.5102672824909151 -0.20569339510919415
Ni 2.9764859910623933 1.7025933153759363 6.923219573386133 2.613908686487195 -1.0381446078450507 -1.0073541048267554
Ni 3.767415750075563 7.5085737708186455 5.593939817597332 -0.18131650892672643 1.0352965968732943 -1.2942912745087904
Ni 0.6110989721793013 6.524754602735118 11.374325225577726 -1.8024178780530893 -0.4950412311152506 1.2715611799011262
Ni 6.6053115787512775 8.442973692601301 8.431477964426806 1.9194326395779524 1.7713268130752398 -0.14156853960482715
Ni 0.9262573453863452 0.9670256819176986 7.570523896890365 -2.092744018812015 -0.606794230020542 0.7645375796130187
Ni 1.6007787619346785 8.278661861530251 3.8440178924481567 0.5406353748052818 -0.10830103580094896 -0.29129441820946606
Ni 5.526729827476645 3.431693905558475 3.286412227495372 2.4730659693047987 -0.6361192042369045 -2.649153625732418
Ni 8.973257825107853 2.7660821866787484 9.027649496041203 0.112288045473155 -0.5887795386106763 0.26569600091507145
Ni 5.6482492309484735 6.652494158210031 13.200283656691486 -0.539746030221793 0.18251078634514376 -0.5143005935654948
Ni 5.361179511459959 0.5659746807607962 5.67803849086101 -0.059822885694903426 -0.3965188719676203 0.06273517424569196
Ni 2.6854050591380125 5.331825569763388 2.0985323312833506 3.6704837331232913 0.3295146380329293 -0.7893633804074469
Ni 6.810484170603354 4.015186678602546 9.36484273461311 -0.45313404935850343 0.5316948777825423 -0.40293043192091904
Ni 8.801265538888865 3.689945743998528 1.1741234708904924 -1.6183680293556 3.3440783301433057 -0.28408273095237524
Ni 6.685332494119324 8.79637629608109 3.183807446719399 -0.426902112245168 -1.0225842915129484 -0.15263353916973713
Ni 6.391035198306278 5.1330949481136114 11.42766326006479 -0.5282107758886838 -1.0371562757898525 0.10896746574035428
Ni 3.6835407434960956 8.760913111481045 12.54820377220658 0.43407060496914923 -1.1518480456084936 -0.4929622370990349
Ni 4.263382758678031 7.580803321939146 3.005397220603025 -1.9479428312025033 0.5626782135379341 1.1936963491028474
Ni 1.8256931735171955 3.319315260379439 7.904051589720185 -0.753616818935457 1.3073403943832647 1.606869284687381
P 1.0570838708003798 6.358843832144703 4.753141630429872 -0.1346551003144455 -1.246541517928337 0.3774016915221952
P 8.174656853371712 6.087763507849851 1.398268912715719 -2.4978382911534722 -0.140956359942125 1.2240417941639243
P 5.465535731767262 2.3647668521677767 7.11703692192322 0.06714178795381985 -0.2764820357869819 0.31552423729110823
P 2.310384423659393 3.725464383148379 10.2058303914924 -1.1251947046870234 0.11455807245425431 -0.5343955645431571
P 6.396368077512486 2.5595694432063927 1.382090047810225 0.6883154266244855 -0.05682935028421826 0.4329902274207769
P 0.7245950265368997 0.2636364752260806 0.647601005345687 0.3514057816790658 -0.20494340431704705 -0.4443696729023121
P 4.422583528742089 5.212025257335502 3.3751367344552534 0.9027588000121678 1.434181140859614 0.23705828257372077
P 0.8900630849713752 4.699486580766425 13.061643585209982 -0.00368927592612913 -0.7222151646957239 -0.7922059920625647
