# total energy = -340861.820061089 ev
CRYSTAL
PRIMVEC
9.36194263630470 0.00000000000000 0.00000000000000

0.00000000000000 9.36194263630470 0.00000000000000

0.00000000000000 0.00000000000000 13.70214936789554

PRIMCOORD
 96 1
Ni 2.330374805510881 2.001134000592808 7.740686495627402 -1.508391662734757 0.31350155043412464 -1.3901553700979672
Ni 7.900609075181869 4.839001002219445 10.496983825701188 -1.3685874141192043 0.2838844988986401 0.4409706745230922
Ni 5.726794039366306 3.570345407472576 7.159085160188072 -1.6017946983779512 -0.6224334792196958 -0.46156675350688897
Ni 8.521128006903172 6.378338449576534 8.815072415020115 0.9869544581244808 -0.8472206577355472 -0.35933120717372957
Ni 8.339468868520829 9.30516263183134 0.5792926803411497 -0.9750219683529532 -0.01967639538300482 -0.7864166390742973
Ni 3.727289016823309 6.8463045231273405 9.010794127704877 -0.2185859348011461 1.0847777343225575 0.502805705552018
Ni 2.643924994271006 2.496783339047583 11.898823355128588 1.6170092013348603 0.9161141382731512 0.842934885876
Ni 8.358211478036466 4.188973226745248 4.2353888030277576 1.1722037264467102 2.1914802937426643 1.481230528938933
Ni 2.912612753061631 4.698159934510518 6.479842505965373 -1.841194484600655 -0.643236532007976 1.0585100588752803
Ni 7.159049584805375 1.7770184515444194 8.408296935902458 -0.9957031508513884 0.8313870331374004 0.8480087008544813
Ni 0.7702969100414312 4.572082650620856 1.3822318763956565 -0.7699016721384097 2.470340599953836 -2.0960856815907385
Ni 0.7209894296233664 1.4807223233923468 1.4210914286321765 -0.17843790182735075 -0.2183061987771982 0.10620970048955901
Ni 7.318530280658974 8.77556688872936 8.167783007819308 0.6384504234732424 0.12616300368303435 -1.7282351240920881
Ni 4.097132567730055 7.4163813069614 1.647628912286807 -0.9398258800677943 -0.8429683102170966 0.37521342562162474
Ni 1.95124420733165 9.115592651770319 8.746520524951528 0.29495746888335006 1.455375515549042 2.148421771990294
Ni 2.2108696054773507 0.3818511787612711 13.11388931681381 -2.4745224992456674 0.5056154070866711 0.4275397458291669
Ni 3.246272394988386 1.6764805476540876 3.094301849660983 -0.1461859837721805 -0.6286840881150979 -0.9094148718761047
Ni 4.890519773530413 1.2956741617109708 7.131941143190248 -1.3410753247418647 0.8438851656044113 0.5208988156083029
Ni 3.6983886993533903 4.629068796535787 10.127656117843548 -1.0411170602098136 0.660186015378121 0.7437332412731579
Ni 3.9596898852629767 1.5245081299381222 9.371037006254838 -1.4958837600757335 -0.529662934954178 0.7403506979541702
Ni 4.62409760490102 4.600205926837129 5.045077023657601 -0.20541365908524623 -1.0075718772645164 -1.6788151788980634
Ni 5.601699759472218 1.2311610137727762 2.2706381207969013 0.3768982695232154 -0.789461339437892 0.5624936083309539
Ni 1.7190399396910974 7.617925211882813 11.205275652284563 0.4211991483231198 2.304227024019793 -0.17348775691092702
Ni 6.593831649292303 8.402821135549962 11.893355980524627 -0.26392553927820994 0.47701548396179133 0.34138542132858624
P 0.4749257418394813 8.0744603532565 13.2881525203723 0.4841973464222113 -0.04793153357395616 0.02982402533996799
P 7.017188065329615 3.9896293783853602 8.715293764692081 0.856571502822828 0.1568205806678912 0.5085138116803887
P 5.621359839383727 8.582327027084856 0.41103890787561015 0.03866039268467536 1.9507605031569566 -0.4842271712188822
P 3.822734023822278 6.59805388550187 5.733417613907921 -0.051325132636537416 0.31055712309382 0.6367558093796388
P 1.7019918418249742 9.370368563537845 2.8092559681897016 0.29976054669894825 -0.581822904787185 -1.0493988406026316
P 2.296316057549895 0.6982764201598844 10.897936176387912 -0.9133905686944012 -0.7850238724918286 -0.9672361537599472
P 6.938903499510548 6.257925141089948 11.820104395162906 0.44186104754784544 -1.1220191351725193 -3.107709103216809
P 4.973232538300977 2.919568676573179 12.30087198931895 -0.6841093589629379 -0.35226812967936105 -2.428907786730346
Ni 3.6798052428656067 0.10204236810070283 1.2744515735436377 -0.917851175568916 2.502801805806335 0.28562487862851454
Ni 5.223383650317893 5.501639314665451 1.5346957961094099 3.3906831744860377 -0.2862622551021973 0.23268663586858637
Ni 2.5729708296760885 3.02923447470814 0.5460989758962703 0.5630376537598819 0.23725908573061721 0.5867591657465379
Ni 5.851008296635784 1.0027483329723001 10.750103609784741 1.6044084818517144 -0.4913403852248958 -1.7089135409453406
Ni 1.5819623729938037 7.896489820343267 5.275985598412558 0.6648795641990485 -0.45888406446840324 -2.270546601048212
Ni 8.87382047857283 9.025839706002872 2.8147364495136054 0.006753259563433531 -1.0938370163113484 0.7315701235480626
Ni 7.986532986337979 2.9154400597917625 6.5039579344625436 1.1417117285054401 0.5885213998532832 -0.1728005010359153
Ni 0.7171238834350511 5.5302119641368455 10.804515221425545 0.7280348567012945 -0.7195430171801995 -0.36202392351454427
Ni 0.33077148256832595 5.981120577878714 6.343958586976993 -0.2515171383115281 0.6630990752598579 -0.5302339769662998
Ni 6.752891057719227 6.833684624212714 -0.03413457969778733 -0.6089323594094674 -0.0709004836653037 2.983928997943655
Ni 2.729549323257036 5.960365150657849 4.065811251848177 -1.3943724935031083 -0.36307241938371665 -1.3662163427838665
Ni 3.664030369222324 8.05448196728928 13.009835067202163 1.113989322889507 -2.1728832474667676 -0.3778066402700977
Ni 7.5457259088935 2.8216989263851233 2.652462149924009 -0.8891373525739913 -0.23419561631394506 -2.8151515020242033
Ni 2.1737120544445983 6.216535991904814 13.046200597872765 -0.0014426459837975155 -0.09760267554683835 1.1461800486894387
Ni 5.055861045586204 5.147177435803758 12.780405679411977 -2.7555026800133193 1.7698779964438554 -0.32727392162786856
Ni 6.440997932837357 5.426341208604372 5.87934596134252 2.4295004260090223 0.2202790062328529 -1.1052583707744126
Ni 5.380355345497071 5.93021033285072 7.818487985197214 0.4735840896827392 -0.20416230317664838 -0.08854570755089265
Ni 6.216629611332963 7.557559404611665 9.601466249537665 -1.288870360603535 -1.2000096929153847 1.3445496564437103
Ni 6.51237338485895 7.796616614392801 2.2778589872901143 1.6448012838464638 1.6000075245705412 -1.3884383874068604
Ni 8.616376413103026 5.211007161916457 13.119780787427292 2.3781683513939496 0.6291366022714843 -1.603780618459728
Ni 4.501774460080173 3.6347181262685457 2.8052406309163462 -0.033130206895065524 0.30207273977189264 0.5323093714380897
Ni 8.676011988834604 7.888419825636734 10.471662578969445 -0.04682955875902903 0.45145486188386763 0.893345477118068
Ni 8.890381755412573 8.153044501245645 6.083891305130424 -0.8453656068046795 2.2435479609721813 0.20040746411990648
Ni 5.394744651603732 3.108679921436267 10.084988127269883 1.797461048268446 1.5342163371073447 -0.11550603818982044
P 0.6392830737054159 4.011489514858396 6.699186272760954 0.3773844651310146 -1.739421993946843 0.19946669747319196
P 7.969644041499711 2.732077047817087 0.5491125852884202 -0.48893177578340313 -0.46674058439834454 -0.8604842076136728
P 0.2423320173778244 6.421038270755768 3.724668609029389 0.41973053419739326 0.045502355307173246 0.08732391932864962
P 7.564721290865144 6.865505867840914 7.05555237079122 -1.1713989711572277 -0.4050860448113411 -0.9576701073380669
P 3.3207185642533004 5.412242122724976 1.2521682772553644 -4.569829393688852 -0.7016537956046045 -0.7373731033830849
P 3.758052360913413 6.648533481160373 11.121568649187047 0.4363660858715453 -0.610739073600903 1.8586718154498119
P 1.6025680091296284 4.319225937130403 12.475820487091498 -0.2735178109523354 0.2462008683049373 -0.812171636551214
P 4.8039124405488085 9.05651879260764 8.570544085857891 0.5725347946170397 -1.2405868430067988 -0.14734940795266238
Ni 6.76823528199302 0.7120029007152437 6.094167909758454 1.7209601876972296 -0.11326429334349525 -1.2284532929680585
Ni 5.124324933392332 7.089995894601904 3.7220790956467593 -3.03702484932737 -3.2193163205728554 1.6231597943172884
Ni 1.5615346137714643 3.0757165207846366 9.986674620992398 0.4036775944995886 -0.3054300862798998 -0.5061234570713412
Ni 6.829602817145373 3.9705216530999365 12.519873109007502 1.7923214130490357 -2.1197979376060134 -0.1772662501167528
Ni 8.650622399920312 2.62009884980682 10.859282586893322 -0.7277286383147854 -0.4318599704710756 -0.7383940884484316
Ni 1.5624988938814097 3.263882209423409 2.768245041494293 0.6792993391688043 -0.6006176688961848 2.6593735036882133
Ni 0.07651047765562298 0.6990141412537066 11.972623550339268 -0.3583652437160344 -1.651907555873942 -0.5691309111418134
Ni 2.2152229088863273 7.44719146076558 7.393378077270652 0.9797458561911837 -1.477606044812468 -3.526459275778804
Ni 4.929914828895952 8.366552969084635 6.298974451750897 -0.5697351203847155 -0.5433327191317868 0.6559254403295542
Ni 3.010126749422716 1.0864253778528088 5.407607961031548 -0.24460087080766907 1.5415275260567776 1.6632826304801032
Ni 5.133143883524066 1.9817079692516741 4.765224211865803 0.8764080779327811 0.33388757028964433 -0.602465263627885
Ni 9.33432508370008 0.929517343884773 7.8219547126216105 -0.35616849317503174 0.5816182449755467 0.31123640854903173
Ni 6.73635786670793 1.295346493712446 12.779145561909077 1.5613283628327883 1.0887007235260475 1.9061994287171302
Ni 6.880868816000337 7.604153794001942 4.900792633381318 3.2485608192602697 -0.6035646673396509 1.3401343009848339
Ni 3.427585141486575 8.811881864908763 4.028349437673937 0.970309136258316 -1.723374453565677 -1.517277395260161
Ni 0.4166626269245832 2.7600130851770603 13.082291823618888 -1.0114069347398904 -0.7136006835538355 0.30970994460217627
Ni 1.5275975710670737 7.443446683639577 1.5251728278779875 0.7377382000319875 0.34106506187469005 0.5871198915200663
Ni 7.395607155854906 4.875896418853376 1.2654360226127885 0.19950526402061125 -1.4667950702398933 0.5685385289734531
Ni 9.277825758811527 3.9655691853507995 8.712471138933356 -0.9381109542592165 0.0332235379398202 -0.7997542367234678
Ni 5.04704209545447 2.9178086313239584 0.6154194814699699 0.673086268379557 0.09267232812475652 1.2517148345991602
Ni 8.598794684496449 6.886420448089634 1.308880118245816 1.5281598465006199 0.43004425741857555 0.6445256831330448
Ni 4.40959677112364 0.836455887526504 12.646768626699197 0.7964863646054735 0.8489566665900475 0.6975631704749987
Ni 4.137267216577979 8.805908945392789 10.690417479561962 -0.6425083955926999 -1.181086887868953 -0.4027802794962999
Ni 0.5977422610466788 1.3284784093347461 4.145366233307239 -0.04561394118437306 1.1218232171116294 0.7879330757188238
P 8.274665500355368 0.5268976311826964 9.783841576545358 0.23614914049589006 0.7920144448770489 1.8281728755300062
P 1.1678368325720867 0.46256797732367555 6.170159735782127 -0.1664154234451779 -0.49484582727499293 0.6614828798126737
P 2.7600505329483203 3.1791659888904347 4.631723843518122 1.0032948471557173 0.6926019698149813 0.155408530811713
P 1.40150156329178 6.913251776197437 9.136894816451578 -1.7092914931100498 -0.5207741171049806 1.7913438796271146
P 6.462586572968758 4.9020911348497584 3.2205120731386194 -0.40519351692348277 -0.32682089325085 1.7537222126195988
P 5.697350729213118 -0.25395955035405976 4.26517756887082 -0.607076280037335 2.61939799173654 -1.3381473524617922
P 7.680097874117257 2.126041041630596 4.503909919236276 0.128143781558489 -1.7799014421181283 2.5910592926928473
P 3.7238812696386474 3.494017487701846 8.323685569129012 0.46333618670248594 0.43550322365061767 -0.4114464398117301
