# total energy = -340864.65721806785 ev
CRYSTAL
PRIMVEC
9.31935587966835 0.00000000000000 0.00000000000000
0.00000000000000 9.31935587966835 0.00000000000000
0.00000000000000 0.00000000000000 13.63981934482374
PRIMCOORD
 96 1
Ni 5.614371281577242 5.357082509642707 5.326595169433108 0.2762388094279242 0.6466879808916862 -0.9199589659405382
Ni 3.4739109856792476 5.8761053861766825 5.668408633619592 -1.7761275768979927 0.01158359107254134 0.4067441492400543
Ni 6.058652925464341 0.19974547828099243 9.451698929871743 0.8126583463796455 -0.12381507227614807 -0.018892723139444883
Ni 8.706962190422045 4.691167948697252 2.827670516534394 1.4589259519044617 -1.1363496928625785 -0.04606105602412067
Ni 0.05978739450408609 8.99797771060459 12.80694469565832 0.5159892941218275 -1.1383047597064204 1.001546754116359
Ni 7.490748995241503 5.6296457055558236 12.888019362433228 -1.547365215784477 1.207134219775308 0.6589909666287554
Ni 2.1636282141473875 8.328400642872325 9.10156514492377 0.07014355089462113 -0.9572481893092997 0.06506973591613956
Ni 5.470079697403727 0.08474556098184163 5.478992729187202 1.2820309690841984 -1.4682084056476519 -0.9069648676737154
Ni 7.4966201893272295 3.3752562863276476 12.713961756180645 -0.13223980600473353 -1.7859245083837567 -0.7287907610307126
Ni 2.0139407230284188 3.233611399170556 9.349236341784541 0.8544521424869801 0.4112438368826208 -0.4609152359658192
Ni 7.569283205654873 6.911159626067621 6.061944521894625 1.024404889661455 -0.873284958922767 -0.9577618957209248
Ni 6.51716522549256 7.887949254174485 3.6815648692001575 0.3994195905541831 -0.27770588089175396 0.38004015758630677
Ni 5.41288681152419 3.084837204909367 6.036452356335738 -1.0220998956773624 1.2173687530191228 -1.4779384884512223
Ni 1.2418041459097597 0.48031493266878844 2.4737446857554977 -0.7091768434545271 -0.037050882105710385 -0.6166960625152862
Ni 5.475820420509771 4.51636479398934 0.17152740118230456 0.5489523793114095 0.8344682431658855 0.40436407904365196
Ni 1.2135571788084278 0.9623446267848368 9.987239432433563 0.4630487373690542 0.5427189968071879 0.2013006653581372
Ni 0.1483222055101447 4.578487619029748 6.922276685472166 0.6579357858913636 -1.366177519126131 -0.1752844438000336
Ni 3.3417252445491608 1.179355143420144 1.8626260724056916 0.22190934274742427 0.04835319449240705 -0.9380006539335976
Ni 2.57655022613215 5.319721212674962 3.191267974650064 -1.4254890124022546 0.3107255303508842 0.6731104367492731
Ni 0.6111381839967587 7.243329420984406 11.038459958642772 -0.5812444065758958 0.09320583203072334 -0.07646075136190057
Ni 2.4620898995275446 8.970681317783805 11.829378765222343 -0.09761553106264478 1.8975823764720803 -0.11183733108898158
Ni 3.3758527250919115 0.762362436869277 5.504703899604841 -0.2769106386839682 2.2317165155548917 1.5177826170313538
Ni 5.2490245803982525 9.042319204985368 1.9369087927525397 0.3960691860247114 -0.28134476319592194 -0.45241002670828534
Ni 6.344048874164832 1.4139326455341743 11.360700912005694 0.5382774160960665 -1.0492132069543867 1.2985071123623508
P 4.618411738812694 7.517560781566323 6.6794599409911655 1.0127598492233592 -1.6271270064951526 -1.0193580712661672
P 1.1383872557997363 5.621854724197621 1.6327408658823968 -0.7903617397649744 -0.5188583881395065 0.2738373990752832
P 1.3017555610740186 1.5257369557666651 12.240182487658398 -1.5511827897583546 -0.6447521973215542 1.0346684763709924
P 3.9254617270058185 1.8209461860104434 7.688561639152051 -0.24808651536342435 2.0491702479861225 -0.8660725003347277
P 3.841270667687629 9.204969919871393 3.708080300013985 0.7522320227727883 -0.9961572076696715 -1.6643864050672434
P 3.467452672184948 2.862235074859082 0.36888246472839376 0.5511121059668895 0.5443143663187658 -0.034509089520463145
P 0.18395289812595547 3.161796444210852 4.6631949706532545 1.4025290611719716 0.5621927892610834 -0.1860159712849248
P 7.059551726745453 1.7683291037754978 4.834783879583124 -0.549633207428518 -0.1376625196822016 -0.04770321961323397
Ni 8.69480975060016 1.2859872112437798 11.382469994965774 -1.4243816382706889 0.998359357527313 -0.5282321160449225
Ni 8.177669383915893 1.6083250859058944 8.911685136577939 -3.388228028077326 -4.131437278526214 1.440497827106261
Ni 6.368698569969195 4.130655300624138 3.1459833614732933 -0.4674157560884983 -1.8349140509085815 0.6046003076930168
Ni 6.04001421408108 1.4209221623028971 7.18994442384047 0.9955195740856725 -2.081390284362093 2.6346240646576753
Ni 0.9689800080372777 5.464907454994872 4.742156007557302 -1.0830162715467606 0.19445844562532316 0.8079290592247763
Ni 2.9845516183117318 2.5017717160625073 11.632596842051289 -0.28985974264546854 1.1256796147432422 1.7638824409820526
Ni 0.3276340645016682 6.339146893071034 13.34492593747578 -0.00046279856903146105 0.15282560057588518 -1.468336446585084
Ni 4.26967212947619 4.48384024262555 2.13607740291622 0.4128196660101729 -0.7662992994991319 -0.8204323338981097
Ni 1.066069055632684 1.1055924431208888 5.517879604681669 -1.4068719115216997 0.24486106644759123 1.0928985636574793
Ni 6.024851622370797 5.306077675942414 7.592823898131932 1.914819566285973 1.9913739058029447 -0.22711145577365402
Ni 7.575946544974389 4.02297946496304 5.439436723954077 0.8730576734033093 -0.14424017289971933 -1.7620358746916167
Ni 4.13575298818746 9.123472154348086 7.934828409110094 0.29231437483354816 -0.5060368108948059 0.4207564043587463
Ni 4.779767063257583 3.763090592790541 8.460493190445494 -0.9497158854879968 -1.4625573780094618 1.0133933690422998
Ni 4.223019434883888 1.7248077126955834 9.97579526364424 0.17038006451988075 -0.775185289134852 -1.9125701081301645
Ni 8.837889818533762 3.4772100375940846 9.709395889585569 1.425539406024216 2.2229696226001976 1.145760444653517
Ni 2.346045282455362 2.0169229168497407 3.7596657295738667 0.28290927946956435 1.458306830263224 1.1637908197926667
Ni 1.1480980244304153 5.882936473898648 9.129103840992538 -0.6084759885983392 -1.6187714354416056 3.2108980146021735
Ni 2.45594844412676 8.270956134389115 6.332463051168997 1.0193606423693282 1.2304168444523325 -0.11714383090355954
Ni 2.8856825737792238 6.977560035370487 10.99481275626102 1.405686632964347 -2.7226946323443624 -0.389162174492233
Ni 6.810687652356153 8.215524606735295 7.698245381651224 -0.6529774134448237 -0.18429024684306972 0.7370270328975759
Ni 7.622114633070726 7.708290715151232 0.705227330995029 0.06684225443553005 1.2004280113997259 -1.9196408989340163
Ni 6.836194728884145 6.051094927998428 1.9256426236569275 -1.1716558243630402 -0.467437353355053 -0.2695297728388648
Ni 7.9542657892761275 9.40145921527373 6.020465933582315 -0.23285915689070866 0.3602344357142893 0.8797075746196591
Ni 2.014686271483749 7.905162104136926 3.9016703438606553 -0.232909807622986 -0.21286625870854953 -0.17442440979258347
P 6.553557309468376 2.980329950183423 9.806088864564082 0.26863245783557604 -0.2162464880346921 -0.5776775151602438
P 8.58637904712804 8.729188853746583 10.010453947461414 0.6558873880027672 1.214983797726714 -1.3566191860137344
P 0.5106718018987055 7.926894841609808 5.505631175496159 -1.3952759791539842 0.23054850647966102 0.10481153459045175
P 7.3385639167971775 5.832406927338628 4.130928357745903 0.5339996146563191 1.520900079614413 -0.8262741373908672
P 4.139387536907196 3.9532893231010275 4.331583405142399 -0.617513416210259 0.9876843943119701 0.20472768876181516
P 7.500021754154675 3.574084740008584 1.1964701401478235 -0.2110520883179462 -0.31329611929153783 0.5109918409072362
P 6.5062336212662775 -0.2420320547317657 12.959110203455694 1.0109721611953169 0.5631446116513914 0.1742770855814418
P 4.145063024523399 8.681846526833102 10.093111040832762 -0.5630355968773529 -0.24026701931900554 0.8438288584451789
Ni 7.605749844476223 7.670062718104165 11.535917846106315 -1.5168544487901297 -0.2821189223577851 0.6325836802798203
Ni 5.261428642823812 3.2348881509003093 11.949654369778527 -0.8638721502492994 0.42273821067546546 -0.3961715159305306
Ni 0.3443967895842039 4.030789085032627 13.45611796603933 -0.39473812591811375 -0.7621791066831712 1.799428456407462
Ni 8.957298723010622 7.183098425149398 2.86207012226334 0.016413408361016894 -0.9211558144621168 0.29264013360408314
Ni 7.177926182740544 5.1320853051796735 10.032673155301401 -0.4413069748165883 0.8219773097877262 -0.2306415804140996
Ni 1.1034862687345803 7.839544520712157 1.099815374527647 1.573761960610451 1.1482690700079838 0.7772360010162936
Ni 5.768876879588784 7.120202093586584 9.715670611772744 1.8441890484526047 0.9489137013016754 1.0187096390488906
Ni 5.4341442618568 2.29247762593987 1.3908933343933256 0.09959476627620266 0.6844770267150019 -1.5364886780812892
Ni 0.21049162732901153 9.306821158225222 8.001963183641461 0.16947786442058554 -1.052333240640607 -1.158018950305896
Ni 4.558870375298866 0.6990010694574506 13.268665649851167 -0.6434018539412468 1.0281185910676165 0.47718671943233304
Ni 4.120059193202755 7.010475999673326 2.962691205665874 0.9141570145467804 0.2867906168018416 -0.02288821745208316
Ni 7.352440437422015 1.710875275936596 2.563167631358968 0.5297560088886167 -0.43675303689731876 0.8693174896345867
Ni 1.3573361984189025 3.1291973380015285 1.901335880142017 0.5046201330529374 0.4262058575090918 0.03368916472232908
Ni 2.8500267189030457 3.2816433584052196 6.299672898167995 0.08376062745742349 -0.9620672079644981 -1.0296339992708783
Ni 1.3719769062104539 6.721464140964483 7.2451858366381785 -1.3624311647098213 -0.4592866992234606 -1.9578408070425053
Ni 7.482156549293819 3.1884404821332235 7.464650139627091 0.03033593197938001 1.0060140458590932 1.3542113479031903
Ni 5.272798256767602 5.75931522064917 11.601075053359917 -0.2308195007528605 -0.4849337103676035 0.4540113097571342
Ni 8.80552369621673 -0.058735239246501016 3.9815446776224817 -0.166305637340191 0.5590413881162952 -0.42252300934086584
Ni 9.050762541241985 1.7842745213638773 0.556886486773501 0.13607434925947534 -0.28533871484666345 -0.11214097837232945
Ni 4.115101295974807 6.3373482574225495 8.699954034941939 -2.955437575372181 -0.6377726806799274 -1.5852517064176053
Ni 2.8573983292551257 5.800422898604952 0.1621772916168917 0.3857240953449615 -0.14408899203383574 0.13541254730576033
Ni 4.879745111117395 2.0674431440540695 3.644573550653369 0.5939281726911513 -0.9341727955470749 0.8165096018049357
Ni 1.5715695470581037 4.683442202828892 11.73456830009354 1.7642735057728842 0.7333724668641242 -2.049576739395922
Ni 4.870267326379007 8.011057942860923 12.173606874468527 -0.3204877519439706 -1.1797116047879812 -1.0030328517435823
P 8.802532183039716 4.840203084917808 11.501777318465598 0.7897624156180786 0.12956328761383493 -0.8625079229119211
P 4.050685909434257 4.314507549708624 10.496263572245988 -1.408618204788845 0.6432126207485761 -0.04720751092373805
P 0.4818032337727418 2.280725918412724 7.926603145776661 1.3311760633502818 0.22230092175888813 -1.161948110156973
P 3.11685851106581 8.014226523796077 -0.009680014756896565 -0.39032431312113425 0.8394901218605091 0.384031538133887
P 8.252382658495694 5.937622453097136 7.991338186217433 -0.847699654254495 0.3887752234664595 0.8752243420373249
P 2.2667468848752783 4.751044809015979 7.619925516418762 0.6804514504953765 1.3356456690858611 0.6639981900353596
P 4.9507306434205445 6.688930270245001 0.8870982850594742 0.09418542233517328 -0.6466144473412735 0.4323474516304554
P 8.481657447221188 9.19677820621845 1.846858654511022 0.8360659266703084 1.355094264728776 -0.05582147784499419
