# total energy = -381166.3741569316 ev
CRYSTAL
PRIMVEC
9.28886202998661 0.00000000000000 0.00000000000000
0.00000000000000 9.28886202998661 0.00000000000000
0.00000000000000 0.00000000000000 13.59518851344573
PRIMCOORD
 96 1
Ni 6.214155692375844 3.2591365147542573 4.897122338744387 -1.1125425631406518 -1.8515472885898887 -1.2862851163748623
Ni 2.331690102841873 6.109237997723629 6.111852812335811 0.0831672168477987 -0.18255578065046624 0.7642156774972257
Ni 5.9849901815511615 1.0142879813947712 8.20254803878066 -0.7623356868656934 -1.658623534441537 0.6789722948466886
Ni 8.09762105526659 3.48579403287809 0.3481363245773256 -1.1512073267007013 0.260088682030623 2.479296523595543
Ni 3.5175990958696075 1.530367857196666 4.5793355125058985 0.6038621439754116 -0.8827898130894086 -0.3097184292426085
Ni 4.448240876260112 1.160856932604802 1.6695438032563028 0.1396245285045789 -0.5682436234408537 0.28340884481380224
Ni 5.317669057026172 9.359828759571288 5.83461929918388 -1.1554326776359585 -1.287228197014422 -0.8928050312335656
Ni 7.1213152299969105 6.51365646516658 -0.23706568783235937 0.17145118609687246 0.9386182329129383 2.621997891253233
Ni 2.2666587809950243 0.897615232065055 6.479086108000829 -0.7364148532348738 0.4006318656947294 0.6325674823299041
Ni 6.481414825667878 9.316263997471342 13.114721120388701 0.052006732084594304 -0.666557980342736 -0.011287142878045076
Ni 3.8664701694196633 5.414431130969698 12.376977418596221 0.7398758152002807 0.5174985316775024 1.1110222698413834
Ni 3.7169473601397423 2.7849401170565535 -0.2432084121770703 -2.613541018735131 1.3240741621981778 -0.33548319691153833
Ni 4.451092556849596 1.9058886754087143 10.857225801613634 0.3073350166120965 0.0653363593139649 0.507468658245326
Ni 3.2497361865569983 3.7143929231296178 4.680701146384762 -0.039839757704757194 1.4803756371378052 -1.4152670775639302
Ni 7.299624222165473 4.9673767876123005 5.552275054239327 1.0310496486714824 -0.17412461916397753 1.488482839625972
Ni 7.993204959154546 8.313447760467495 9.24283833116613 1.230449497462481 1.313487902041899 0.4347344638053932
Ni 8.937798610051258 8.298028249788196 0.9835994395982252 -0.647677341388149 -0.7934989998423753 1.1034673403122608
Ni 4.7367622143382375 4.481560023733993 6.441250715893047 0.5637413646951259 0.8953293403173161 0.8022461499073861
Ni 2.6276239526802887 8.891372878499972 9.42097640827656 -0.7595357555230532 2.3036544393457743 2.376740360698171
Ni 8.654423301440803 2.934165682757114 4.029573294731592 -1.207779566668791 0.14065348398972552 0.8184340725211583
Ni 0.2647762205181927 3.7616267856622883 6.677820378502351 -0.8458556590672207 1.038297074262515 0.8964318293528755
Ni 1.3451200852224188 2.507035948078691 0.25191300462138994 -0.22682349221959 0.4381365475084067 0.7542202568474108
Ni -0.22691853514195837 3.0686312469700807 12.110348999024142 3.0055501757578558 -0.5421718660544662 -1.772840935726921
Ni 1.9839987147474016 7.206977114023712 8.303682379999334 -0.05427881594822265 -0.808292356101466 -1.946419966800074
P 0.4026851658208077 9.046487582616603 7.946265553542679 1.536016109320245 -3.1582343656598706 -0.016366357173165362
Ni 2.595521646109412 6.1622681100538195 3.85004839054621 1.1816723280587778 -0.6371363326475091 -0.430903005874445
P 4.471472319759464 4.474519066447904 2.788848870125137 -0.2484621535352882 -0.8233690479289303 -0.34867192768767047
Ni 2.938726513927919 8.271963703423069 5.10242383457739 0.6446755784473478 -0.33080404626831417 1.0900587802158388
P 0.023578846932729703 0.9515695861498172 1.9161872365473516 1.2335764731272367 0.7528462593180196 0.20187016470836203
P 3.375414487455136 5.308863215987632 7.966820875941606 -0.17270177067452191 0.7306838642883674 0.7971507376623497
P 6.321980800788674 7.984631339662382 4.451132498955572 0.4354104068264953 -0.46418310808381347 0.12215233986174447
Ni 3.28108609531762 5.509409743437063 1.296103690099774 0.3639885034400828 -0.5570706375431697 0.24762474523565742
Ni 0.7068582361246081 8.345420022972402 5.802820738395662 0.046214036662217184 0.2803721148700074 0.4994815262747914
Ni 3.2491602771219883 4.002301196325315 10.669150500090726 1.6790483779547922 -0.7550419814177577 -2.1957493534316637
Ni 5.704076421332279 1.2137198454216016 3.6511915070682037 0.15931557917560304 -0.37549984651379203 0.8652268645049809
Ni 0.7136446785958703 7.413347757856227 10.288566323281517 0.01748427282769247 -0.27992397158899535 0.3139070134026594
Ni 8.023198694084337 7.015245716474676 5.601435426720725 -0.8855658331726491 1.593169161492469 -2.6348958302618235
Ni 7.672850691499336 7.673166512802408 11.459751541382893 0.7997164415069968 0.7946071453048895 0.25299038042294497
Ni 4.445101240953122 7.882379548362551 3.254362039760788 1.271724702062184 0.29950729303756163 0.8417601488416083
Ni 8.06095791752491 6.971913175921105 3.080724416219104 0.6962043424542591 -2.4775042075818106 1.262483385969574
Ni 0.6894676289596788 4.088343923688171 2.384065350411285 -0.0027238266890662766 -0.22348671453687316 0.39821862826754645
Ni 6.526205717532684 2.9072094056539064 7.309126727843137 3.1724890758066717 3.843416903082329 0.1582046054996114
Ni 9.246578955835139 3.3812107372526556 9.819885651753312 -1.3017613576335902 0.47736309710919733 -0.024781834930370224
Ni 7.859900502673454 5.887466420935526 9.748430153047547 0.6708069854270771 0.3730426432225511 -0.3371472148775226
Ni 8.76488644662045 1.5526053924775336 8.011086947111606 -0.5971070846397651 1.4939312643350529 0.12385261038230284
Ni 7.280414855849335 1.1660679841054564 5.992731519021118 1.347100447890022 0.22294395465952574 -0.838176288145092
Ni 5.735872195461941 2.3228749729414786 0.019360774764374613 2.1966772645625716 -1.3850177917610857 1.1294799623259386
Ni 2.0978244279185603 0.16999638969452394 0.6965076573595825 -1.381099430543286 0.7412955783659426 0.22179030067105673
Ni 1.6277987291937515 5.207837554452662 9.467390064307436 -0.6538145646341386 -0.5894351699168042 -0.2343786788590286
Ni 5.283374579057515 6.8958002418812425 6.440203861161989 0.1323501063303527 -0.31426002586670393 -0.5235161986264919
Ni 2.5714077607338344 0.08561822637608314 3.1535806752926043 0.6575400931148419 -0.7419072438080125 -1.8019303968937095
Ni 0.455926135315106 8.442470051633432 12.489655028442103 -0.5433026372247998 -0.9152571895894946 -0.15826374087232098
Ni 7.018738328532155 4.003267237958235 2.624768556546062 -0.7796109290063735 -0.25103814179258055 0.22960516872978523
Ni 0.4441264941007007 5.021326497266136 4.653238626310457 0.3131120283051898 0.9630236583404963 -0.18618874941736321
Ni 2.7631856025921455 7.251953783125619 13.372186077740825 -2.105922465175502 0.07458307472321349 -1.5453666972972095
Ni 4.880033619589745 7.5604275964682826 0.2933106752505644 1.7483491212331437 -0.2331761739104952 0.621620239289781
P 2.3862993216874124 8.93307986822892 11.980678345300726 -0.3854687848010458 1.5117670069648932 -0.9770063457728335
Ni 5.690301039201315 5.522014728974297 8.579203027025203 -0.4365031256700418 -0.22710811333954437 -0.7685392445732441
P 3.53884272293199 1.178775147123095 8.296327459182546 0.8174503684516502 1.1656021619697925 -0.04070570524947828
Ni 5.64359664179438 6.61782176200854 11.402107651369324 0.5846814572819027 -0.8857200993623262 -0.44262080853200547
P 5.382765400906004 4.142860253915161 11.54726376669121 0.36779784988384395 -0.9183579400020054 9.127416222564926e-05
P 0.04840611689877128 6.09615928023179 12.01072316897072 0.6134937535279047 0.31176965534468243 -0.15767547246901875
P 2.965283369971361 7.779152426567946 1.8161406210518984 -0.6030440189494904 -1.366423059478034 -0.6459066226409715
Ni 1.826348151344357 2.7530235877227764 8.863818398693304 1.5800971587998591 -1.1778131022136877 0.0006543457545472601
Ni 4.704167598089046 2.2238649944290434 6.441808047604348 -2.336073221996112 -1.53264333619327 -0.47433150937172497
Ni 5.125333883456561 5.532408965390041 4.481912071598297 0.3086051415737718 0.8755758118394726 -0.49659160632150606
Ni 2.0328859946902615 1.8957823937104752 11.383305137202434 1.2605278049051 0.7342307010993614 1.0494991136259215
Ni 2.552690704096011 3.6821791502164807 6.884902549152957 -0.1618324320601858 -0.731454938126437 -0.03418513052214112
Ni 4.060059339339699 0.47532870995782817 13.060693384295286 1.0221626305944977 0.3012952381759198 -0.5009162018387889
Ni 3.9533488943494697 8.41524439753643 7.555933645102834 0.35461503264498284 0.24954433085587344 0.09137649213146844
Ni 6.820012418006305 8.55975122141465 2.3419069219961863 -1.720652940869456 1.3934191284509034 -0.8763859664455937
Ni 0.3478641609249741 0.7269974175124316 10.674370840453234 -1.20173541735724 -0.6710805508034378 -1.146354112373458
Ni 1.9286092315060421 4.287617877063467 12.284680500546393 -2.853737846937834 0.44819778839915064 1.4945966658331937
Ni 6.716014320677735 3.6908363694653405 9.657287840526294 0.15288576438985926 -1.1843416473608248 1.2002385210967392
Ni 0.05957690216559319 8.81147008882327 3.503412217158467 -0.5246904214402511 -0.8429094319547031 0.10798350456053017
Ni 4.202048881655216 8.350501030407086 11.134486252464946 0.2768931551824715 0.2888403002420187 0.36113869269611354
Ni 0.9598273843389115 6.76626706331328 2.4508857070514063 0.6493272182867462 0.3925616870920852 0.2247802365373161
Ni 7.046363403688923 8.288822987689892 7.204743142747585 -0.2798177850284342 0.4311025234797608 -0.39792526539684375
Ni 1.1303801768585497 1.455908340566993 3.909798994428492 -0.36413248521711483 2.153281156965124 0.9555654022902381
Ni 4.571188251772879 3.1135243163152917 8.70535227321939 -1.2028643887553607 0.39019498663212154 0.05475344159179602
Ni 9.369860730374688 6.526893093309954 7.21665239253188 -0.42802876965044345 -1.4688547809823993 1.6364919926498205
Ni 2.7557173576607266 2.6416222674957726 2.4106853707153415 0.5775209349777215 0.580257102961962 -0.06100919269352074
Ni 7.58691943047874 4.838020097419584 11.955309534688537 -0.7696751579499003 -0.7662285941621965 -1.1100529639495786
Ni 3.704193752812829 6.488985248079702 9.88538791889621 0.06458379741865651 -0.5402764488039663 -0.5884684351281607
Ni 8.641483916876787 1.1309560862935597 13.499137881599282 -0.16076825246172957 0.1331782586586029 -0.8852999811057721
Ni 6.1116066574966545 9.54244778364057 10.441118230412354 0.4802327053475084 -1.2255114367309152 0.7543269576286041
Ni 7.046790691334253 2.174485404807868 11.848764431439326 -1.313077811087674 0.11184581572941382 -0.30902088895495167
Ni 5.733884379024971 4.533902760286913 0.3930860559798517 -0.5184048455418555 0.9685538441301061 -0.12769358139494782
P 7.893656226654521 4.66885134531634 7.939100125507733 0.19233291464188812 0.05582019229341354 -0.48094412959223626
Ni 6.00297341810244 6.217769059637439 2.2974782957437254 -0.5784316197174489 -0.21940714515086088 -1.2070786839470242
P 5.974289412694203 7.553479527800744 9.148487645760163 -0.8654376949642064 0.6788311412831342 0.5426323506306525
Ni 7.270029908295447 1.568907345033057 2.000464151271573 -0.15337684509366487 0.8392216986904708 -0.5618492898787356
P 7.747115142030055 1.5554384953433082 9.992776450801854 0.10898417791090263 0.19189711265605017 -1.02958540542113
P 8.21553386765395 5.389843513639515 1.4901006410552449 -0.3879187890034351 0.7097638263062486 0.2693492813969426
P 0.16915946324138853 1.856276864241164 5.8645703053491385 -0.17080789608591873 -0.8794666622534467 -0.9168566728661306
Ni 0.8981084706295555 5.562895009998148 0.5728153151260437 -0.2419608620816607 -0.10814291295652989 -2.391217214158108
