# total energy = -381166.4200604954 ev
CRYSTAL
PRIMVEC
9.26765800891658 0.00000000000000 0.00000000000000
0.00000000000000 9.26765800891658 0.00000000000000
0.00000000000000 0.00000000000000 13.56415428527344
PRIMCOORD
 96 1
Ni 9.109301256725931 0.2205748876662589 0.5469715982912124 2.4927693612709976 1.1261498695114411 -0.6893546665222773
Ni 1.9626304115820667 6.694297936307268 10.68052326551313 0.6050271108177903 -0.6318671138287698 -0.8039762452246153
Ni 3.83715320117959 4.5072511929322365 13.40177726219575 -0.4426172089875796 0.1921475381039594 1.3081621189536115
Ni 1.3510669460158493 4.537797392791399 12.368867152322217 -0.25523109682800565 1.2048793623028604 1.5583764792933161
Ni 2.9203130901762364 7.551584078774525 2.8179666388641396 -1.0074728897928067 0.5031512618168946 -0.12656460999682717
Ni 8.535939076299115 0.27777672467193876 4.925266114287683 0.30669429770430406 0.6428701498074928 -1.3400301713068017
Ni 0.34140938937248283 4.942988656153786 6.451749432176787 1.2596207197097984 -0.06202349289064802 0.17428916976629982
Ni 4.027242128761895 2.905104863850725 1.9561819753375265 -2.3298624651997097 1.7732016615004496 -1.3910017772586625
Ni 0.3665590321388082 7.522233406761792 3.0428602550299035 -0.39692510626710353 -0.11333011358442417 0.7245828935969522
Ni 0.661457754456318 3.700158684699574 1.298519326719293 0.15995192720802132 -0.13872052863307077 -0.34357882943547924
Ni 5.279052460550916 2.662004934085651 13.1984374375993 -0.3725212235014423 -0.18289465204712374 -0.26629609639291557
Ni 4.138370612533501 0.2740261035909306 -0.011521552082800491 -0.6009989634950037 1.6528519220650824 1.1757127680412334
Ni 3.1461659089164615 2.745395318288546 9.388239218910721 -0.26297783065296 -1.0176130635506022 0.3463599917250422
Ni 3.7326788956540033 8.36929732275919 11.65403603026611 -1.0440332054153438 -0.01358313800107338 -0.6156609363825525
Ni 4.880116866152404 8.616734516339218 5.190702952699769 0.8035535558649 0.27194558136920904 -1.0160847998315339
Ni 2.178084918355672 1.1807273970439436 7.01018512307291 0.7542626800495719 0.6915210780459767 0.31536688577763755
Ni 0.8324302844507906 6.195809162634752 1.1403806491413764 1.0339254275573806 0.04272556389298448 -0.6569770215225202
Ni 9.17497187936004 0.7168032796198285 7.0519090449133035 -1.087607747572185 0.5605457405759636 -0.13741826488187944
Ni 7.629803109967282 3.2392502630989326 9.938116227898488 1.3549749655420922 0.7571268889712445 -1.9718098676280877
Ni 7.6850383500038735 0.06736382370033135 2.3338621967454474 1.357999354190713 2.4582222194237473 1.29568198420873
Ni 0.5417752226052196 8.713507398295944 10.219260819387424 0.23374747303293292 -1.2355616218780656 1.9207978953565952
Ni 1.435133869232615 8.353616445889742 8.062058714181827 -0.709244720577985 -1.0003355074170772 0.6545496430279502
Ni 4.542727786700705 0.7709273274952815 7.1846070752723525 -0.06039238504512825 -0.40988320908966824 1.358084200595035
Ni 5.4582518903072135 4.611771836746445 5.860759239992656 1.551943836294095 0.5847218236015349 -0.22578579498369503
P 7.557116870435908 7.344581675845445 2.2965737758918854 0.02726860590796594 -2.9474278176938267 -0.6268002408288238
Ni 3.4588659481907307 4.743678409135843 4.188827448247464 2.0468410856323134 1.9844481252173887 -5.142472688859298
P 1.9234652900393425 8.360919360176458 0.7902596615080887 -0.06000620535030311 1.6613800141407518 2.9724436230118743
Ni 6.1901373561075035 6.712518151393164 8.029192819594282 -0.7319012816352363 1.6497439725637202 -0.969123343480331
P 8.425301778386896 0.28874036375973877 11.892086940103006 0.09862854570819143 -0.3026185849730336 -0.042564869945404114
P 0.8889889460104068 6.223834559592914 8.229697667692884 0.5617017085572779 1.3334255215060906 -1.422876257369756
P 7.784026202156699 5.42315527050544 5.50917581597048 -1.7021764793318233 -0.3279166974181901 -0.36634260549455616
Ni 5.00834417842527 4.985378922584553 8.999232992997982 0.27314500099394895 -0.7528622001576195 -0.08806799658352575
Ni 2.6254532920211684 4.240694821467059 5.877158360335735 -2.0066853393490343 -0.22850267969422583 4.25817466665548
Ni 9.020229798338066 2.303170494660014 12.838485318652117 -0.6555166349269098 0.8824635400982415 0.12664328575356254
Ni 3.7544671589637395 2.1084199352424067 5.284567643662623 0.42219750768064707 0.14958318237918755 -0.4470117385108495
Ni 3.816338041930902 5.878512365129248 6.936287600676975 0.3394504090894025 0.5056053797843422 -0.5983257875382147
Ni 5.87481456969727 4.228016665700271 11.25096335345949 -0.11184478728814932 -0.040951759822013344 0.6789123881430308
Ni 7.3345726055032445 7.737066980467872 4.402164295231076 -1.0217299139324532 -0.976997089801453 0.18513948221724244
Ni 7.929648907978002 3.148482823347526 5.904137438736829 0.9564215796429463 -0.26359258141882347 2.379520751656786
Ni 3.797339343596168 7.203185021946405 8.735695097653597 -1.2715416395171006 -0.03278722173334998 -0.3157612930025787
Ni 0.25694951746820843 5.103226458206248 9.722541241574467 -1.5210913696896127 -0.5342436123463251 1.2315684415582726
Ni 0.07395683540537017 1.336173820052963 9.188031862625069 0.20960044347308418 0.7810371199299389 1.3538863604636038
Ni 3.3326404499863043 7.041853636282481 13.54205809010479 1.0245761251319967 -0.8000442571600608 -0.24045702384262455
Ni 7.542279350419367 4.8506364469315315 7.932032549544681 0.47053733243661544 -0.6334012910851091 -0.92412158195866
Ni 5.915786884496224 4.43728037711407 1.1878236425634099 -0.47619375939144437 -0.6567551353197012 1.0981402716723927
Ni 1.168206791458468 2.984815987937089 8.115514563935362 -0.063437085408723 1.7001075126179366 -0.9852701284435225
Ni 0.6845499772078576 5.207672960758662 3.6236912408167012 2.0200694739654246 0.6894256289695289 -0.9964598265117547
Ni 1.894828227671378 1.6116178752757053 0.5152150423332618 0.36807552902526286 -0.3923007201212147 1.0446479561812074
Ni 5.415259226124371 2.6010978875218123 9.312794924440606 1.0572026529177663 -0.9798828959896801 -0.31560625548195326
Ni 4.204384138503408 3.338757104084316 7.282892438969678 -0.0543898876047902 -0.4881761285643011 1.2975928280781974
Ni 1.3996202048332493 1.1317848966021247 11.687322676514336 1.1955804534994379 -1.5877089097088464 -0.5394768357208064
Ni 6.757095585046856 1.9083312049756254 11.505590395901995 -0.38624294396290904 0.28775349493574315 2.2318661537588786
Ni 7.020992138745171 1.810687163192818 3.9481593518692364 2.7240174649208444 0.1436015108744559 -2.2380815385409716
Ni 1.2744048813207676 7.813970004263784 12.522142163126441 -0.966869771559464 0.9490939356332816 -0.9541533524340599
Ni 6.056747958482225 2.013537655461429 5.813338488949161 -1.8243473311363292 -0.5098921800851541 2.6098185755782217
Ni 2.207750690731029 0.4415992567321444 4.700738570602027 -0.3816378410907298 -0.4719794641997807 -0.11788842237906792
P 7.417518142135375 1.5644547651169445 8.139875529029352 -0.7911274142864052 1.0494638895126118 -1.578480963352675
Ni 8.467126717696482 7.201377828690173 6.579374346697577 -0.31985937433135236 -0.5889484600883728 0.8876409705341228
P 2.4543167244849764 4.6239866096270195 2.0407808621076646 0.7627941145593508 0.7268776031683998 0.14833285491185422
Ni 7.553382004373032 2.9470132120798307 1.1100309236259684 1.4076532697724142 -1.0615529594666622 -0.034089228374225164
P 0.7937266922627344 8.36572927453535 5.858914049339755 2.0011068168199926 -0.23611031683815467 -1.1293436938583905
P 5.085349146456149 1.1607185240172655 3.784100494537062 -1.6535103815846879 -0.4209294396015008 0.41971150803399976
P 1.3323648127282919 2.7482219538944457 5.4479342069627945 -1.742145820635909 -1.7961256172864744 0.9277874608460216
Ni 7.134456072263291 0.5050771515486935 9.892242248929172 -0.27634422465753694 -0.23547242614383962 0.5787288392428935
Ni 2.1449437743337167 6.478732217640972 4.8763541971163535 -0.4630777908347767 1.7348235759428834 1.3184863836977552
Ni 2.993092006284853 0.02620893604420832 9.610691734031914 -1.1156109176533304 0.9860257756626244 -0.42592663570577616
Ni 4.836197436197134 6.603929005838006 10.846914792294502 0.03644178776680176 -1.9154052635861143 0.052568775235651406
Ni 8.495022367446506 3.6905666589549644 3.9056893835820405 -0.8871917988118462 -0.025354419604388594 -1.0808557735603321
Ni 5.754983755322583 1.6843411854379764 1.8128900854338748 0.07894366568475436 0.3365651171218075 1.1140623422192877
Ni 3.431730246374096 0.559154861135525 2.430601715134366 0.22147559764411534 0.7086520812993086 0.06411559953298636
Ni 5.518111691548211 8.678790752460865 2.0387466112371895 -0.5688074663641236 -2.3391968552267586 0.1245079845781146
Ni 5.167979582725655 8.58237004149766 9.733229631227859 1.3262554861202125 1.2661191829499485 -0.7017502119731527
Ni 5.302740593694126 3.604025271125821 3.7360968078227104 0.783357026312367 -1.912399643990571 -0.24312428626214258
Ni 8.081360464924144 5.133633643199547 1.9113116836997475 0.4203547980449535 1.1715403818310985 -1.1118175120491691
Ni 5.950855701324825 5.938909690518254 13.103366097600746 -0.18333559623928425 1.02061971158741 -0.738317212463909
Ni 2.6782511380762797 4.994294409315292 8.839162008784555 -1.18285632106455 0.10910321998727017 -0.39401410326789565
Ni 8.936125804490402 6.23604933247349 11.964003964043266 -1.0044554431227217 -0.40447232248674214 -0.5800863817120526
Ni 6.794750078380527 9.00063796990898 6.773883947014354 -0.08960165961923279 0.5327649709182696 0.5142237175809725
Ni 7.891920273382538 7.7842208229689085 13.526188153017767 -1.0938557853644257 -1.919229779538527 0.26066795157286077
Ni 6.703167084749385 7.8241458924450225 11.397782513892993 1.2020814878427493 0.9093120277496533 0.24453993566274657
Ni 2.2312812736929266 2.6305412361117875 3.445457500995271 -1.4773494487169716 0.24232878694404072 -0.5461817585448077
Ni 8.0675145842841 8.056013421048291 8.867457094582495 0.18214491836529276 -1.538204118110499 -0.9350659967853059
Ni 6.614308782489177 5.401719178189225 3.5660158265013115 -0.6584829166440854 1.5304671544775579 1.1055625322783929
Ni 6.8035636208762975 0.7794739614485944 0.18316320696496463 0.3047392308604623 -0.9827051959298237 -2.4887710387448814
Ni 4.379895040485451 6.052864809895759 1.828624714718124 0.23961601599856797 -1.1615485607257094 0.6082723572279654
Ni 2.9895146904032885 8.21863301113589 6.369346980287299 0.4043787343316714 -0.746326713031947 0.7079717674028323
Ni 4.342972692111997 1.3176107016312693 11.155607496368802 -0.3235262816599783 1.0329414663775567 0.4450862393533625
Ni 1.0372733231301174 3.1741078969551064 10.590958767734334 0.12706726066485857 -1.0624998967609638 -0.4661253194118488
P 5.6218909227444795 8.117022411847097 13.315536146476873 -0.037705742080889906 -1.2197092282268414 -0.22009182992271129
Ni 7.10387280177323 5.899698230686908 9.977886527490606 0.5966851666109981 -0.08493870692592467 1.0310100536827986
P 9.116483691462234 2.1730155095805013 2.602011678573424 -0.4953657043342049 -1.4990410747577925 -0.5021647295339093
Ni 1.0844827715774998 0.38495533272146504 2.686380727432001 -0.4110409768431953 0.580883166581735 -0.687232735083268
P 8.394282927983797 4.120354285917539 11.756567834732692 -0.12648259180598218 0.43355895544005335 -0.0915937503485971
P 4.683540578163117 6.779134075115147 3.9581554474906233 -0.03273502833917588 -0.3621640486368343 0.2057378751938844
P 2.626843440679808 2.769444890083002 12.48564056641367 1.2814115903326448 0.4435824011143264 -0.9819048115157154
Ni 3.4760759885846824 4.685486786285211 11.172331911498002 -0.346325538942681 -0.7491698389076968 -1.2069948659839664
