# total energy = -340894.89384590235 ev
CRYSTAL
PRIMVEC
9.04154750771673 0.00000000000000 0.00000000000000
0.00000000000000 9.04154750771673 0.00000000000000
0.00000000000000 0.00000000000000 13.23321871117631
PRIMCOORD
 96 1
Ni 6.104482311424122 2.0484440079950614 11.314204019759428 0.8205593463942772 -1.0413844549385871 0.19980556886984943
Ni 4.404201181160097 0.20202615037779675 5.830874227813494 0.7203750261631916 -0.3113035143415413 2.023010815981935
Ni 2.847743950344681 1.7392140347102258 4.799277937502373 -0.6598288891490184 0.7770136005928424 0.6928246273487487
Ni 3.349965759533871 4.370810745461115 4.852555257393046 0.01771541500189207 0.8698746476896374 -0.548189790113772
Ni 5.033257821647777 4.506072299226827 2.8687501781430687 0.6978243945561853 0.8553432868426818 -0.9039080831252627
Ni 7.404430833661111 6.2557564461871 2.7495979499351346 0.7684096609739154 -0.8803866029645548 -0.45929544097420905
Ni 5.142036682166179 4.226317771481846 11.901639703666245 -0.44567373642571634 1.290953982605441 -1.320883680285338
Ni 5.497152510087445 7.867846320072062 12.358370773854002 -0.40183231376073375 0.15629941805709857 0.20163773698258178
Ni 1.7681741120305186 6.605537760958514 0.5155463380517923 1.1087751256784195 -0.501982181209458 -0.47213553016167076
Ni 2.696487898677127 1.3864670922894025 0.2538089024317399 0.6670236071252447 -0.23722309028635918 0.314218116885175
Ni 0.7057994891542992 9.45257647058169 4.622575353955258 -0.7228533125003551 -0.6925685454738846 0.27477173796409454
Ni 8.615256820104742 2.05303711423256 1.2836601740345202 0.5605200295443508 1.0838238550497203 -0.19060307643497498
Ni 6.79955129175428 0.9584763898125455 4.7961287664344185 0.24736917758142557 -0.26376073156557156 0.2905750235449383
Ni 0.9048238456918408 7.700785643004611 2.595814785682185 0.9224843034655532 -1.049379557328922 0.7639287423844263
Ni 7.481591401832006 3.7775857585545514 3.6484516616729983 0.49493273056184445 0.5723905557296917 0.301965524770067
Ni 7.525904027166616 3.772621948860877 12.48855911519873 1.318946096942993 -0.40368067982338224 1.0960427657134155
Ni 8.02731209706176 8.901069184816503 6.641977910700624 0.3672432629319546 0.7822126282952786 1.102995799992481
Ni 6.913999202687863 0.3498192892718035 0.39601978976859753 0.04908852999653482 1.2117763465330098 -0.6562398862461795
Ni 1.8931373429527054 6.03877738420384 9.180201654078926 -1.1884494988816112 2.1107157727990877 0.6045527422845329
Ni 0.29575806719453407 4.685067819273606 1.45484650932278 -0.8369871529329972 0.07408659470276918 -0.22599945365639787
Ni 6.292718293232168 1.992784240282379 7.098073360084254 -0.32162135132778163 0.1418973836991556 -0.8673135718306805
Ni 3.673933455588634 4.2714441361105004 0.6532581512473519 -0.6544938500893502 0.25485083067045144 -0.08053877808601613
Ni 6.112863826152786 5.871002424867171 4.735031411927973 -0.43105367251969634 -0.9343653711738554 0.45756483143634746
Ni 5.265435725334257 2.998900544987407 9.24263625349192 0.15770144061094776 -0.13282833151835188 -0.4149081731080854
P 0.34242963232710316 5.546013033920995 12.421982582779048 -0.617939190893768 -0.243775032472264 0.1842460238686956
P 4.126905954392674 6.1421313160952735 12.732116710835044 -0.819033396668054 -0.36870210686566823 -0.14306569297564392
P 2.6773921499102027 8.509244673186094 1.4941889958803165 -1.0247476177128543 0.4563379010077818 -0.23494817820925343
P 6.369707071996544 7.914907575911002 5.70402040926481 -0.055735345889091105 -0.4463411948063861 0.4831938448583614
P 4.607292425858322 0.9610351478149315 12.424642606115803 -0.09840511684347569 -0.8501265185284328 0.5838612753734524
P 3.988226695591972 6.144084290400982 8.27884705024403 0.4847735306406555 -0.2478057508982119 -0.1294506732953706
P 4.828150311809863 1.1223273174423747 3.9482232718967167 0.056754788292540964 -0.16480796974874196 -1.5921420057795355
P 0.45551950279440145 5.632142817421809 3.4921278225130856 -0.6496419213136876 0.11386695992450066 -0.33673506704076844
Ni 1.6989520227504182 1.192173273514576 2.587584264800305 -0.4197223066672772 -0.726884030926303 -0.8789616975925701
Ni 1.8357596811748167 6.603910282370425 4.930432820297471 0.8439946945990819 0.6478084676493747 -0.5107285599435204
Ni 6.048117302989934 5.693390261620268 9.151723491251662 -0.11391092578855866 -0.1045755073202457 0.47828586603378276
Ni 8.382699171414375 2.3286686962210466 10.297892465854785 1.009056946450475 0.0008595197868178744 0.2803294345575301
Ni 2.432935824431354 5.24059859377046 6.954625589020448 -0.8097229179004054 -0.14678196548496655 0.282936533163074
Ni 0.5978108599058924 0.2632591280999166 9.220840698578307 -1.0124646865804434 -0.31361390764227276 -0.49794812034940056
Ni 1.4327146088342966 0.8924984078513717 11.366964163120997 -0.4780272130557573 1.0804850204844747 0.4970204663288086
Ni 4.168768320297437 6.9188093060704405 1.7181345703753739 0.30973899806789884 -0.4094381511324497 -0.4805880318043982
Ni 5.573255217176081 7.777494133789927 7.845869934204219 1.0182810361519046 0.9480793783258381 0.46933611303966266
Ni 5.117543129415423 3.069343243208575 4.805524742816326 1.8514043352541212 -0.6612717922431322 0.8825877243809317
Ni 0.8317889357417542 7.364883103970521 7.151297334843428 0.15861032557846233 0.9008559265625001 -0.19354570400306667
Ni 5.133917372321152 4.552690519227898 7.100469370227831 -0.27002111065298656 -0.1544852476664952 -0.04036966206629822
Ni 8.174725490951879 7.47061496291011 8.999396016180281 -0.7484692132962464 -0.7632671975410275 0.43226800454277164
Ni 4.50726578352476 0.16210319645717475 10.346894941987408 -0.3370487416264453 0.28425345220228465 -0.6932812552701931
Ni 8.39462497284599 7.261809460058146 4.843318412250863 0.036777316729349564 0.34444246298735515 -0.6016972751136089
Ni 7.346130934016639 6.1980623302393045 6.87292345143401 -0.4332990169104473 -0.061579977595326206 0.4037601269110659
Ni 2.556452407719683 5.3496125345293635 2.5301785742245104 -1.4515278596681775 -0.7607308042724189 0.5687946108483173
Ni 2.531714733180713 5.04740784381645 11.587575214820012 -0.95243791240485 0.4689956989811084 0.45314047711640665
Ni 1.2447408319098872 3.3137272363057306 3.546277651757929 -0.9451112968364496 1.0000488294145937 0.6126087798197901
Ni 3.83036127254723 2.489219458936138 2.5710689737502745 -0.33017258333190236 0.455020467747939 -0.6104462249508326
Ni 0.9500406257976116 3.374061484185316 8.235402413489735 -0.05653958695794134 0.60782575660885 -0.2488686449450875
Ni 3.446032203969746 2.8464238843787855 7.208875718980515 0.17841656167111208 -0.646881584959731 -0.0016046254829585268
Ni 4.189572921581855 6.717399789246576 6.164019998950314 -0.15762379329547693 0.5157270415993763 -1.2950718614285568
Ni 0.786002538130152 7.4474053099344015 11.249308311059334 -0.9932012103651411 -1.0783013825695944 0.40002945622404007
P 0.06876097034680786 5.626564182483745 7.992388214870889 0.005718904761648215 -1.3859945538520582 0.8854048821147525
P 8.31148794163772 1.7040514556597675 8.026714450758023 0.747036851725094 0.2055959502993814 -0.5094743758214452
P 1.6925596485183088 3.3392967332341685 10.381870361000235 -0.7116476735925228 -0.5012735851782076 -0.18931058287579655
P 3.8957135794067597 6.242555786528146 3.9364593141691384 1.2146930059591725 0.9108336066005023 -0.18673022374313003
P 6.876106076228497 4.0260926974082025 10.436748938990634 -1.0117530052253993 0.20928985421120083 -0.6886231876728914
P 6.189237779672771 7.675324644648712 10.109941292799656 0.5443339067027916 0.07116325040838711 0.13592162573169497
P 2.1706586084129187 8.604461212137078 5.989248689994401 1.655620228838839 -0.22517438665194126 -1.0830736071472573
P 6.842127939928261 3.793236677643352 1.447727194654657 0.16460202438552296 0.6674023306209022 0.7387417015958374
Ni 5.335146058190785 2.6309818855064995 0.37894392276044747 -0.12622548148985357 -0.8851210323257466 0.667485891473644
Ni 1.278212641538274 1.2269289829180117 6.97804862252215 0.04096024446244559 0.5889754566715663 0.22444856422951023
Ni 6.757182599177668 0.79331262945499 9.197206092860155 -0.5863732431620289 -1.176632194531709 0.3618902261501574
Ni 2.5309552431729374 1.6541963615779398 9.223540504724994 1.1003195387118985 -0.3007126261995724 -0.42358050407110276
Ni 6.507780547100567 1.8253980674973094 2.499768232651275 -1.0453642655219415 0.35397997016414523 -0.09467007528107567
Ni 4.026761771938862 6.768981818941321 10.53982258290301 0.3048199634997267 -0.5594450513126171 -0.894307069700389
Ni 8.217709008772882 7.046900912500845 0.4652301250366725 0.13966977992021753 -0.28934886444732105 -0.3270790320082432
Ni 7.515108419198952 3.9161746018781374 8.134300731133262 0.5188190502611387 -0.13734087467672476 0.25412038026233014
Ni 2.991811971581504 8.223965759789317 12.202244944588974 0.37591225146086227 0.03580955349944156 1.0828036413153224
Ni -0.10800580818905894 4.821983976270544 10.234532011956125 0.6694597273705633 0.30327293072758094 0.20393090389213264
Ni 8.591956751651919 2.5406658654152086 5.724650508678394 -0.10675117481532582 0.04691286250145469 0.1534174685236132
Ni 3.465995941316985 2.6122297155526164 11.351891903085738 0.5640031029969448 -0.30244040752395657 0.44690889438439807
Ni 1.05111608766572 3.220219549872241 12.668134198453824 -0.6643524880509849 0.2898312034003783 -1.304989891873217
Ni 3.2567926103657108 8.258839009313006 8.011973111369011 -1.3693785425619318 0.6926857877780394 0.5235750768888854
Ni 5.69104850076296 7.9404499481963065 3.6247239280134154 -0.3671586736379483 0.5065723716833017 -0.2986811975918405
Ni 3.2747762487641072 8.576902574712085 3.7732801735342822 -0.9392610087032597 -1.0468462493841069 -0.422869079826375
Ni 3.403229517102976 4.390385696256754 9.365334576712348 0.8616630584131225 -1.4474441765171073 0.12025589416998
Ni 7.129721489539209 6.077701247102328 11.556861077243665 0.7347894018163087 0.13650063816361652 -1.2215884475274252
Ni 0.6922028097055775 -0.22615804122008867 0.32098398530993105 0.06681422941107203 0.9463847642322347 -0.058492596919254104
Ni 4.830781402193942 0.27189471031927703 1.6676104017628872 -1.0304143290803287 0.20269420327155413 -0.32860626728604697
Ni 6.1111549736352915 5.662305420587746 0.37180471668735876 -0.30534986786126767 -0.20743197506685565 1.6308363370259398
Ni 7.6492849872392705 8.605971150604917 11.418812014318462 0.982353726127676 0.7241941427989658 -0.2631030433769146
Ni 0.07937393905069781 4.987055512841441 5.592742464958918 -0.1059919280517981 -0.7185911947898915 0.38151725635246553
Ni 7.983786086378061 8.7804549383436 2.5320971906489143 -0.5723666444702917 0.4130487513018435 0.4224484473491886
P 8.47023039481049 1.7366643182555512 3.441166042991357 0.6501484286364609 -0.19206963367817242 1.2070750844025988
P 1.8634449002677722 3.093710214291369 1.394172299249238 0.9944646504585971 0.31601788909807516 1.1218355584068034
P 4.606903639306722 1.0696060527359663 8.290161643050341 0.1481940153411448 0.3141882920885041 -0.9121219863946226
P 8.521577344264731 1.4250383348271383 12.462648751921565 -0.09390337231838021 -0.27971339824008606 -1.3274831878797266
P 6.291723722983892 7.612820425318341 1.4484423810786455 0.35362207260409423 0.0077127952632254256 0.10904357039392834
P 1.7937074427681101 3.4545312588186614 5.888623497202331 -1.660115545606031 -1.5950933750983756 0.533937651070132
P 6.877842053389127 4.1147360311728445 5.960043586731123 0.6102315378368652 -0.411430241861814 -1.0819688041188527
P 2.3029635760769342 8.274896798048827 10.067012928419695 0.8189758039572411 0.311424870410754 -0.29566940734871017
