# total energy = -340896.3488296179 ev
CRYSTAL
PRIMVEC
8.99945789241169 0.00000000000000 0.00000000000000
0.00000000000000 8.99945789241169 0.00000000000000
0.00000000000000 0.00000000000000 13.17161630469546
PRIMCOORD
 96 1
Ni 6.414831671875301 1.8581270957766183 11.436360954276518 0.43168642100768884 0.12107581896811406 -0.293527678415359
Ni 4.6661649839328625 0.49073774571039164 5.913055190963938 -0.4537680833980766 -0.7870717561597929 -0.863175638402907
Ni 2.6266448124096566 1.4904272402073566 4.67148546351122 1.195210985975161 0.7030190513832473 1.1175006784768755
Ni 3.404566962668176 4.402039890656092 4.904134952381179 -0.39818751791929485 -0.2576718450590143 -0.09149887664194564
Ni 5.159407278808776 4.570491745777376 2.5262765570078436 -0.24598438141875698 0.3780017870000393 0.3944211088983272
Ni 7.131485511968967 6.034316588092944 2.4500124499529066 0.5600891126545193 0.32122205900683387 0.09902449559502945
Ni 5.213755005760237 4.46161630271416 11.431909822342393 -0.15457163673271443 0.2210194839433032 -0.4484214743741825
Ni 5.551198683483695 7.7172782330692264 12.459440040153984 0.2666326537967279 0.4254478962971447 -0.05129067985417618
Ni 2.0136377302726007 6.284555517652856 0.4807060498612787 -0.43731070917300174 0.4248372592963393 -0.26962078989077437
Ni 2.763751555265345 1.6387743061235471 0.588609551458896 0.11091173395091865 -0.14430059382400953 -0.9877476434497376
Ni 0.4742732372722898 9.217244898772286 4.818084834680934 -0.8651643866981615 -0.9921573424816591 -1.0224025145194457
Ni 8.579264320644121 2.3419469581110226 1.2936999879493285 0.8943798319198532 0.13690558691151908 -0.04865658466543878
Ni 6.948913507222439 0.8574674597056566 4.86325041461988 -0.9597928101080245 -0.19929854732644386 -0.736669392447841
Ni 0.7415184426427956 7.36837824529291 2.6387751818678247 0.4119169516902454 -0.4094319804848626 -0.5517165723201078
Ni 7.4193601749468305 3.935417992587997 3.8641044873870096 0.7137109838794546 -0.48909889748888663 -0.033034818967781814
Ni 7.676789671460579 3.897854254834164 12.408650698901582 -0.03046757246123785 -1.9136512570094852 0.4783414018620665
Ni 7.9060688633039895 8.87150372075917 6.908157661710752 -0.988956061935542 0.4201357400556119 0.43625244311181643
Ni 6.831011607770364 0.7664343421026092 0.4131660174059027 -0.031214220819275277 -0.9565349652923592 -0.38732486417317813
Ni 1.9189184346666854 6.4725001988342274 9.19178633199418 0.1310912942225871 -0.3175165851307886 0.10270168733630054
Ni 0.041436204537607144 4.993142291985091 1.2430348392175299 -0.18887195267648116 -0.845522444097518 0.4932352882547635
Ni 6.306793178407461 2.2242160483612285 6.9867526283915256 0.13784455378602067 -0.8724835460673942 0.8278309403550258
Ni 3.3340742080381394 4.11988888297565 0.5274969319177001 0.1859771476271894 0.5107645553877784 -0.09677786565269784
Ni 5.847622831575632 5.708095234513959 4.727358598596191 -0.04808528554300105 -0.07826052357480069 0.47235407393038004
Ni 5.145899092328541 2.6517083029809134 9.532180032054892 -0.2773767796871094 -0.6008287564657265 -1.3413206079834512
P 0.3381078377249512 5.305792462877737 12.217082835923446 0.8232638898096337 0.8202783248187486 0.1426301481001221
P 4.014676219324462 5.918925537427001 12.721371065566743 -0.14851206080219587 0.7257712574780986 -0.61510789209256
P 2.3113937981507298 8.49734225433527 1.5322144236075415 0.6037641849449666 -0.4114816639250397 0.13286072741818408
P 6.274629115462517 7.863393433397743 5.8233953906539515 -0.2362954362657672 -0.4191471508900975 -0.5345927681556277
P 4.693631329794074 0.8412405369591458 12.55575133988272 -0.05032163107268753 1.2668892283467537 0.8374504657226609
P 3.9234127155962355 6.057760176221533 8.140111468274641 0.41682004541881756 1.2016749964329498 0.2081608828130802
P 4.677990271764328 1.1830417522533765 3.649565507826062 0.14192489450298137 0.24166030012210638 0.707173439871253
P 0.13428721265964697 5.411059123277015 3.58461551938735 -0.7042097292572388 0.8351794103002972 0.23725985706156558
Ni 1.5243281985491601 1.2853745893398243 2.652802637075515 -0.9530292661319456 -0.33845333528345584 -0.6651829543720802
Ni 1.8244691228012146 6.505402217336386 4.708708121806291 -0.6871232060885972 0.023888119471507246 0.6107372738286901
Ni 6.074742153495487 5.721468429123972 9.123030472761002 -0.5879282463539746 -1.4978092592332204 0.4612793041734572
Ni 8.64576131591558 2.2983715824032944 10.117197899820075 0.0009199407111080932 -0.15891602974433922 0.1582565417834694
Ni 2.2090879594383264 5.32329640871655 6.910949293586948 -0.4276780711792441 -0.6181358802856064 0.6154958715595981
Ni 0.830838963385624 8.979416221814802 9.015154869483231 -0.6346122806740748 -0.2318818805791039 0.26213656569858723
Ni 1.5420841292123877 1.074868266915315 11.307240330463177 -0.03175980891010014 -0.3473681212745824 0.4622221277027007
Ni 4.324518559316486 6.973932000503622 1.472929593989154 -0.6685688401251776 -1.1608991000671682 0.8548822880458633
Ni 5.5839477111996025 7.722614911672011 8.00919905237055 -0.9508818807716399 0.8496714332688852 -0.6011817689297712
Ni 5.30158971598482 2.9930667449408155 4.867544955984549 -0.3092332620760739 -0.523836300970072 -0.6586379541647108
Ni 0.5783807674792587 7.473239930081521 6.657856635890537 1.1904575304505756 -0.930433640219617 0.34350323900253743
Ni 4.899997901531769 4.480740150995639 6.958051556890681 0.016851781450016142 0.3318908515745897 0.15955777709339616
Ni 8.004765919352453 7.361133681590986 9.047938995085396 1.4753946389834462 -0.15393143204555426 -0.4444468059971507
Ni 4.610323346950943 0.1695947862891659 10.524516969353755 0.3155581758528372 -0.08877736394572454 -0.6191980030015336
Ni 7.936109054157439 7.093282812696082 4.51442692223669 0.7387460724712116 0.4569007154897873 0.767497176461975
Ni 7.1999713874617 6.174420150467565 6.945314623962316 -0.06491495550583014 -0.2488712160482488 -0.37646735263338393
Ni 2.1431849283958453 5.287289577199281 2.774403313771679 1.2428087903587823 -0.5043018304815703 -1.9385223092195518
Ni 2.488386138928073 4.952950712490933 11.366459464038055 -0.6270797197424556 0.7106703972809181 0.034456639015972915
Ni 1.1891793826194796 3.4164732456217743 3.893530015258046 -1.0556057407442916 -0.3063011760309435 0.24465075020899804
Ni 3.5964084091699617 2.9423457995693245 2.654463037079248 -0.2589676810523024 -1.2516042771632252 0.7761265700021989
Ni 1.094145105983046 3.280716421468308 8.232786986965392 0.5214911977766632 0.00734769861432283 -0.0764844055109844
Ni 3.453191034322215 2.5916639191060757 7.401948023579769 0.034280261339108706 0.07821244394568466 -2.011896965456961
Ni 3.886109962124832 6.8380581833959635 5.927991591431125 1.45703130598491 0.2395075154451617 -0.2232190626977833
Ni 0.8255265833194795 7.236248202719414 11.290907214112092 -0.09712804990326498 0.11203607736334899 0.25907798137792154
P 0.1426261104561734 5.77687809212118 7.965666874061293 0.7891263246959764 -0.813555147162302 0.34387399207839486
P 8.414286256316554 1.6608859744659445 7.930169411867662 -0.10383785782327279 0.34990220055034577 1.1025211743489078
P 1.890714133248259 3.1038500731031733 10.391667870084875 -0.19865011510916755 -0.4854106500040221 -0.8501100634682004
P 3.9586545931822466 6.169956419292217 3.680043972284832 0.12394388454452848 0.2550909717057155 -0.06494658007471396
P 6.841073001830925 3.7671011293369348 10.17957854299556 0.7825175611302072 0.5935121681996552 0.2709279387379721
P 6.3765659763963125 7.619985092471075 10.275744051504455 -1.7262198934342723 0.37503344840033476 0.8052175738308842
P 2.3402910578362968 8.45925654801658 5.634672256354299 0.16247340807829436 0.34435941635524564 1.022085240389343
P 6.94597968390961 3.841796630859889 1.516422174683146 0.11708083887610804 0.9472116310089042 -0.7940458734847808
Ni 5.25371259934601 2.8392030112615436 0.2656334024400528 0.8214008684589661 -0.15451815778695968 0.9842260034497243
Ni 1.3222993655746054 1.081914842540914 6.889453188172763 0.8366382542340107 -0.0629442049327045 0.6201737366512416
Ni 6.735698347935472 0.6296686787056824 9.15794836985848 -0.046743169692809824 0.4400191092431003 -0.4290446125094675
Ni 2.8943066926862486 1.3683135944043483 9.2632420286318 -0.10603743657775286 -0.2522118503857076 0.2260573034775268
Ni 6.446653755415682 1.9762629811370789 2.4226028006771885 -0.6706696885182644 -0.38592309872964503 1.4219429469222091
Ni 4.195835309162663 6.710508864952008 10.641954496772266 -0.28731486473642776 -0.15219876562516368 -0.9391368244205698
Ni 8.146453386337681 6.937259209093256 0.001763893770903503 0.18195311406946083 1.509487209791781 1.6974639043475024
Ni 7.748695340998941 3.9121993909097776 8.130733133077404 -0.2514852566323282 -0.027616990386320178 -0.37403148949838166
Ni 2.921125077570394 8.314212283191825 12.617078146524669 1.2551783676677286 -0.03926743014105495 -0.869000215504484
Ni -0.05353237605531836 4.789790538682359 10.05753059323606 0.6174681647946204 0.3952914273184225 0.2095544207264972
Ni 8.586202902773543 2.397005642245653 5.775490375695296 -0.22171882400317297 0.7698924161670289 -0.08696884998207602
Ni 3.764275299520283 2.722156060320876 11.566970988391313 -1.24692718340253 -1.4891844936786869 -0.3284291182782344
Ni 1.1364245597366411 3.1791575377711347 12.567434436277551 -0.3695832239190409 0.1822791299503119 0.06414876676376693
Ni 3.0338072913738774 8.204211907876756 7.749625884957673 0.13661145270986794 0.6326104197526976 0.5719444693312085
Ni 5.643227141143181 8.019273045672332 3.6540040405189687 -0.6283372462986404 0.0003679248623800115 -0.3153766559696504
Ni 3.0342842626486624 8.322500784023468 3.566794792626415 1.1847861910974111 -0.3001996911188959 -0.24183976312276417
Ni 3.4094806667442645 4.216831044711224 9.083001783456911 -0.20402577759878412 0.41163901543851045 0.7570168457559414
Ni 7.193437780942945 5.916594677801164 11.445516102914988 -0.3252756602509172 0.9212501739481359 -2.3280891753493713
Ni 0.6589268166576436 -0.11459909836063883 0.3328755528351384 -1.2964234903604446 0.0942962368814247 -0.3587848477519563
Ni 4.484168944499283 0.29322934049667776 1.64445026429349 0.49876213161026367 0.8795463664514466 -0.2632591093388047
Ni 6.040283228756765 5.461105109297394 0.2993714705917882 -0.23323993726889508 0.013657699992750672 0.8017352717092386
Ni 8.005800857024157 8.906817594009299 11.1239699677747 0.38643500536905706 -0.98184207659858 -0.09152073101881658
Ni 0.050122481413505414 4.903597684737694 5.788977863422097 -0.2538874383159176 -0.32566338260763916 0.03215755856915107
Ni 7.910127618868671 8.680112247158124 2.558889692907727 -0.2458072324109444 1.0749900588081744 0.09146905184527472
P 8.474825610382206 1.6490786855505086 3.481245044791794 -0.1706870542373383 0.6766109937033638 0.3443349908752134
P 1.6643147679695884 3.4101826244694196 1.6645766521978196 -0.2336870521086427 -1.1244120608847281 -0.4358084135958623
P 4.802623765811484 0.9026816367178826 7.984554936542784 -0.3494100914052756 0.2602300927044937 1.7698684833621585
P 8.591296596009927 1.479519897093402 12.358703706919366 -0.26033267972062907 1.2842104932340206 0.424474733750598
P 6.371904257144639 7.8077407850341345 1.3668844804715956 0.18614066978824717 -0.5872944694247176 -0.1072517686008282
P 1.7240351713558928 3.1172862639192904 6.009760666953723 0.8962176564595403 0.770928313630711 0.29202461150727127
P 6.857281025715606 4.11700905641091 6.105715588145072 0.29725577799922354 0.42539493157202224 -1.3474398335073117
P 2.5328704598952974 8.32244678727538 10.299532318875013 -0.28885161309592833 0.06640156735368564 -0.33708936505639364
