# total energy = -340890.51758774545 ev
CRYSTAL
PRIMVEC
9.07049932222179 0.00000000000000 0.00000000000000
0.00000000000000 9.07049932222179 0.00000000000000
0.00000000000000 0.00000000000000 13.27559261819697
PRIMCOORD
 96 1
Ni 6.3942849227517335 1.94312776092694 11.532878916742161 0.7664602505570284 0.24003664847575434 -0.9418670788675392
Ni 4.587668179688957 0.16054965570759258 6.2266385082151094 0.31463566403856785 0.4559733185795115 -1.0830661509480894
Ni 2.758411469809639 1.4485406332804784 4.9167885338348585 -0.5940446436643576 -0.14904813581132395 0.2793133345881899
Ni 3.4351795804329597 4.526895832865708 4.823951971187702 -0.7130049589513656 -0.5585881026289606 -0.044468257615704054
Ni 4.871193853868228 4.825868567737515 2.3008591917272554 0.28937663236146294 -0.866129064604276 0.2855166351854244
Ni 7.089511499910175 5.9914368273098 2.684683728513607 0.7504173381615528 -0.17370861467248147 -1.4289738856270615
Ni 5.194919981946102 4.562252640017503 11.432277099450916 0.07106709115015503 -0.5036022333113842 -0.15095126637130776
Ni 5.752030062824303 7.906137642722701 12.253464796474997 -0.6518397002959548 0.7001275887680651 -0.11279326724434768
Ni 1.8632982945998633 6.5794228885740225 0.29432682501466256 0.7386542840883538 -0.0837364590877074 0.3427028545884292
Ni 2.8444179463138246 1.4375834698532417 0.5020267513575705 0.13291189237109366 0.7931287609871502 -0.27899014692081625
Ni 0.7776239019012888 -0.1081339600975167 4.515414394565877 -1.4508724854723658 -0.006617762426833764 1.4640527316080656
Ni 9.07530689060675 2.708487440419316 1.5151571029482376 -1.471205540602763 0.034279490008160315 0.12669316515489149
Ni 6.903221580648103 0.5473837842366236 4.835648380326295 -0.555065948408315 0.659608031387464 -0.7129165130026174
Ni 0.7819405526256447 7.469211680562119 2.57237189633448 0.7938568974024264 -1.179571222555375 -0.19862594673945147
Ni 7.444539921851785 3.645279560950409 3.852603968612947 1.2014952763219757 0.6105259291488324 0.1634725387667701
Ni 7.449320075101912 3.931798499973213 12.580098019650908 1.7104204645081704 -0.13750979615442124 -0.30422063935283095
Ni 8.180973778356199 9.138891092283018 6.8431830372364955 -0.7066851873809248 -1.214765768178637 -0.9595668101401476
Ni 6.956057240386226 0.9308055908440269 0.6419636968926506 0.463076505283196 -1.3187126407759482 0.018488802832806867
Ni 1.6367807099406104 6.559767116101487 9.315868329681889 0.9860260327729404 -0.4422549405521545 0.12082256530672741
Ni 0.2261221108799256 5.179001255278221 1.552766115132303 -0.6497337096965455 -0.5296860748826296 0.18574960499741558
Ni 6.505153638456296 1.8535021551119366 6.8918644081917755 0.41465800477049236 0.04407487883202732 0.2896972489256753
Ni 3.6534430105236817 4.190960812426029 -0.018159140050767807 -0.8309995678909947 0.05866948881675057 1.279726232210422
Ni 5.769517985910157 5.562901077210636 4.726881299361874 1.2221985703075984 0.3940130748266311 0.27314422966300056
Ni 5.4436693609432325 3.1174218410431003 8.668617438615618 -0.7184369286002144 -1.7184657034101498 0.500108618335829
P 0.1646268452444658 5.415478248416866 12.629389835224279 0.01524381353294794 1.0701288740611312 -1.3563268515842966
P 3.9208050545478734 6.271896672649331 12.606065045693535 0.23530941820341408 -0.9291843411935482 1.5533697701073441
P 2.3375947148069804 8.55249236843582 1.3096613079901134 0.3223057789893159 -0.20573119032566506 0.0932953064207361
P 6.383799425299842 7.745081853141565 5.984849830554122 -0.7285488202232356 0.29276611765898614 0.07746939513207303
P 4.829569331544065 1.0396243736557458 12.746534429550783 -0.12406935437879923 -1.0375157160118 -0.14640221354804467
P 3.8065621130196914 6.180620235920621 8.349524521695551 -0.09598853698218307 -0.7598969955172139 -0.8681342679597629
P 4.65007321642686 1.0002946877116254 3.892271077139429 0.896061076277018 -0.6786221105961217 -0.0014339042330491433
P 0.14264267554364365 5.702586769908851 3.761187846191539 0.6358194136082985 -0.5276057953148333 -0.5582376612680773
Ni 1.5224379929176437 1.2742600553906418 2.691082058879147 -0.19464382216325188 0.5549767311286183 -0.41861853208013716
Ni 2.019827904917596 6.538124904232791 4.875341793301403 -0.6257625435929287 0.3339230515132701 -0.3469217777657832
Ni 5.832186067134311 5.387640885372008 9.256964505760967 0.5862919963021322 2.2421983889228225 -0.4952176087921149
Ni 8.648276843428881 2.234880378176164 10.352347054102069 0.5185076896683071 0.5554937799743529 -0.4188830985954335
Ni 2.3018569466751 5.0228798174391525 6.955375138821881 -0.4025733056918163 0.4760135250598383 0.6738223752146332
Ni 0.6102994900978328 9.044612320211249 8.991253292650482 0.6139439536914458 -0.21514142789597143 2.034924022479754
Ni 1.3798315993721038 1.0137915910061022 11.841497220809766 0.5837257782368527 0.21514914120545528 -1.2137365555831743
Ni 4.08039142320582 7.126863816957658 1.5474299402612406 0.11372169259588802 -1.0452963883984836 -0.28630904917973277
Ni 5.488305289109981 7.74640614607234 8.183207842389418 -0.02445993281457723 0.16763309790236292 -0.2804880716225815
Ni 5.006707116784548 2.889507399456865 5.240819430696801 0.991723340268034 -1.4500903558907026 -2.6107827392637035
Ni 0.5557077816515036 7.406507317339862 7.140875017575252 1.005107989105056 -0.8829453648306665 -0.8630789649240427
Ni 4.869125779976332 4.630081835471869 6.757635528008318 -0.1637990688682534 0.5195662128398084 2.228266095112446
Ni 8.328714074633377 7.188915104214054 9.298065660262488 -0.7835295473344892 -0.6570981204814167 -0.11381656630253947
Ni 4.92957158881665 0.44383042639966525 10.33089350862351 -1.2419315299601514 -1.285159230300535 0.3051308098719261
Ni 7.901856366946497 7.228979500619769 4.548987941510888 0.8932392905575067 0.3426203221769519 1.1114580718272213
Ni 7.28037295093328 6.059819323235244 7.029439395650322 -0.11771410158473275 -0.23457639669213148 0.18940571369276413
Ni 2.428943715531897 5.139934613820349 2.6355506466819394 -0.1526024288214856 0.967099885292399 -0.5018613393608776
Ni 2.369150982657441 5.1714636701722325 11.264446553773919 -1.8082419409340342 -0.6360125034557111 1.5001744170312872
Ni 1.2502141611475923 3.4504452311349785 3.8834563657002006 -1.0708994336785684 0.3011484281854104 -1.0999698686819634
Ni 3.602394239192152 2.7352544845201234 2.988813949415817 -0.004417669451721424 0.526783299413538 -0.1120371058046135
Ni 1.2215785941444581 3.28909011506949 8.471660611911135 -0.5258983257054233 -0.11532914629232396 -0.5981987750420471
Ni 3.589505059365908 2.4218687259017275 6.910052573841027 -0.7287113139430288 0.7576624497597403 1.1145559940262546
Ni 4.105616482387231 6.880681389326345 6.217411089047454 0.12984739451315702 -0.2250825982690833 -0.36001923437968963
Ni 0.7589132754793488 7.450172702057342 11.573821337501979 0.36651486940636235 -0.26165165564236875 -0.731812835686488
P 0.2759490859253216 5.393264595078039 8.050903722205348 -0.5556287628903205 0.21709238097475514 -0.14465514894995085
P 8.637047565015868 1.65099418269763 8.102930293385764 -0.5101428626433795 1.6848341313986337 0.21983703359942786
P 1.8166305745393239 3.121675905320728 10.607039424388542 0.2893092694586372 -0.40472017683149003 -0.1787891145191824
P 4.021587374779682 6.299489132206991 3.776707470880282 -0.5778932307154757 1.0370909697695558 -0.9791683864211589
P 6.902414306190302 3.7577265435724714 10.22563126867588 -0.0870593528133533 -0.12900227290404234 1.1691502843323671
P 6.368633550092607 7.634884354401916 10.14945630660777 0.39777999806823106 0.3376182409766702 0.1348708158696774
P 2.4545950881910237 8.465560700979996 5.957382543889919 -0.9074286946840114 -0.013708350725028004 -0.4091255049880374
P 7.060748945913679 4.086042344410429 1.5769680219671973 -0.4444984851706925 0.5221666265771329 0.32732894323552014
Ni 5.660744555596068 2.776924359341915 0.4085189717454999 -1.6664345458455236 1.8482395643728946 -0.040555038604226934
Ni 1.3884667149207204 1.0287397742247162 7.104553109273906 1.1975033815537635 1.15266051420746 -1.5023138319717932
Ni 7.029111043567487 0.5724428532767116 9.142661698935914 -0.24628031539262102 -0.17389913341673277 -0.025414069197730427
Ni 3.098691259522204 1.8202406333506151 9.122920663767838 -0.3331782029274456 -0.8197628186349107 1.1454136028370596
Ni 5.9534405047959815 2.34720944430439 2.6820015818038105 0.5162407480110012 -0.749170096018013 0.4249907541550681
Ni 3.9683979655600505 6.654526624648127 10.574328481948442 1.0271271736886247 1.8401321047744115 -1.8153788090891316
Ni 8.258798664288062 7.351113776735447 0.20232656242378957 0.13927023048895368 -0.3904281856888501 0.6906289052490105
Ni 7.620897644133042 3.811632522254646 8.169149475174292 1.7911374200432637 0.06263490122240181 -0.8770295135668638
Ni 3.2804005765237174 8.430131329831994 12.325299524519984 0.3050894151110294 0.027223868712959565 1.4433394103201143
Ni -0.014779471927433101 4.66903963093543 10.24646076378706 -0.1805716603409019 0.5881097662371614 0.4305024280019166
Ni 8.640040829859402 2.3536313579686974 5.627895741563172 0.0844964771821835 -0.6740414332039746 -0.0516712031220465
Ni 3.765128071185572 2.4407535059145644 11.513643108397675 -0.5421487261260147 0.6041002281281467 -0.46009813938116245
Ni 0.9956687329534378 3.336565109587831 12.790476464503802 0.6993603715847375 0.6418157404010495 -1.3903746851976249
Ni 2.9164377125491376 8.267225158347584 8.154387237195957 0.5599261047140938 0.5306890622258473 0.34673048769058346
Ni 5.817809325385825 7.848122727755313 3.476307039383105 -1.6257689498053616 0.4432003351845593 -0.2533781027796668
Ni 2.8396922160608526 8.60949138745631 3.454123318692714 2.2883432629100007 -1.540195437508915 -0.006339054844150374
Ni 3.615727873495164 4.3144284519720095 9.429626906535391 -1.0921889391849642 -0.42508922740614535 -0.2453431482903323
Ni 7.374561018009791 6.2773752543629495 11.49042353666143 0.42923101748866077 -1.2070506589225665 -0.4920975751058944
Ni 0.4085416479943145 0.2618843693605261 0.7905956232732183 -0.20803181343438365 0.42639406226049786 -0.8588232749714823
Ni 4.70762553591843 0.3015369650877672 1.7038162366864642 0.35553085959103287 0.868973990252239 -0.11957840848698115
Ni 5.9288503805813795 5.564506555626714 0.19892240395173508 -0.19261830709279085 1.3586043347645633 0.8606477297747307
Ni 8.187150788533309 9.13988884723086 11.337435956408546 -0.969385338892466 -1.5294371705511467 -0.24313045690972962
Ni 8.99822578563601 4.800307900073647 5.748676699149593 0.08249795869491598 0.22316815485518984 0.3682213105745078
Ni 8.003799711117615 8.759082065636763 2.5948875973075176 -1.7656274486976171 -1.0841948652358941 -0.47816965217089263
P 8.346909496682247 1.5766070160860681 3.2021929155118647 0.23153940963802058 1.1678729602818403 2.0658721341218356
P 2.1456992268379276 3.3240750317407244 1.506368695957634 -0.3785676868058383 0.02611906568455502 -0.20998585183696095
P 4.9203559612983785 0.9698268798042682 8.174817630328 0.062310942224079784 0.5162098947730658 0.7341893063384646
P 8.455419882510087 1.7380165551487121 12.588036520835939 0.323243717422553 0.3825187010337864 0.6947429274173841
P 6.361286445476662 7.859370147167377 1.02309701646968 -0.041756772221811955 -0.7469010974781781 2.767257249446086
P 1.6580601018282732 3.193858940547506 5.884393141255292 0.8834364455344722 -0.6099816266095882 1.6669073717168839
P 6.760424706612519 3.906201550311242 5.993000581428058 1.2182794377588502 0.2724361478523824 0.09195216212928034
P 2.4404813909287886 8.53457813187225 10.417516779095454 -1.1833805689991361 0.4334118883392278 -1.4137966636659909
