# total energy = -340888.0245147699 ev
CRYSTAL
PRIMVEC
9.05692589353730 0.00000000000000 0.00000000000000
0.00000000000000 9.05692589353730 0.00000000000000
0.00000000000000 0.00000000000000 13.25572653329531
PRIMCOORD
 96 1
Ni 6.546137515321104 2.1441275099229813 11.451264266333496 -0.1653746408854894 0.7928541671695248 -1.0517002350422984
Ni 4.958521855894777 0.4134269170772889 5.91719743079096 0.15401242179513475 0.9741328808797806 0.3914903084047774
Ni 2.921773255900649 1.6711386273213917 4.757573130501351 1.1831630536716913 -1.9133949180243044 -0.5998694778762508
Ni 4.259780045755518 4.901590021565089 5.093393063486336 -2.0157009125840832 -0.847471597404089 -0.6316876508281121
Ni 3.712153039273725 3.0921883680144573 2.8334111726568163 -0.8478726894972494 -1.72920263021168 0.25431372722005885
Ni 5.237420822860795 4.501373536169837 2.3643837893132296 -0.20711135850264328 2.870718954876862 0.6867817635887784
Ni 5.417409105335163 2.995387947187906 0.36099456338632063 -0.24873649024259745 -0.35647676844406995 -0.5545630406299674
Ni 5.675286947980595 8.265893719270201 12.113572781856458 0.7803195250376239 -0.3394064432253445 1.9792403557642044
Ni 1.9464691656005033 6.651225023072832 0.2672264012510805 0.8281209607916189 0.20871804086813087 -0.5502826680870587
Ni 0.5677043991547245 0.24209614978519067 0.02264593677345694 0.8156495677974855 0.5923361456136831 0.6735125572836981
Ni 8.420667520870587 8.761452460470197 6.926157056625486 -0.44337465597889447 1.9532920113295587 -0.5401031564508957
Ni 8.844902972960451 2.5233590987000527 1.2406276314823959 -0.2969212774779403 0.4856039969617508 0.6318205768615506
Ni 7.001900125429046 1.239304414652048 4.830823733379437 0.9508258307227238 -0.8594393112889263 -1.1952549518392188
Ni 0.9997759032748219 7.82865252201689 2.4559411559091955 -0.227037408002609 -0.8597552998674484 -0.027909067705442256
Ni 8.240597726065808 3.83530911360002 3.8113526396920574 -1.265726061276588 0.4598484852642016 -2.1054810067627097
Ni 7.557868560389624 4.149684058146278 12.69139014413758 1.5053194515673365 -1.3159762156813917 -0.46254762936291954
Ni 8.69748339494831 7.368705612281152 8.733190324131384 -1.15979455414908 0.7098694986461774 1.940621872061058
Ni 7.047130411881872 0.9112535124478469 0.2430552782063669 -0.7012293064726762 0.5521670295939652 -0.11624805856216754
Ni 2.1796306582800247 6.740924814227974 9.316229909714206 -0.6292535874653227 -0.17200037373212315 -2.039630169706171
Ni 0.31265865714481433 5.1609803707859365 1.272152072422794 -0.13089331927916814 -1.0214226671046795 0.41294565006507594
Ni 6.790049578689352 2.3107568271354517 6.98425632866518 -0.6643332047772752 -0.4907284626725097 0.07518779818674792
Ni 3.530009208506251 4.464837898294247 0.2855059941921572 -0.21270967852602723 -0.1559075819353186 0.166869480263461
Ni 6.498316948146311 5.643959042325745 4.4017627513292075 0.18377396932828352 0.5165176558214718 0.2343213432585319
Ni 5.285440642398816 3.202972681969394 9.107134479742424 0.7655372245221268 -0.8008477268979627 0.06913644978634545
P 0.13733650274022918 5.987723710448178 12.4320550421629 -0.45942425324258945 -0.26341311841816567 -0.7813906466146155
P 4.113900145095595 6.334748871787075 12.561205895544687 -0.58835093571369 0.8445953042975584 -0.526915454116028
P 2.5118205754840135 8.63180257048778 1.0813561606284108 0.04656884889847463 1.0833582282672116 0.8296859912858936
P 6.794922204662844 8.221478556121491 5.594472906532876 -0.8500141613202845 -0.33713641624424523 2.984692872692872
P 4.63613153219138 1.4565347751989062 12.295454867474055 -0.12737682148547738 -1.1220283911439 1.2701172483657481
P 4.362702948288539 6.296157311799993 8.175098040117303 -0.20654005938020556 0.08784122528470033 0.1786019382090408
P 4.970495111539678 1.2949229947695486 3.71992750420987 -0.24051127411932774 0.26423869964325464 0.28750332659815003
P 0.4108900722163685 5.809084909888402 3.4722450427138054 0.2829491315685643 -0.47300713413334666 -0.4050212530116767
Ni 0.8378109027470142 0.13968043508584213 4.5753070312382595 0.9795499381302938 0.19777876824780777 0.24892983720032616
Ni 2.0421374707268933 6.3429906740842465 4.698943122621423 0.9069944353600702 0.6954895757754215 -0.1675330819893889
Ni 6.473274548858753 5.824680935773818 9.172312644832083 -0.3936526061634188 1.3696911887063443 -0.35529071855576877
Ni 8.86432102144961 2.562023114091945 9.90026394572805 -1.0835055524783532 0.9380775299181199 -0.5173807751527154
Ni 2.741821201128686 5.377667315796718 6.895217693078932 -0.60028393970585 0.4160307167483029 0.5476015217104698
Ni 0.7568130057095882 0.4076748636279117 8.98174859033309 -1.460936040355955 -1.067191388699362 -0.1659873347688238
Ni 1.3909626338455914 1.3679308720415198 11.123913464478274 0.18996004353433737 -0.12967590193229922 0.5676057327465386
Ni 4.460291321642401 7.19988451907317 1.4357409797109124 -1.0341411431126124 -0.4476722549129838 -0.4385178421072254
Ni 5.976348211892963 8.20019478095847 8.023584731733381 -0.6471217259949952 -1.663684236793896 -1.3326068822595372
Ni 5.530321796806403 3.0998233562963415 4.931209791051536 -0.9886922667511939 -1.186435810885692 -0.8480480387328491
Ni 1.4755633758872095 7.653256100822374 6.654891266556232 -0.9564323782762237 -0.8791861548985503 0.9030776168041673
Ni 5.699242516195999 4.896391346269951 7.155891408657481 -0.14313562698163093 -0.44748919236790025 -1.007371331217936
Ni 1.0600678570025865 7.810312247674284 11.300201992844517 -1.2582153547218395 -0.8360420154109086 0.1728840618886571
Ni 4.845192545845878 0.4938804928860776 10.333421375227742 -0.8988867186512713 0.9483269755602701 -1.4620796670420948
Ni 8.339046507351794 7.497060361902586 4.446659742919905 1.206100122083839 -0.4960984687351714 -0.6959325768501111
Ni 7.968699762589584 6.392812821816923 6.56582636588574 -2.228037009820776 0.6277698038309447 0.6552266144903168
Ni 2.6624463051590106 5.49707382292408 2.446132505483002 -0.04997401792528167 0.0993037173983451 0.1805436353164439
Ni 2.6099070797459474 5.444027409677345 11.100821926965233 -1.4155378147268136 -0.03295048678409164 1.5693324640841875
Ni 1.4296719338654902 3.4019623943552615 3.5955224798431575 -0.2514112088612831 1.5242268299948007 0.028817952672956816
Ni 1.7477964456106811 1.4141936480128916 2.509428641432714 0.10637656508472648 -2.2899247484645078 -0.7725956740308049
Ni 1.3785184180694239 3.4230559740806576 7.606427267000922 -0.3653581300940998 0.572799361132336 -0.06777119400770264
Ni 4.0299243309204655 3.0094895803491095 6.996531179932604 -0.5126075221337881 -0.47800253046540914 -0.8129853907017611
Ni 4.703487887888149 6.9729089065793275 5.910250768854773 0.2860568239596106 1.4933861904648604 0.5083490039677503
Ni 8.047902576972835 7.815021848986953 13.041779047644795 -0.9765363481149504 -1.7258401414973503 0.23343277000599152
P 0.6132906227836803 5.796948629582678 7.859783892386192 0.9630879359195285 -1.4806044653191597 -0.38111616425930495
P 8.921950239050597 1.8773829371138893 7.574785991720266 -1.5345438956500927 -0.5569006876242086 1.6295865237792386
P 1.6433882072790496 3.7017104040554423 10.191731208350975 -0.9530043264312812 -0.6898431761229217 0.16397801764827888
P 4.571120920225345 6.35154041185186 3.573121080060935 -1.1764370478017674 -0.07962063714712095 -0.5905875383536925
P 6.671775187262151 4.097796931376507 10.406964516802748 2.618430742727264 0.16914516367151514 0.42909192080763514
P 6.581006678886057 7.960919863498078 10.15277284287704 0.9611889191246027 -0.5692003309271682 -0.10372498639449232
P 3.0412341045816187 8.584525418849065 5.612421015996945 -1.107530711748357 -0.3587987317090272 -0.8206624476310447
P 7.091074614899314 4.311486034013263 1.5298967782618875 2.0436842851708867 0.04546918807639266 0.029147310987917542
Ni 2.4286055430593927 1.733069884582989 -0.002551335941882427 2.025906135251859 -1.0087167895022369 0.857833400254387
Ni 1.8015402421287157 1.0149553105825782 6.873067170135865 0.2349749176821308 0.030093219840954623 -0.9866081305286558
Ni 7.008167517945137 0.8526724119661654 8.986494419348166 0.4316691946165082 1.8174236074333023 -0.5133035197595481
Ni 2.556281023260729 1.8517337238110458 8.932093090031477 2.0400176349525765 -0.28649134039386787 1.038055133455038
Ni 6.454399915905672 2.437553785553464 2.407292785734445 0.9687225084974865 -1.1291313207372682 1.0800988407896495
Ni 4.408087202476586 7.09188973820343 10.34594800902688 0.025378587974104683 -0.13889176410361243 -0.5326690687703536
Ni 7.063949122723461 6.102520242444486 11.501185134555227 0.3058412056753894 0.9308578722412291 -0.875472453492389
Ni 7.849519678602253 4.116445141189557 8.125243287452461 0.7303671043788971 -0.002905346572253061 -0.36488170467831355
Ni 3.2780364813528573 8.484455447880448 12.258656578756028 -0.05981414394415506 0.38600974490618034 0.11937606266818794
Ni -0.08911199668361869 5.2245690454325695 10.005250015913044 0.5657067159516128 -0.11144858029099515 0.8956985507312768
Ni 0.14747844802854987 2.3855126910484707 5.533469984145411 0.15056251557332137 -0.3785085514331287 -0.30069282870523056
Ni 3.3804612529778075 2.8069404962019364 11.202904346802454 0.344578217234271 0.26085564210363466 -0.20552653051402667
Ni 1.3262961850524053 3.6948090267472615 12.613791311278318 -1.370512399056059 0.8944006578554596 -0.8598563442216869
Ni 3.4679692681374386 8.448408883987328 8.067832341758466 0.5947190440235628 0.5487243224610034 -0.14623509184256106
Ni 6.064680407282311 8.073062716293208 3.6541923381957315 -1.7117841776249165 0.2855613723804308 -1.2661603206005292
Ni 3.315668007226203 8.33184625149877 3.24933598981494 -0.006411045732666379 0.14966700034224548 1.2321466826592458
Ni 3.2498151011792484 4.2048860196861195 8.975783699132084 0.6005523628758883 1.7066980213512606 0.058159639059867575
Ni 4.798214272752005 4.69111612751679 11.260063509964734 1.1125019397107034 -0.21062040009716632 0.1094264076546438
Ni 7.996133190235881 0.07166201812761985 2.2947115777402125 0.5025848477904634 -0.6299493279807667 0.1216741146737453
Ni 4.853380006589441 0.5594299919253891 1.7120297407186402 -0.3700246823318337 0.7500496704094889 -1.0765363202493718
Ni 5.942882871796209 5.691843007979748 0.2638608476976424 -0.10576901340771462 0.9403601553047095 0.5894855635387655
Ni 8.108158302998195 0.39515819244693373 10.894868344484538 0.8624192198528566 -1.4197243420043355 1.6312417999944746
Ni 0.27251383441711163 4.797317637117477 5.858394435632047 1.6554075986074006 -0.3382201362267272 -1.3006485841853859
Ni 7.601604454118236 6.5004996672162205 2.3487288934114057 -0.12445424852204373 -0.5400846445081344 -0.7078642952906906
P 8.732243875406049 1.6246765989867913 3.4021217962458445 0.5302440042686287 1.5312631680162918 0.9444644072810702
P 1.9450381713555 3.296929228157141 1.4578253870970896 0.7822769058743109 1.3885497161737441 -0.3266967089681599
P 4.793423159108924 1.2924504540803974 8.149527622067192 0.6843788105742407 -0.5763238293458267 -0.43042092403170384
P 8.628225084875272 2.081870203339738 12.351340626896794 0.08989965047562581 -0.4947370696112705 -0.6511668425986463
P 6.398256034103296 8.081775478721646 1.317043629858131 0.5175604952636892 -0.4473364688401199 -1.3689093162349972
P 2.3766550178104127 3.498373367380957 5.479082240217124 0.02142654530489213 2.098992313714572 1.9915862789240668
P 7.221829449805089 4.041154918666061 5.651035218298031 0.8799639136048394 0.606356114041859 2.3057686574753
P 2.519029888262638 8.78456573460468 10.081072785661895 1.0577068462476946 0.3664166532656012 0.13298105504613228
