# total energy = -340871.68750059017 ev
CRYSTAL
PRIMVEC
9.22960493861333 0.00000000000000 0.00000000000000

0.00000000000000 9.22960493861333 0.00000000000000

0.00000000000000 0.00000000000000 13.50845977042237

PRIMCOORD
 96 1
Ni 6.171772336765522 6.0337435921901665 2.5966100335829663 0.2210451949749161 -0.3687288463385456 0.3137956846357757
Ni 3.554099421337325 3.1600229715122525 2.8160272820309 -0.24856808298553318 0.2791467271033386 0.30432194081738556
Ni 4.374629775749781 4.661448984470861 12.29379248712961 0.6739293331061426 -0.5744831765926622 0.4726291819686376
Ni 7.965176907707506 1.3013835515793875 7.450131715411597 -0.7596969636912657 1.560543662147964 0.10231139387641734
Ni 3.3487591666190024 3.347116296907574 8.59745931312408 -0.1008504930601747 -2.3096510232488416 -0.9758606622041646
Ni 6.881732021835767 3.6145625644809667 11.617113835162959 0.8856445089293844 0.3340204963230828 -1.91138225846965
Ni 3.3636649788884245 2.397897558301592 0.37410358434456004 1.5056498383235617 -1.3027517465713176 0.03959601712506729
Ni 2.228737355655178 5.485781936192916 11.612047704912381 -1.0070743688028077 -0.34614093373570065 0.12675692851329137
Ni 5.370190361665216 0.6298476355858166 1.3512381865976584 0.05544146879775613 1.6714787931376502 1.7640030257203168
Ni 1.2696060211499025 2.5155565643762583 7.262593523049473 -1.5409294874614623 0.2276110211178919 -0.5996010547062126
Ni 7.097778618493736 1.0449112844941326 12.111564086593242 1.9203533516200089 0.9404558003423094 1.5222002864830753
Ni 3.8068521575590655 0.8020785278557826 3.502878804761237 0.7566859447790839 -0.6362192201498785 1.0014994458181914
Ni 1.3094594560597244 9.003848979140258 6.72224167647398 0.16445804260849098 0.48381193805833456 -2.285037595575536
Ni 5.005205627179596 4.525450753021991 6.927962190923263 -1.5364447122172313 2.374751869513233 0.07797281713105282
Ni 8.932697953267212 6.425807988098995 9.298615800830502 0.617393345692627 1.235725915370072 -0.5938291852194418
Ni 4.689147029437137 2.4442209464008036 10.73021523625084 -0.04484492422883245 0.19592937374389482 0.10637270842998456
Ni 0.7533056025576207 1.3465901574590327 13.44139051227212 1.8973057257719261 1.4869337499712973 -0.479918002320567
Ni 5.440667626364475 5.951037100706397 10.387627984510859 0.05737108172030119 1.0882050148365516 0.9578387717054472
Ni 4.912208125986599 0.8043499336759092 12.614065322570037 -2.3080816218791926 0.5561980051302292 0.5512612299502442
Ni 0.44252264710197314 8.855307714332785 3.558168754234903 1.0848031882438542 1.0122839380282052 1.6633278818957418
Ni 6.60049672421252 5.148070684838034 -0.11612319978263431 -0.051978964170452426 -0.8818963547408618 0.9525189021544305
Ni 1.079743814218465 4.529299498357191 9.28082573696096 1.3370610613761489 -0.33787715106501165 -0.7288473253002609
Ni 5.9663120971806345 3.665528443955732 1.7997729984750503 -0.633391006672464 -0.8655852762856641 -0.584022226431349
Ni 7.621475642629495 0.984392763719769 4.007405939061956 0.9824887090436435 -0.07776687176783381 -0.33982656148189866
P 7.587372251709673 9.113099814950255 0.8250020980932824 1.1468827311834184 0.7459654730377863 -1.384066226481094
P 8.323147142301634 8.960395998233487 6.009035939282896 0.9105464143773867 0.19318960621522857 -0.8869146338910595
P 5.483142269128486 8.107571255504803 2.855377703461661 -0.48522398791451277 0.07488877888909039 1.8454784566879896
P 3.7689092509091626 4.570020516148329 10.110042072752211 -0.08790807396689378 0.6835339460754422 2.639597606612867
P 2.652893088567585 8.391686189925611 4.4932375852308235 -0.9731260368818209 -0.3861601544411156 0.4833244568989547
P 3.0647457578545194 1.4033245401340382 7.086348675512652 0.4308626395548128 1.8419426756205892 -1.7076038209949815
P 9.636353818040234 5.267511004700934 13.010862659984598 0.22333270545751213 2.1478047072315847 3.2071966544911863
P 8.056725360896603 5.866161652019337 4.022117006663338 0.5342621242890864 0.13158726002239918 -0.6543784075574085
Ni 4.761230245427343 7.902221771181361 8.828588930469783 1.7992363950013142 0.9814052461714775 -0.15750886498416744
Ni 1.5885350260848015 3.762513134560736 0.7612273726324471 -1.3067765514599947 0.6413935652619663 0.3162564874714424
Ni 3.9733726931410493 6.657720275958906 0.683194753181641 -0.2811763559388577 -1.4881375404714112 -1.6398053732937694
Ni 1.4399199244363645 1.9350513207245315 9.501337616576173 0.6152287339411404 0.3380188188491985 1.55782832009933
Ni 2.607538809006014 4.4864372121781235 6.748881085732948 -1.194527329644575 -1.4980874525952714 -0.30073165236296595
Ni 0.25593048926468825 3.9128357131564444 11.619909482553924 -0.9697468359969427 -2.765619713842663 -1.9265625657545145
Ni 1.3655939144019051 1.801711215550331 4.853062970454149 0.06994197640677632 -0.3889017217419947 0.20117056753817608
Ni 2.5378460607419875 6.528422737827435 5.9697122837069845 -0.31601557510522993 1.9481914568781997 0.07995076679303005
Ni 6.431364210381466 8.746435292332725 7.181029656679608 0.3679269192625405 -1.266510504851096 0.33416550654137933
Ni 4.097593948456309 2.839940265937305 5.443544494280499 -1.7975356102601234 -0.12360527025818711 -0.11965554158181974
Ni 8.149049100915814 4.20456507180157 7.490657065574183 -0.39565215309195084 0.3033508351533679 0.2640340398316163
Ni 5.932291772706896 4.054916254379649 9.121371387059144 -0.065334559541752 -2.1322446480097987 -0.5266362323127124
Ni 1.3624835374763353 6.619454333129791 3.8302833560781866 -0.3994537862262282 -0.5511843539657217 0.129309519731816
Ni 8.228036061536068 6.799643913895063 0.2198759598224168 0.372876549958332 0.40881902949121207 -0.5452214515140674
Ni 8.167056060505685 2.639233272989416 0.3655486633584753 -1.5612985380361175 1.0913417606933207 -0.9282980819338528
Ni 1.941059793657902 1.3543337961550355 2.2622888161888013 -1.5221411511103655 0.5399735728515669 -0.5223962260894358
Ni 4.536194013382119 6.666128446223576 4.713020326041525 0.23392950713675195 1.3092990607715322 -0.5634629142227586
Ni 8.242868036964527 4.76502361313182 1.6850591593942985 0.7040791172166455 0.02859041004318302 0.879335278881905
Ni 0.7605582262612192 3.591479322074884 3.436903741439702 0.5962241678141796 0.6342255867586174 -0.6986602601939192
Ni 2.8226809043621857 8.095157436617887 2.128379244378673 -0.5953402225473295 -0.4143111629540348 2.2395925758688593
Ni 0.17127101333744596 9.331130776709106 8.682994678577247 -0.3262665634092768 -1.0414471898557225 1.3682534278185532
Ni 2.865312450413243 0.22759652450561876 8.743120941133995 0.058154239743228885 -0.24618287058280827 1.4278055763505733
Ni 5.69283889746363 1.3038570857516507 5.675268498195954 0.9539744036540345 -1.7884030518312362 -0.5862549724166096
Ni 8.224842618164415 6.817078637967471 6.374466463695831 1.2631549581153019 -0.14368815705099125 0.2320495165052197
P 5.844915101032212 2.7405466483958807 13.12952030933329 -0.8658200180042895 -0.4258531021553633 1.6281163669916152
P 7.776089987606182 4.798619375770022 9.968891875725141 0.12465608012020468 -0.3262526794522058 0.27648152156634964
P 5.7254009443283485 6.8199951931855125 12.520288842704877 -1.1844424346047473 -0.5470749597830384 -2.2395275269588786
P 3.230592532262715 0.1798037832712418 0.6037177005294949 0.1982348819486199 1.8435388164631152 -0.691851464802202
P 5.668703480073824 1.9435425574352854 3.4226790740281654 -0.5651210186514719 0.8608822143830399 -0.27732175807945786
P 2.7691768834793145 4.526041447749695 4.553620430809917 -0.3379386004305664 0.33320159996621324 -0.36657451899970417
P 0.7517208793584506 5.708446159722201 7.378294006917594 0.825151850860966 0.5155547776875702 0.394762551398146
P 0.059769999799100394 1.5866337274300024 11.342797049537953 -0.03187113767698382 0.17282081275088945 -0.7118479625287869
Ni 0.997341899703669 6.324863796897346 1.4802976009170241 0.7860813672220656 -0.33472343592737835 -0.5676111320631773
Ni 3.1334047903450624 7.308601258653568 10.356882323933831 -0.5512553164129732 0.7872648460072055 1.2524439994557013
Ni 8.635089336160402 2.8641587497731953 9.345504040763084 -0.8532270118306273 -0.15489379595882355 0.9122597975240676
Ni 3.9996401493136644 8.726730085400703 6.598572351544919 -0.9978806181186815 -0.11226670531691633 -1.105475371881225
Ni 6.728049866976238 6.202386936949838 8.14064369953268 -0.6579391283254733 0.30680202692676195 0.039924089888447374
Ni 1.8453672477697516 7.46478463650072 8.32011706294061 -0.9595657816988828 -1.7104004099035126 0.2908498744728797
Ni 9.078045774703034 8.74701675745531 12.357228486082526 -0.1898227466255247 -0.7972872632402139 -0.5790409711666737
Ni 3.483935963212159 5.861888344848599 2.7729351786843353 -0.6357407378515632 -1.5715711236067191 0.12094572114815298
Ni 7.214256235112993 3.377970866825021 4.037084657287066 2.064540045573973 -0.5977128365445642 -0.5276551604955299
Ni 5.830129273629356 8.588424452671736 11.143168997428637 1.030714891039883 -2.068615758305244 -1.06773543412829
Ni 5.248848743147517 1.174919502219874 8.61240019789296 -0.28005252674705966 0.7238683840284308 -0.4516667207843576
Ni 5.985278935703025 7.703416076888272 0.8287059386280929 1.2263861260263846 0.04474079455080037 0.09873396093780415
Ni 2.3774816717753007 2.695386190541837 11.851187696542064 -0.2686995636280856 0.591795956839497 -0.9110850604896761
Ni 6.742023489128501 5.024237072937829 5.584559939072811 1.4987376845847609 1.5889011302447344 0.5571505988514855
Ni 7.614636505235288 6.9379218578086705 11.310430670301788 0.9672814051755857 -1.3842672867483063 1.5552639018062635
Ni 0.6358404181904825 8.76500525783494 1.2416246273064315 -0.3547114490135311 -1.025732093113311 -0.4996715307984105
Ni 2.095517235347543 0.3608387958655429 11.325384476517835 -1.1705515355552678 -0.6665204422365811 -0.19143508541796708
Ni 3.7128578590130656 5.939481635095675 8.430832637083213 -0.05564818549192352 -0.8616869696725226 -0.582830520116093
Ni 6.851606590722831 7.955568888777186 4.74367092168581 -0.7831263983587997 -0.35876864980204015 -1.141651564691466
Ni 5.219369384393007 4.472343605159296 4.101736195234338 -1.9379618087303916 -0.34009112799719493 -0.7403224158193961
Ni 0.24859018431244617 4.758922844147246 5.519084197388288 0.14061234633914493 -0.29264836113419923 -1.062530492888583
Ni 8.085244840718593 7.683433981802638 2.381541775067758 -0.8279659232709935 -0.9103854633194902 1.5879097128657427
Ni 2.295864273695737 7.9315903746744265 13.023168492491608 -1.0317248203616358 -1.1821857773600866 -0.2914358288833368
Ni 7.281613893281562 1.0971508494755111 9.867727096961115 0.04673417083174532 -1.2876688840962662 -0.5543830634086775
P 4.050449125501383 0.24638523164918621 10.602682398618386 -0.04795158817861419 0.6595967185335544 -1.0590286503829116
P 0.9117650010274605 7.207324801667585 11.005328536797736 0.8842167753439224 0.6287787047114332 0.34342353480453763
P 8.380638352596511 2.658633902952465 5.862955287200516 1.6882009909883378 0.659721931257509 -1.2885217190148648
P 5.229688082917598 6.913251123321881 6.665776798268491 0.5601767872723191 -0.6810296915963497 1.1177210220177975
P 6.021514365405657 2.841158573813196 7.067787939615558 1.0149789683618649 -1.3072465491178777 1.4198040462023356
P 3.776662119210286 4.408733166669603 0.9676410304262705 -0.1734846715871335 1.4006637258284587 0.574378789804314
P 7.304540232400599 7.870370403910913 9.534176551594502 -1.1821168717953643 2.5858168133469857 -2.082577876912291
P -0.33066167896393256 2.1348907307911045 2.240391578040688 0.9570545852412549 -0.3140988176984913 1.3063386925916276
