# total energy = -381163.7249506138 ev
CRYSTAL
PRIMVEC
9.33422963612054 0.00000000000000 0.00000000000000

0.00000000000000 9.33422963612054 0.00000000000000

0.00000000000000 0.00000000000000 13.66158859085316

PRIMCOORD
 96 1
Ni 6.445668383500269 2.1920131903937192 6.013038966555673 -0.1270549193696844 -0.9557466650631088 1.3899098297460641
Ni 0.8637924263868909 2.7180157083427 8.632580417305773 -0.4838834147262183 -1.1639021485595504 -0.41968528278175465
Ni 0.8771217065478638 1.1422483696488621 10.3645962289678 2.1011232440146457 -1.6835724910773906 2.5604937612011645
Ni 5.426389157297246 1.8886040505951032 8.609055357929233 0.17201142947571668 -0.635762335118118 -0.4718131138252455
Ni 6.77388790611952 3.3588945924969282 4.179121368116796 0.5121300682767372 0.5952528050398458 -0.8242943879566771
Ni 7.7800432052172726 8.110409600691582 4.516562176360014 -1.5754110661780998 0.816398015927736 -1.125785544193487
Ni 5.090758256213141 7.467897226321548 3.7056789647745534 0.6469209228380988 2.347977686743182 0.6321026268783436
Ni 3.7326744907924456 0.35598978971092465 4.152699897231887 -1.4882936064333014 -0.06483730819035931 -1.2918027037589817
Ni 6.568413505430796 3.655331062631506 1.2634262743951972 -0.7664882755814864 2.089852813307149 -0.6196111792795522
Ni 4.990760652316429 2.4515047789616786 2.896707403453076 0.6501515139602544 -0.04939757659652137 0.7438353140686609
Ni 8.517447359780899 6.015687087551239 7.8492387841817735 0.6541040708500994 1.2084279988860671 1.4255352922591578
Ni 2.8088564328010954 7.085884537338371 2.977146995640202 -0.7628560781455378 -0.4541010412574631 1.0095739952962097
Ni 5.22813011624748 8.5845698063058 8.655818915827313 -0.9465786254105958 -0.31025424714142047 0.534219443976609
Ni 3.2041423965664175 5.510733257811637 7.288949773314526 1.9814563895789163 0.3340747465997859 -0.905124472030867
Ni 8.928937546487012 9.340017027081723 2.783316113209741 0.034679810770372535 -0.22621311232910074 -0.7515689352674928
Ni 2.2355107012831685 4.4072686130009 8.872081819324196 -0.9770773082200851 0.0578963580961519 1.4154154302163364
Ni 7.3457401608687105 5.596692180082225 3.5578742360876086 1.0106749416698722 0.18126071598812654 0.3768656165130671
Ni 0.19105674933253336 7.2381444939110535 2.0257817586495075 0.16988692693354615 -0.5580620549221615 -0.0896566812268843
Ni 7.848957823864656 6.044063146157231 10.655328551268784 0.16249577667579757 0.12381610071741257 -0.10995991156061062
Ni 7.832893614370933 8.160898449704678 9.284607172115638 -1.1000855683242214 -0.42946010278033137 -1.669990124407266
Ni 1.0277360384059941 5.764698982335272 10.80284671910073 1.3556599074242588 -2.256413761191256 0.7948706833789214
Ni 3.873854716587064 0.730698443872 12.174770347052707 -0.1669039330458222 -0.296678822449831 -0.2369742075003467
Ni 6.461545908397899 8.445891154098813 6.7203953019553015 1.318524178914226 -0.41098107013953744 -1.6453070198382889
Ni 0.8636150760206034 5.684405937556078 3.7425790420381095 0.7120657349665478 -0.4388500286356635 0.8433766013991087
P 8.759997321253504 6.461275215733565 5.14066464928643 -0.2545626100060713 -0.8629642937230492 0.5907598022654987
Ni 2.8085484032175434 2.9584748023390746 12.432346551664763 0.8870989819877239 -0.7641097480469808 0.6060241846237369
P 7.905541924940159 5.39220720775279 0.6768548726671287 0.0280929015814742 0.47821901735158934 0.7336820276847429
Ni 3.4472617460571033 2.6058556030105917 7.264795586849155 0.18666723171567853 0.11404410893231329 0.2246712217632776
P 1.139924146427516 6.419177839314806 8.782297729679682 -0.26704480163348204 -0.39423753213261137 -0.8074240945638999
P 4.138498800007165 4.410264900768177 1.2870661447983343 0.3707818722128324 -0.0630475632797882 -0.2738399701784445
P 7.370625217527781 0.5543571078264229 7.898529118087961 0.08632067487511585 1.6887293526879819 0.8555924267390104
Ni 8.455393400039899 8.710021854879662 0.3634702414763334 -1.0721245643349213 0.7944179121122189 0.49710325585060194
Ni 1.4420078255938789 1.2813283937374451 13.344134654283941 1.5165533726099432 -0.13285070011585506 0.2129264225225236
Ni 0.24605589818721438 0.3039057208242211 8.539558283342043 -0.09990484131745375 -0.4861927795856852 -1.2937531426171331
Ni -0.09515127178216072 7.0170819294486435 12.445407006007363 -0.48373171963970246 -3.0949242927473155 1.6401732981561492
Ni 4.934923289625296 2.1431578315964277 0.1442661221680201 0.5910477658195628 -0.7050345391513794 0.7501748831334435
Ni 1.4457228490561107 1.281160377600962 4.2717327959691245 0.581432868437618 0.1519200580424803 -0.06603904180794433
Ni 6.498920164535529 0.5237286995685796 10.315538317383748 -0.9898042688684502 -0.007658544986522293 0.6531352791789268
Ni 3.2822045604223113 5.4311869514168105 4.935043701189775 0.818617649286874 0.7510701412542032 -0.07293396915556472
Ni 7.0644064745579795 7.232291931823567 1.9487706290696123 -0.5935887870738615 0.3748956372708898 -0.9237503146621705
Ni 4.957885494944619 5.420461921371323 3.20925755449934 -0.24644280911241428 -2.9059849771680084 -1.3119102731421342
Ni 3.2459504118612332 8.783556917280322 10.244894065953574 -0.6098314741849692 -0.5063913660207473 0.04288162985487453
Ni 5.197663190165256 2.6413443447276923 11.507033150058714 0.4112024421217241 -1.4983281078511679 -1.5668747465723145
Ni 2.5648970026279945 5.4340058888178016 12.944273051068402 -0.6812456642618977 -0.6990865490980606 1.9921100126380207
Ni 0.883285098487843 1.8606013611812944 2.162247264969821 -0.3083439174925851 0.7751181833423425 -0.8723398214006782
Ni 1.27310493727959 6.1906665594683234 6.134859066312564 -1.2563392207450492 -0.2880669124111039 0.26597907937312903
Ni 8.445228423782687 1.2365707618243742 4.659516839240488 -1.5933578804645074 -1.0374581233009876 -0.8028477880471271
Ni 3.380783361388722 2.255943330325444 9.876372139306989 -1.0736515425024091 -0.8540569639310904 -0.20038843795651293
Ni 5.339459475126979 8.104781060119405 11.227421629146933 -2.963194336499465 1.70790412584422 0.6739794696177877
Ni 9.024333375090054 4.294501782731492 2.256225224065543 -0.4954765188804563 -0.77690484292912 -0.8545202767207541
Ni 4.1221172267000865 7.083831006781358 1.200746921257289 1.1379856858041046 -1.271598718007281 -0.9087597547906091
Ni 1.7096948679302797 0.872076555338476 6.51032099281887 0.9397040097779493 -0.6004353776820499 0.3771828906431698
Ni 3.8273235810111186 6.259179806234108 9.470814789064681 -1.6831516014898882 2.608427608767966 -0.8968570898157522
Ni 1.6752982311003182 5.419295142645747 1.446721611645203 0.7427014575745339 -0.8798423004253105 0.10453102723555545
Ni 5.478539499215561 4.1914985568377 6.85776249487474 0.14476262106209262 0.23309389860933405 -0.1513706132969135
Ni 8.00313129754728 2.070052143766778 10.240836476257511 0.17410585011090016 0.7846276654946746 -0.04607828241530129
P 1.9280505057493547 8.922104890270043 2.378414025899717 -1.250184771107879 0.9580550014813114 0.5818095350507464
Ni 8.970950914837529 1.8837875880159278 6.686924620721957 -0.347941220169233 0.660625931129017 0.6631471548889741
P 3.2660563428603484 6.763610919104652 11.619263262114357 1.1877139062671673 1.8775005181205404 -1.6010081979209136
Ni 7.704967994898851 2.059831162130738 2.1315087128002834 -0.32403098921053874 -1.8919768573598446 2.3692404527767
P 4.34308644886445 3.289429254291074 5.299862738872873 0.4292672700432349 -0.34345207404962785 -0.5308695536677696
P 4.673546186636806 7.229874366304175 6.734985636562877 -0.05465779655419619 -0.30826806994932715 0.892985522675488
P 6.810580763481414 1.106264913752118 12.759349824140473 -0.25468293763401945 -0.042310330732436806 -0.5021482744736772
Ni 3.356103657785352 0.008023703940036625 0.8152105605228742 1.2181953626854762 1.0442268094833886 0.5208365949117997
Ni 5.949647411683673 0.5432960455079685 4.366066389220402 1.4627635804829968 -0.1950174034525867 -1.0352647151940944
Ni 3.1203490156104974 2.440453050873029 1.7427679109739487 -1.302714208465163 0.36960842073002154 -0.8867220582642792
Ni 4.652936207228243 4.216859659216806 9.092715942638574 1.7561336502745692 -1.5594604563861143 0.17732512837914624
Ni 3.0221249153766614 7.709215069459946 5.467299219684858 2.567928877322971 0.48134265058223547 -1.3838214574601395
Ni 8.70782831087558 1.9994200268353484 0.11691309514861185 -1.278974955866694 0.6126172644602224 -0.9062434161266586
Ni 5.303457350770626 4.442477327823862 12.808777371224787 -3.3490901815356 -1.9393975127356535 1.1357796792917214
Ni 6.3713585800258254 6.130563453756486 13.042896656337875 2.6629864178504525 3.7562426219576666 0.9351629273744863
Ni 3.3252073571321166 4.564102342177837 11.011650639560752 0.722719358025652 -0.05067155821293854 -1.0285042565418094
Ni 0.0991733914049641 3.268063202268338 4.531330794756857 -0.0988900268996942 1.043851942642473 -0.4030728710360542
Ni 6.102691443559941 6.088559419635772 8.280986116409835 -0.19107255987222577 0.6195728698424491 -0.037141384936987654
Ni 0.4924543626082577 7.877837930880096 10.38067630665219 0.5565142508190674 2.1616842934271543 -0.4238954642083603
Ni 8.978436967140821 8.677044020979999 6.5459226787166065 -0.1403313247636164 -0.6155172117158367 -0.48970567783495017
Ni 5.84899641170064 8.414397462738084 13.62074055319864 -0.024193309416751883 1.6410158486621027 0.6104652511142261
Ni 8.802318719187575 4.249529463532915 9.786027995874198 -0.24137053679582945 0.041620760864579935 -1.514343766553134
Ni 7.623452166015254 3.8064802458574403 12.318804980321573 0.42389572131867637 0.19267152892822945 0.8838028277349554
Ni 0.4898939833728551 3.0020563212967657 11.384762207002261 0.8837236377575877 1.5906335395548088 1.5508112653515485
Ni 7.456052088699507 8.082182889762462 11.544479279765842 0.8196918561876594 1.3057221420535512 1.619286170294495
Ni 1.460004220657153 3.8008423710554604 6.548477457414127 -0.22209780460914655 -0.17107709058690537 -0.3735517216484857
Ni 1.1665360356004388 8.293444512930039 4.530429108157732 -2.0525970142794843 0.01614858473540445 -0.8257113229088618
Ni 8.040085513343703 4.674936986877691 6.217785297319636 -0.05931355015865269 -1.975718458653875 -1.40330219189257
Ni 2.5239944076242247 3.5248758668823768 4.2059115410789865 -0.6089678406330932 -1.7557256162028732 -1.2024596971177743
Ni 5.562164864034998 6.059679312620331 10.846058602558156 0.14899568530683371 -3.334481430483489 -0.4616803962666178
Ni 2.318734694221008 7.729881054247337 7.521688525839513 -0.23867833467564703 1.3796557561182239 2.4825708234714408
Ni 1.855206176354234 7.634177196060743 0.17360453986686736 0.41313411192679816 -0.25470093535614846 0.4776479753394678
P 6.58020263767401 3.960327021496905 10.467632124665908 0.07023739616000807 0.7212877677854481 -1.4930637741284352
Ni 6.342739831444913 6.256127513088003 5.69558461117007 -0.25260882871381013 -0.22545309423462465 -0.3674803186434252
P 0.6468705262658029 8.880044850770503 12.585656609090462 0.5763315426553106 1.2251262854773546 -1.8708295338582686
Ni 4.57390328347267 0.48719172384442255 6.330233830352706 -0.9553103488566386 0.12251975050349222 0.9227779234465721
P 5.731067752349287 0.4592441063864611 2.028363606613461 -0.0007330215112826086 0.024599800826551183 0.2654707722781428
P 1.004633819639602 3.6157912651792086 13.42774321748973 -0.12936556978073205 0.03554935785951942 0.9740973996561546
P 2.6655666710706365 0.4136174576785819 8.404718799853692 0.40800244712718764 1.625626510690226 0.42160975349797714
Ni 7.457545565468243 3.046197894042732 8.062482064336868 0.03704136902401362 0.7017031607853011 0.5201498532574204
