# total energy = -340885.45920727117 ev
CRYSTAL
PRIMVEC
9.11441334401492 0.00000000000000 0.00000000000000
0.00000000000000 9.11441334401492 0.00000000000000
0.00000000000000 0.00000000000000 13.33986522798905
PRIMCOORD
 96 1
Ni 6.533275251819449 2.217910445981968 11.53324733783111 1.409963920183462 -0.5540290225033685 -0.27163062123195153
Ni 4.705060660742347 0.6956184028776736 6.012530539654943 0.08707375099105649 -1.5041280023623969 -0.8865348819541377
Ni 3.3522082951438517 2.293004097131776 4.859299319752254 0.20491743617511804 -1.0830103580094896 -0.4661808552401326
Ni 3.8617495704843074 4.727965181356434 5.271061169247931 -0.1363258031486491 -0.6160592002622358 -2.2577507348351245
Ni 4.2285044471219 2.7917265638892945 2.503479597622376 -0.9768482229284143 0.5819033803161333 -0.6221691698147156
Ni 5.601672839958279 4.731109653943725 2.262227457753507 -1.8609760381029563 0.29040687339819016 1.0410347849086523
Ni 5.605209232317318 2.956670101315933 0.3192587575082365 -0.9988725497183055 1.0814345288819376 -0.6637217964455214
Ni 6.25077401169464 8.484242761173721 12.472026438721938 -0.9408437798093474 -1.748907821950091 -0.8171269236739604
Ni 1.9755673108415084 6.921129995238423 0.38329844821205744 0.284407975502278 -1.9291616939402583 -1.0466616441771266
Ni 0.8669839559130215 0.1967464597420926 0.2617231121327931 0.026393145281548097 0.5101006965515344 -0.33753519434456064
Ni 7.888953085539857 9.02202960332001 6.450972099752114 0.6944565065252168 -0.12879864153366852 1.2856518536662374
Ni -0.061404713819804786 2.3430695693694132 1.1448970003843755 0.11330980186945003 1.289448344594192 1.1265003108723246
Ni 6.9488104684198735 1.1192226095694837 4.7056239314840695 -0.2873192356118019 -0.1289768189827456 -1.1033683528405513
Ni 0.4814360704993894 7.652023911897515 2.168088328579347 0.20081575530191867 -0.5821576624187844 -0.24118567447853298
Ni 7.939018557777495 4.142619330629044 3.768725134056308 -0.24545936215322245 1.276277611540189 -0.30930371030269316
Ni 8.332943500451933 4.139246997709342 12.157232832287654 -0.7924471615390933 -0.3285193639991955 -0.266928844880908
Ni 8.07691051654014 7.488274362612717 8.636402422510699 -0.11533351716769816 0.04788448238610463 0.3816018456464718
Ni 7.126304552955784 0.9748958750195128 0.5095576812843897 0.2593582316225017 -0.0665018403769758 -1.3673278306804904
Ni 1.9810633020592938 6.410704621808207 9.249075107183636 0.654993158323272 1.4881033447993661 -0.24978524322208598
Ni 0.22638744322361834 5.06227274665851 0.8376264306850166 0.9084039141130871 -0.4253931317998093 0.18118666821708151
Ni 6.426053293799502 2.1303209342026674 7.013087133869403 0.6108421748376707 0.3045924208699528 -0.728505625690126
Ni 3.6366691341274064 4.579865079701715 0.29493876850920353 0.6291193758803036 0.008019270760050705 -0.3434590160281633
Ni 6.248048802118989 5.858990956144877 4.474377594532092 0.10664987335077115 0.35084862362401514 0.5475053624522377
Ni 5.5300244370345455 2.831128172570035 9.389223794678493 -0.7438623106518544 0.5634364318601974 -0.1906161890610975
P 0.43367198761911646 6.121941779748707 11.706999044267478 0.29984693576516747 -2.045298680845858 -0.017263157955821885
P 4.2745595775090806 6.582493083620513 12.781604777867969 -0.7191591514782195 -0.2758228049364282 0.023747480128584908
P 2.4294012921137975 8.538965698605868 1.6078672695450695 0.6195319893021846 0.850107492365039 0.8289406284794368
P 6.347414135877358 7.804207270709063 5.645364602977679 -0.03147364512824902 -0.12890997030055218 -0.09230260349016361
P 4.89749326867121 1.1135716733256578 12.632118373950854 0.9694969247696658 0.6933344771056318 0.16770328901866602
P 4.023904097442219 6.4427508989586775 8.175229515652074 0.6263166163241859 0.17553744035110413 0.06115857378719145
P 5.030417872187267 1.0789733604521694 3.5882907397909496 0.8913898960535939 0.939593452342014 1.1195781298311944
P 0.42272922301534666 5.883444927019369 3.380134857484307 0.3433942242284989 -0.7958839551347842 -0.03338243211518767
Ni 0.8300213642304227 0.3537832436340233 4.528591036260963 -0.3292112478598975 0.6837923419431514 -0.23117199899627283
Ni 2.0863074323939017 6.626397212469721 4.8050995496433275 -0.25156753193348935 1.3862755754275866 -2.2718210968852617
Ni 6.160477519166281 5.792000018415651 8.918940120288694 0.19589646362343036 1.1546988847937276 2.2607003043817517
Ni 8.636544607358125 2.267192078676107 10.062087153320144 -0.34316976692251866 0.9290372740927225 -0.6461645042880484
Ni 2.529924156360822 5.616957711056498 6.842736926475284 -1.3063456345701632 -0.6079802799088433 2.148908224708409
Ni 0.6592719455339179 0.14333326350065312 9.181816205703493 -0.17091356842584757 0.14812665243831907 -0.20763072134122307
Ni 1.3728220451311124 1.3657128027598475 11.280283176876248 1.275737422766003 -0.2697686283225483 0.27763131890007664
Ni 4.257451823751563 7.2213223115717255 1.7703198378177765 -0.20224965953496782 -1.8026523626613986 -0.5122650511927048
Ni 5.613758551989429 8.15600539512711 8.00486654807934 0.12079479739258552 -0.4373243360197565 -0.7028658136348347
Ni 5.591956875384217 3.2335477484368056 4.467920944152856 0.00928142530192595 -0.07287817621696481 0.06603364249130562
Ni 0.8399287314837108 7.857426329947287 7.109094717769344 0.2289557080712444 -0.6060516954275627 -0.4136519321034811
Ni 5.4284898729116104 5.000477024508286 7.009725738245656 -0.34259152582154545 -0.4463926168696119 -1.1678878726801758
Ni 1.5277488423449046 7.883548238455036 11.526710480614863 -0.5127018816198073 0.17346770230626898 0.30507681670553916
Ni 4.7150774009551935 0.3616617424875121 10.515935717653706 0.15189331856960292 1.0942185680204832 -0.2612266522898082
Ni 8.46101012168096 7.624616871114959 4.308415977140235 -0.8367711802674492 -0.7654467216908495 1.0337215390766907
Ni 7.712844391825015 6.1208753933930184 6.629686604228425 -0.7393489961625331 0.7657668240344295 -0.32242970616168987
Ni 2.5832890462117897 5.323191056097224 2.285372598878622 -0.4418016550648198 1.1534099907789748 0.784972450428603
Ni 2.8472151120383455 5.507119916420458 11.352544979814834 -1.4547227124563913 -0.60723003200638 1.1380905868130853
Ni 1.85792757842367 3.5710727016325445 3.6434238258214378 -1.7847364016129261 0.3355101934947319 0.49948306893668815
Ni 2.2763064919726004 1.3910417573108023 2.436259888119409 -1.6389013734222613 0.3942845833204629 0.06801210637391514
Ni 0.9459667272164431 3.6276185217239885 7.891584416658555 0.6105907209484968 -0.3544566526902476 0.03214598860492529
Ni 3.860765213848286 3.14186586508738 7.042235027591588 -0.9760069579740418 1.0218893223284529 0.4603333953204201
Ni 4.037411657947622 7.1996664655792575 5.813753388630392 2.0960825962669447 0.9007659379518551 0.5567443645520024
Ni 8.528374750355342 7.3328553870809134 13.12237172787327 -0.004250547746237841 0.012986384957338925 0.4539503746122117
P 0.44863967713461766 5.754147859995315 7.795443762324484 -0.5853219190793791 0.6009305721509135 0.38210423920418707
P 8.625853400561338 1.6836053097149395 7.821042503509016 -1.001728273999546 -0.9734448536738203 3.0856377252390663
P 2.25671050338514 3.435131227315347 10.496713420011401 -1.0248885141660928 1.803937142911093 0.8720590569354659
P 4.25478130065569 6.21326820097957 3.7234100940288033 -0.9013750322907637 0.18143632233404236 -0.8198594921137752
P 7.133896859231762 4.1004287114795765 10.121395552081754 0.2877547804873237 0.5179659582322241 1.3291474629560271
P 6.513615462338913 7.965450356337326 10.110163860576485 0.08880127520512447 0.482607119116956 0.4566610886751554
P 2.3490395100786166 8.913887089557118 5.927515849631902 0.7204714425317398 -0.7756102924874126 -1.0162082127832757
P 7.287374464731412 4.04929685288625 1.2001239648718172 1.4768524544758954 -0.3318042053980544 -1.2234483835542993
Ni 3.1678692862222753 2.028850170972808 13.609464203264464 0.24416429749088273 -0.8105950360927137 -0.115251241866537
Ni 1.6440578704214555 1.4542775567618726 7.250470205293911 1.0151694871061163 -0.5588431560625602 -0.6243209260503957
Ni 6.7736861313410515 0.8729912657167401 9.115196224595435 1.3165958515432616 -0.8034828505279646 0.06267372488013723
Ni 2.9677349990578756 1.9298949858127807 9.375123797308818 0.30084066713700447 -1.5962066627672125 -1.0938385589732451
Ni 6.602152873101049 2.2888205814286855 2.2754479142400705 1.0353184512501652 0.03174695339429371 2.6550118842854085
Ni 4.411047916624067 7.1485072637460405 10.629525004802582 0.23388965503775203 -0.2342079576091192 -0.6728001045977058
Ni 7.349470962520421 6.241267678626397 11.238703223417643 0.5846266927845674 0.739388848261533 -1.0717538112590639
Ni 7.635362764391525 4.05088276079984 8.006320297000132 0.6806013458096795 -0.4927202962915579 -0.03791194455442503
Ni 3.415207119849213 8.690237616087765 12.895794704853085 0.41497682156249177 -0.47308195323534 -0.529449019171159
Ni 0.32104882827966774 4.769490448335257 9.88522652050834 -0.41647757447773437 0.024204365160345413 1.1513014290764043
Ni 8.92994668578554 2.2507132194360473 5.886802676877796 -0.5091650721111425 1.5339985646695842 -1.3719429608549985
Ni 4.234237413085395 3.043165883499654 11.566956995408189 -1.7129200910015727 -1.0125104522167143 -0.11243125591923862
Ni 1.55305045365597 3.4111420915189767 12.614003477524074 -0.615679448325314 0.7135939986856162 -0.5160497150461177
Ni 3.231269145112682 8.589906154519968 7.8723484473963055 -0.3872754989924814 0.2940652960863839 1.2614348901004018
Ni 6.216139241167965 8.121607599346143 3.103879724791585 -0.796103527344758 -0.1311943954593547 1.7870923034396127
Ni 3.257345481553949 9.015986747304435 3.931498529677052 0.11246262337780631 -1.5431151822588713 0.010266157812698448
Ni 3.905908902905817 4.577267471912215 9.360770419249501 -0.34725936361085996 0.08881155961776963 -0.5717678345440282
Ni 5.4261565831077085 4.921500633294173 11.393952670862133 -0.3050678178444746 -0.2796784312370925 -1.0989619962427397
Ni 8.225931173937806 0.35112274639277696 2.5936029162981016 0.8450812427950413 1.6532704976597399 0.935112533752525
Ni 4.584941807907862 0.34954686433381327 1.6551975063524293 0.3474797071517822 1.3499767409965524 -0.828309165543025
Ni 6.14844649361491 5.73898147626995 0.029949050650947225 0.5989554507024136 0.35767593095849365 0.8661894855285663
Ni 8.423194420913811 9.042837808875905 11.277588956305804 -0.89378564997928 0.023648235546559274 -0.13324510734079634
Ni 0.5112374676549334 5.159778740104396 5.5160611558643176 -1.114338735809126 -1.3268715224376568 0.0539132050786878
Ni 7.517112366282821 6.002798169136947 2.0097974014178184 0.9184810958434311 1.8318402970792644 2.009313006779869
P 8.774318078747918 2.272997959945973 3.71822034709778 0.5319995535071548 -2.585313905568638 -1.43328948228328
P 1.9170801207179111 3.381028069987363 1.4563264768709243 0.5774162910790571 0.72340687101098 -0.08949187351424587
P 4.5523668947861955 1.4657343742755646 7.98272216953418 1.2092731204951819 -2.1307004434511305 1.0699154724987445
P 8.690866510605224 1.8950414693669904 12.426884572547067 -0.36559184337146067 -0.6141432141864456 -0.8026305298299984
P 7.271807046821001 8.054024224752647 1.3421775647456426 -0.5320692304028256 -0.07556780723398597 -1.6766510813672093
P 1.8112982399988102 3.390762263388018 5.885108307445979 1.1541494400481607 0.27616656142909213 0.5190411935742738
P 7.024769988832848 3.9912380401875875 5.83512395348668 0.47941098077716143 0.7280325427084494 0.17080583920338968
P 2.6023290555881644 8.85329446996203 10.083790394261753 0.8885732525404052 0.4988690895017731 -0.6386244871572614
