# total energy = -340889.4403042966 ev
CRYSTAL
PRIMVEC
9.10849461181318 0.00000000000000 0.00000000000000

0.00000000000000 9.10849461181318 0.00000000000000

0.00000000000000 0.00000000000000 13.33120256513282

PRIMCOORD
 96 1
Ni 6.687156044445741 1.8900125982542 11.359117808021152 -1.8991859735137744 -0.42420322525676624 0.9375275709519209
Ni 4.887035177912845 0.4170970886771863 5.913414944752154 -0.8551625382904434 -0.2653267905011108 -0.7450820419915685
Ni 2.9473630679204192 1.692003037418306 4.650669746950452 -0.6483203742887867 -1.6890371137363878 0.3613361534189003
Ni 3.7139430692778737 4.745780645991275 5.4016031765426975 -0.930507687990662 0.03757872958472238 0.6487775164308633
Ni 4.972682351220721 4.591646702918226 2.2774624483479764 1.4199858231958382 -0.4222309320217438 0.450731610564598
Ni 7.347394373106241 5.8408584996669815 2.787060852406225 -0.4595180985079763 1.465894927023127 -0.6822782192914703
Ni 4.989778995302278 4.739823690621354 11.708475023478018 0.7700011738307513 0.18070047260928232 -1.404207477315659
Ni 5.525504204839238 7.910308438574713 12.581135283741729 0.14880362390068563 0.14626337397733521 0.2618072073836265
Ni 1.7706913209668262 6.561741184371707 0.5426440219207369 0.13149444319827677 0.7905936532701223 -1.842690352419891
Ni 3.047283252030533 1.7531847946350454 0.5197543753693499 -6.504890998053314e-05 -0.711256094581059 -0.6019602989670084
Ni 0.18192395963822236 -0.0309552183863465 4.892884653048262 1.7998046087999582 1.7006183908160841 -0.03865062249266247
Ni 8.520085707985439 2.1750447150598324 1.3964032453524589 0.15064324821258573 0.5520754983214234 -0.9563063942213208
Ni 6.979374763371964 0.8037025813355014 5.022624226286879 -0.3906493005607208 -0.42728340684398675 -1.174488665826145
Ni 1.0804769370732914 7.415562345565685 2.647536934430043 -0.8179681886283332 2.162864943998817 0.3295205515702002
Ni 7.585080535763801 3.6885850207306947 3.709167485638044 0.5938258427853321 -0.26913613694487193 0.7077658220396134
Ni 7.59775045154294 3.896695901910993 12.615009774599114 1.5089971575292398 -0.1279126393842894 -0.09156778220666811
Ni 8.11813695642708 -0.2578077377457672 7.2221252489433985 -1.312239631457095 0.590568512190299 -1.1949358779369033
Ni 6.84800294792801 0.6560010570426317 0.19610588549596591 0.20430834183620944 -0.23962064398425828 0.9361240057361749
Ni 2.050276558091707 6.580368055520766 9.332921376705372 0.017162113601583345 -0.47071036767936997 -0.4198822292839091
Ni 0.08013197991875337 4.630549082711688 1.444528886625403 -1.0556849307216594 0.06816688678422454 -0.8878086064602387
Ni 6.391722026978874 1.896333893402096 7.215579884832047 1.2469996885116783 0.9336549753703921 -0.59225001365778
Ni 3.1170087770408266 4.449162524245982 0.5478121816713366 0.5872667015105757 -0.32247392913606393 -0.43064075335199375
Ni 5.8984332930817525 5.686560603693844 4.797806544587458 0.022231557704690746 -0.2957902491972906 0.10521854022088331
Ni 5.159397378939338 2.532024829521416 9.276663671587988 0.6076792037286567 1.326235945736187 0.35139138350136256
P 0.17685143907934153 5.6445066848208825 12.578829012947136 0.4748315889365951 -0.11621463422107084 -0.13462758951061976
P 3.9106318984186026 6.2687027009450365 12.664028959177545 -0.6427230827066672 0.6253473104323811 1.343229909191022
P 2.228821266289195 8.816366815436103 1.2385193351145851 1.3878843146756032 -0.757653965119308 1.014977425699968
P 6.358047922999376 7.783080988105245 5.893364415920652 0.7963953475535639 -0.3030507874144458 0.02379761664022998
P 4.891152217403983 1.2286903587542182 12.698676761213685 -0.3291238303524138 -1.5277656963859947 -0.4351052168812507
P 4.337301103912682 6.161696108153276 7.989816486623682 -2.0386251254804244 -0.4482949760986473 0.10193678414581799
P 4.74364014979566 1.1098427231782144 3.5027863075536896 0.07240380768370756 -0.5719899778571633 0.8733044993067928
P 0.1544445427337737 5.491101421303787 3.8077377908707537 -0.3717843453354178 -0.35949601488636795 -0.2911789756775243
Ni 1.2038788198740042 1.120253732333899 2.7607582529846413 1.6220845589752386 -0.8038204363730415 -0.7194751400567415
Ni 1.8185837847818653 6.626721183773853 4.876086767584645 0.2332407085998435 0.10033832931044655 -0.4384003426927547
Ni 6.049925772764469 5.607098098117122 9.337134055388228 0.3170285897507766 0.08867580537085373 0.849327419665905
Ni 8.79140043215025 2.321053881084 10.47397891036174 1.4831534569932585 1.2945262733377318 -1.4066417977887644
Ni 2.1743524694816765 5.639560772334848 7.082334452079848 2.0091980784685592 -0.34472399878351595 1.2319955017933621
Ni 0.6134980893933133 9.225629688037346 9.184278944935878 0.29347059992517843 -0.17762491900775215 0.4932026352446151
Ni 1.6309305821349591 1.0318831191856472 11.679373383712129 -0.935484315269647 0.7433691730655199 -1.088537715585622
Ni 4.148299844087262 6.672391174943235 1.7050737269532203 -0.14559771536887828 0.7285200238678292 -1.4580255515773795
Ni 5.614949620332521 7.899988514363523 8.023890453509509 0.29123476861612424 0.6906697857892751 0.4643013788292326
Ni 5.107005318866286 3.1297606692700115 4.576602202636122 1.2184175059986113 -0.8794244961616016 0.2711171719306427
Ni 0.9009066124007986 7.59666654070346 7.264812208180595 -0.07277764608335853 -0.4253211409112933 -0.5980401379769958
Ni 5.179763972528236 4.24564232426819 7.440650782677162 0.643418309001479 -0.009250829174306648 -0.39502326125870035
Ni 8.11607843668151 7.290065509041606 9.182079243526344 0.1043487360214203 0.23829112653955734 0.09966984248851221
Ni 4.8376215955247535 9.571752477115222 10.434851550755377 -0.8592462214415137 -0.8984092647942205 0.32011494198558416
Ni 8.322986996594487 7.172210699360589 4.86968805023393 -1.5449437508271782 -1.6904609906671082 0.28549966590455994
Ni 7.070505250338389 5.964551854290076 7.104544604945309 0.4631232993607315 -0.18933835078993844 -0.6180230088568259
Ni 1.916235953774074 5.388357603914353 2.555804375980511 2.314601168165266 -1.9914448682501962 1.0406406347940271
Ni 2.2578500380994897 5.2755944426305605 11.432772737536926 0.5511761264356057 0.1453370055083239 1.3861729884114513
Ni 1.2041885086852844 3.270250087657832 3.91457405481631 -0.7552759518054347 0.7639359414732779 -0.13814922951063305
Ni 3.5949223723073307 2.8334431278415506 2.650803240539604 -1.095423386961862 -0.11094824361580892 -0.47868721523725943
Ni 1.1372683999654116 3.446435695792921 7.954622174920576 0.2992856639450588 0.3054889645422933 0.6411616517568184
Ni 3.7577913615573713 2.419808177904588 6.797993670002927 0.6208890175507114 0.48321415657333555 0.7360628692120936
Ni 3.957303823977419 7.3185568796793845 5.949208595390032 0.4791451287102845 -1.2899975322294428 0.4237951911850701
Ni 0.7964613282482141 7.507776743371592 11.080161967862727 -0.2379360571929838 -0.4174422523838488 1.283979351059821
P -0.04738512067420638 5.667869973083638 8.168680902976345 1.599593319851258 0.1355156485425279 -0.4485975949407306
P 8.6974827458823 1.8447980318072899 8.058152055380994 -0.8709791936077258 -0.7417905157244902 0.09641868254106621
P 1.8818058447552746 3.351862197924616 10.34595993172462 -0.07014766465967918 -0.8191436969936731 0.17050579146446765
P 3.7817375934648907 5.8774291048813945 3.614421837224645 0.3286432911715695 0.8911060462645878 1.2938521300888426
P 6.8135546219203125 3.826660688089419 10.615063113437108 -0.2844102894951231 1.6069477033338002 -2.045308193927555
P 6.336114668365178 7.915564039872027 10.318910435758184 -0.0213686954837632 -0.44118073365136923 0.3457295572298949
P 2.235270080359383 8.68626108072062 5.628593234168305 0.22559013403312117 0.23065854969496408 0.05432046781943548
P 6.998120044948865 4.122486370817612 1.3926441696931844 -0.025471404798227102 -1.206382172100632 1.5515332311192378
Ni 5.3150979830576865 3.108109777963745 0.28209371649625 -0.03680405620222694 0.2489090112647197 0.09532622080783583
Ni 1.3412531331601238 1.0472855832996129 7.0343026282997325 0.5735223553412896 0.47129863608267214 -0.9978515646529589
Ni 7.1836145344112605 0.7108733601542596 9.244109001576323 -1.2479134585751992 0.28420845789696214 -1.1012829310664323
Ni 2.7432781412867637 1.5312198933971823 9.025770191978774 -0.26404972356090006 1.4198521258314514 1.584559308336271
Ni 6.319063566755868 2.072228029714804 2.399069957742154 -0.32419039760653845 -0.31565510644201766 0.08924453339013018
Ni 4.310176007442315 6.995004939847165 10.603264880576777 -0.5347935713125241 0.1259007511605832 -0.7910497669709343
Ni 8.240400277421616 6.977653257921023 0.7035346461763636 0.6608735283634489 -0.933782759197508 -0.514204691417579
Ni 7.852451281832011 3.913409989225675 8.454475400767393 -1.2312010309165247 -0.7850333855735255 0.06665970611107876
Ni 3.12556165332883 8.631591897035213 12.475978626172644 1.018046551543595 -1.0072029239608717 0.9550424399072327
Ni 9.250951302606728 4.971388945008904 10.446717186474633 -0.872594874834278 -0.6160589431519197 -0.8038266070206286
Ni 8.506732655122594 2.3793755710436226 5.740788936247898 1.1125734163785872 0.8069489546996942 0.8161848714756653
Ni 3.971294471451725 2.7931471483973263 11.403830496423899 -1.6026459906346529 -1.1950047835016258 -0.2536167011530342
Ni 1.049726659812057 3.1396160602642817 12.75670789020037 -0.1618581430917987 1.1017768399837156 -0.705271851973166
Ni 3.0439313260731473 8.50615881997228 8.193970637815152 0.6540446783670736 -1.2544607727754138 -1.066120010012054
Ni 5.891410643861251 7.996629640471846 3.800712409101918 -0.30434533785615325 0.21189772414769315 -1.1948685150340776
Ni 3.413854611147354 8.289786534326359 3.658548849434294 -0.7658817523457391 0.015785802079347006 0.1469452305357082
Ni 3.5138658802019616 4.516355887799337 9.445169908052772 0.7075200245773944 -0.054062586172358505 -0.5891196955589145
Ni 7.424479561631665 6.369296913644407 11.531836723168794 -0.08017316721648128 0.0018583933649774448 -0.14673774251059243
Ni 0.33251834176822714 -0.22663664804096953 0.41575449659534214 -0.08690097285861807 1.2344501339814418 -1.2815465732486122
Ni 4.549911581350993 -0.13590146973364886 1.6386846434597486 0.39728968869537384 1.6382244019598946 -1.108690536384413
Ni 6.196536099422299 5.651483791569135 0.1661571557462801 -0.9885801666533619 1.477081796877882 1.2994494216709622
Ni 8.082049101418487 9.027346872367968 11.126127985101714 0.6440232895753296 -1.0045572588079086 1.8439545638442953
Ni 9.424377036923643 4.975396682566648 5.969445848357748 -1.3799863999847655 -1.2258680487393856 -0.44887038898614307
Ni 8.117927461054744 8.702310247940492 2.50012050601344 -0.6236326417341195 0.6108586298979027 0.6770761062652404
P 8.421121915792515 1.5822821132806186 3.5396210591071355 -0.9630146594794318 0.09683545836351065 0.8635150240201968
P 1.5563684465720247 2.9984981557594512 1.5299292197336998 0.9091855294741181 0.5958176764043802 1.0478937168120146
P 4.650933893289486 0.8726028767486776 8.020157792484136 0.13047165836071722 -0.11101946317337653 0.983199619067739
P 8.636392073610056 1.5664333329386315 12.472313368006198 -0.10580218063849521 -0.6636660035069215 1.250530584483072
P 6.429631580877351 7.7712763792988 1.426225367029298 -1.06534790773272 -0.23959364740106473 0.16697952347876402
P 2.0743594174159674 3.2809434601414487 5.956781397675278 -1.646201249517784 1.0509021646210353 -0.3784679280031804
P 6.866201719837948 3.8230446157930005 5.9724316128382675 -0.6716857884876045 0.8933701597084162 -0.16617142575517188
P 2.5735959981885586 8.572250055697255 10.322736914276383 -0.2176881055772251 0.2789814051700679 -0.06914056355140351
