# total energy = -340863.88550852763 ev
CRYSTAL
PRIMVEC
9.32578120009705 0.00000000000000 0.00000000000000

0.00000000000000 9.32578120009705 0.00000000000000

0.00000000000000 0.00000000000000 13.64922345075247

PRIMCOORD
 96 1
Ni 7.6103035534642105 7.187453993117203 4.877399296584551 -0.7530308645249999 0.740138581943364 -0.5150773238305193
Ni 5.593202412002983 2.785051226280929 7.353669252346545 -0.03295640032136259 0.3175834338129821 -0.43376001570726586
Ni 5.408551948969356 6.279924944649811 4.353938548336621 0.7931457302680147 0.4069362106462024 0.06610460493855712
Ni 9.007687898485509 8.48229205068811 10.552350571916145 0.6389204211311253 1.4943758080716394 -0.5954492373213681
Ni 4.590382533673085 4.3423260858836175 2.9969740031577645 0.7484237047702917 1.6314657430798223 -1.546539120338756
Ni 6.122505762023164 2.716506736215415 12.077051411199129 -1.5700737131255862 -0.23435039672425445 0.09972152166205406
Ni 1.1490387980220316 6.565685524865791 11.874578448170372 -0.0901125378173803 -0.049891228403488266 -0.5015229821848524
Ni 2.225662906879613 0.4837683593204687 9.294807244987549 -0.2376195543938295 0.24711798080256792 -0.3428620058741127
Ni 3.272686986966046 4.4192731045952565 7.613549857816837 0.468434941381632 0.026994526310972863 -0.8839411530850326
Ni 1.0124440842819538 5.0731036077916 9.758894476167303 -0.5452852148724674 0.573896965071889 -0.0010436107731659448
Ni 2.514929980737039 7.284050432314291 5.738160486109149 -0.6630152572968001 0.622064011695419 0.8966367462748299
Ni 8.92714112832281 4.323805084894487 1.9784821499224112 0.34075318706122604 -0.704461954477361 -0.11946116618282651
Ni 9.038742749086618 8.905850370388174 5.646710945424601 1.0275814876172238 0.9629323841782707 -0.5970831733803652
Ni 4.571404569416851 0.36981104628583694 13.537285924430973 1.2097107222532328 1.2473483301003485 1.6726571297164676
Ni 6.412267102271539 4.97741176934776 11.957333563264706 -0.7097190891112422 1.6145859366053483 0.2112719176382361
Ni 7.464271149391302 1.503623641732363 10.678087278882986 0.12079839693701129 -1.3286088168437376 -0.14417126733499688
Ni 7.2520909809599345 1.3139559085415597 8.452185632010764 -0.5744698068562236 1.247057281222491 -0.16891762104174138
Ni 9.068743786439102 0.12271422135728711 7.881362039994709 0.23023123234955833 -0.4663886003755645 0.7849431398525643
Ni 7.726829186575582 6.978491219117482 11.58157080356937 -0.02799931342640339 -0.0076346337271223355 1.8699247626558118
Ni 7.153554779322899 8.049137502378874 8.814067899323309 0.8695288343144445 2.3928933163089496 -1.0585293421489899
Ni 7.332880221427627 4.40271984338896 6.189281151440319 0.8344769849166337 -2.302166284836022 -0.8881546769457478
Ni 3.689745237336088 0.08672603262765242 4.10272439111366 0.15471304740658517 0.23394107710097775 -0.74908396406211
Ni 3.652880425196092 4.962331981533347 12.081500741295761 -0.002766764111859751 -0.4132572677682238 -1.7628444866358413
Ni 6.9825479338356455 6.387665692095644 7.080794103684784 1.3194531184863985 0.4970855152387891 -0.10427854490511719
P 7.38758525254658 2.1809830902940517 5.70654888638465 -0.4620033268236753 -0.4256381579310799 1.4146412710544733
P 7.527546573213685 7.959936407484094 0.5812591409117431 -0.6131448548289182 1.9135332433743815 -0.787227822121683
P 7.143203162455862 3.8836282235213964 10.252341130969402 -0.8468797294563609 0.11434364245060306 -0.5618114946622648
P 5.343075640840109 5.076022577232485 6.096083959403623 -1.1743729661838873 -0.7242162542861527 2.137921129569286
P 3.7779764510108933 2.0089597346820174 8.278267277707394 -0.5010108184351242 -0.28956586555413355 -0.5969800721435976
P 1.769678846777128 8.461047921658283 11.306252300295752 1.3498695259947266 2.1180015078272234 0.40057890096960685
P 3.2000391532775634 4.974576731935525 9.766264640861014 0.9865891043652621 1.1828066987735373 0.45085785172981707
P 5.309819905932134 8.453531342203478 5.110692100534193 0.9690577803497182 -0.6245510397833308 0.48547878423779617
Ni 2.1966597280899873 3.073758753280677 9.309016004860176 -0.14792944882584846 -0.8507183864761607 1.0298548570324326
Ni 5.970504858135027 4.30667362526859 1.0725356864841498 -0.6264929940010502 1.6322869534295372 0.48357153991275426
Ni 2.8542298694518093 1.0849054023512106 1.9601653835363333 1.6402974824388394 -1.157652825215729 -0.5799727389523237
Ni 8.60621302810179 1.909229833081936 1.6086431262936904 -0.38798306658246734 -0.5452813582177254 0.11672114154384412
Ni 7.962911331610747 2.8127301441740498 3.6761314622887906 -0.7521170944614789 0.9598576019076888 0.33887885285664865
Ni 5.31757895569193 2.8334613552510075 4.771590850953898 0.228854920827322 0.19294278031174514 1.0846057275210674
Ni 8.80105656972611 5.303217253011537 4.099120909350217 -0.49850579262508343 -0.7901902471841165 0.9348585087601899
Ni 5.088313956539471 2.8871778535880623 9.941575334261904 -0.7402661086601638 -0.23422826932409338 -0.28528060791521836
Ni 1.8095931892914676 3.0383114598467977 1.7275682828464038 0.0642076450261604 2.1630197244091263 -3.1852204073304113
Ni 4.995652996908051 0.15727463302174766 8.270815046141225 0.21105517364173979 0.3543077858172092 1.995121545770835
Ni 7.8334135371822144 5.870532486229953 9.401939951514706 1.760476500624297 -0.6700863052109685 -0.07382228529778899
Ni 9.085427608578858 3.0936786214140017 10.992279367515664 1.4517777708954547 1.9650524942995964 0.014698996773071458
Ni 0.21219788741519427 2.90647289439698 5.573018624268453 -1.0913939540874946 0.3845925528436796 -0.1981960582908845
Ni 0.5465345955023638 6.122300594842015 0.7930802667761011 1.46123454543298 0.7778432955829894 -1.6381241289366044
Ni 7.524907377201638 5.941856059021932 0.4917073966528185 -0.42409960979936634 -0.7440988521426927 -1.7594701708469698
Ni 8.668714412104384 1.9291217238723766 12.857158584079972 1.7048524835020897 -1.981319606890736 0.6323124288963046
Ni 5.336155911366828 7.693358958705497 12.956020255472557 0.9368675687704189 -1.7811993349939454 -0.6960068817314723
Ni 6.6514920354906595 0.7956476542747455 4.219329293363203 0.04543447818371531 -1.1409270278206158 -0.39191685441923474
Ni 1.108145248506756 1.9427000609520213 7.457253499217929 0.5018430845284325 -0.045206421333309245 0.6925204658447686
Ni 6.632290252491354 0.11818282438819422 6.621170191273107 0.4209687774798686 -0.8358435262468572 -1.2744035344459277
Ni 5.139773615883892 7.247717189689088 7.6659495558821575 -2.16098726736013 0.11134393639233081 0.053529596487023934
Ni 7.002374544159358 0.32569450687033813 12.741167318217682 -0.023634865810120587 -1.307894981335154 0.49914471176066294
Ni 2.642208239296784 0.8212730352001899 12.605357835234546 -3.3235596413646626 0.3172885282803826 1.0934657490148587
Ni 3.3098875272206487 0.4210394262624187 6.701741208466305 -0.8510665138441988 -1.058259890537687 -0.38056466263120914
P 1.8071405088986474 0.7672459883571237 4.93839829727428 -2.093847279178523 -1.531009657244589 0.6862076362528634
P 1.0425104021011666 1.0591382695551546 0.5773115378308272 0.024911932750331288 0.9549647925917617 0.16410708702697546
P 3.888869312421644 8.355284239776244 1.6034701155944604 -0.1100730400997072 0.5102693609189147 1.2710343608633787
P 8.367258542530545 8.840933609116606 3.3794793024881153 -0.1157286957235878 0.2727809327863108 0.3622550656887438
P 0.8760079088182184 4.227441790221434 7.239998240787425 0.963724798172579 0.10371058821678913 0.20413222126966135
P 6.162849090461722 8.951509393974671 10.717697600937987 -0.0033120950923684893 1.3235121190471206 0.450969694717333
P 7.039556432852038 5.020776650817777 3.0046444579984293 -1.5409490278454883 -0.10017275026685973 -0.7858386550836401
P 0.415536282917159 4.738615822052858 12.417271754494777 -1.1726873509513482 -1.0205832019225198 0.9655112006490405
Ni 8.648151065084729 3.455724089893369 8.626309153495281 -0.09024880628492844 -0.16795757112131718 -0.306146395620634
Ni 3.2844281451963155 6.823356852826352 3.764223721827273 -0.7388103500502438 0.06968306631843482 -2.8226619514686355
Ni 5.88924932861927 6.986585996991886 10.21802691992232 -1.6071047977369548 -1.678304557810232 1.0365690358278148
Ni 1.4102539227478845 8.653849117252081 2.1690115852740384 -0.2045238002811252 -0.28902979054500544 -1.18807900291607
Ni 1.9186581976338046 3.2188399276955324 12.636273731699333 -1.388579540970415 -1.0263303888189421 0.46938650666162385
Ni 1.4551482322955556 5.122147889867047 5.095049968127814 0.2841493225242525 -0.21085462759515944 0.6260497358160444
Ni 7.781385005199154 3.7947442051793008 13.590558515594271 1.703159669180699 -0.23284835825743122 -1.654876665804595
Ni 2.7374524402544824 2.4611948308380613 5.72313292266812 0.8969092832099264 2.0776585852338023 -0.5631780359924882
Ni 3.9997994769562393 0.2232741174629235 11.027071058547964 1.8867935133866924 0.039817389107254006 -1.3926105165066789
Ni 0.35339394148157444 8.515398573100706 13.390051427192153 -0.4861650116715434 -0.12976306232946686 -0.6036855091882314
Ni 5.616964501892361 2.2387190002254247 2.4479746037473307 1.846259300718072 -1.3525236757881223 0.8744442693381909
Ni 3.514401903701833 4.6601953299493335 4.911140904680609 1.838705142519898 -0.2355834978004072 1.3943228712120954
Ni 4.2480983950507 2.87959599366653 0.8312665420783129 -2.513110129710878 -0.027524173562197756 -2.517438067662271
Ni 2.4710521813141493 4.916859473566075 0.4951355537341903 0.23935067815232328 0.6777391937705359 0.8752366833324992
Ni 5.9159583652924175 9.113955172539457 2.094896806240344 0.4964779635617772 0.17022014190324877 -0.5674352686069454
Ni 3.724026808149806 7.210106315072188 10.802377557222732 -1.4423037699667483 -1.0383004166966248 0.3072663681576902
Ni 5.772481225202904 6.721565953633825 2.008878600387654 -0.8721243629557625 -0.30152612323980327 -0.7268467499304644
Ni 0.6771813261453278 7.4824657480467875 3.943247008628855 1.0006016165942704 -1.4388610628337863 1.4692828696587532
Ni 2.821347165782286 7.5409850235789095 13.595089912563365 -0.26539543895551715 -0.030621838650915004 -0.5600250921858032
Ni 5.724294914975896 5.0945342524406545 8.85404658972628 -1.573540588628264 -1.1601953891319245 -0.7637937594684587
Ni 1.0853996687421592 2.3130268229250177 3.4920312203318797 -0.7198389511540635 -1.3544941692509318 2.6699942166268533
Ni 1.543864386580348 7.496239926526619 9.30254577802923 0.7565211370664455 -0.9563639869321336 -0.04777803871522739
Ni 8.419538870599562 6.856015737752805 2.3179107344144474 -1.1521504073402609 1.653210848066398 1.5231621361757124
Ni 9.183991787558778 6.0100088662870705 6.431418526053652 0.2025705332094963 0.5536904082170271 0.19708816993868639
P 3.0477957790844337 7.725523577241001 7.718703633624006 0.04283200756386172 0.883392222560098 1.070536393912195
P 3.7409064716897484 2.6448567610897915 11.872435383705465 1.9289079260582391 -0.7695314332831844 -0.40778133225531704
P 9.120511196555247 7.361034754149776 8.085022174939839 -0.7061498837027451 -0.804135396510299 0.2295051528168112
P 3.5712518644418827 2.569644337636953 3.3526313116786453 -0.7765896256815463 -0.20321870831645647 0.6278500222495769
P 6.347443598809582 2.0781104005100146 0.3851034619061673 0.4932381164682408 -0.9842558282463952 1.6922479073642018
P 4.34493730455278 5.892280207431691 0.20305768949502973 1.4619338854928499 0.07098353029741325 0.8785554632930869
P 0.13508113949005948 1.4403575436909426 9.676275517475004 0.8811581910232567 -0.32628790356551546 -1.1429725974957348
P 1.45085837305336 5.459433409894177 2.864112399536493 -0.032034402727725474 0.2786451048765717 -0.6328713867235681
