# total energy = -340892.93459469883 ev
CRYSTAL
PRIMVEC
9.06586716324088 0.00000000000000 0.00000000000000

0.00000000000000 9.06586716324088 0.00000000000000

0.00000000000000 0.00000000000000 13.26881298530262

PRIMCOORD
 96 1
Ni 6.438397503168589 2.002133289859276 11.323830102372304 -0.2579086436601687 -0.5248889106043025 0.8416313365732279
Ni 4.565470951340739 0.6615671468609685 5.813120115756539 -0.3012389310166877 -2.2678068335195456 1.1894676557334805
Ni 2.7784162927653235 1.6868043000887813 4.744728528505194 -1.0585509394155446 -0.5935648758144616 0.7084476785979864
Ni 3.377135222482799 4.331082023115613 4.687248211276688 0.06031885149471547 0.24316388125082636 0.6722054084365003
Ni 5.167045629197417 4.489308601761592 2.6415552431341256 0.22189263057687594 0.3441437008000138 -0.2628721583130311
Ni 7.282030832824248 6.304168274759011 2.5599125768878435 0.15154596253251318 -0.8364873304784434 -0.4066297351493771
Ni 5.1469375359505944 4.640264354986493 11.57685392043911 -0.5786949006811646 -0.7537947392742179 0.41688175189468846
Ni 5.493788545657608 7.936958138614895 12.450179778048778 0.7518481570708083 0.33326973419998734 0.420451728634134
Ni 1.786673892156856 6.610250080078758 0.4324781245475152 0.7863546754881102 -0.1312877265041094 0.05830104973373831
Ni 2.8037553913337936 1.4777816680334506 0.43102123970316697 0.128251767891263 0.2984605969406022 -0.1656489775927986
Ni 0.3323392762263159 0.04487876194758437 4.912379982597248 1.2265339644581585 -0.6242036837462411 0.2137275782675803
Ni 8.870180367037504 2.4741748584686176 1.4447483680499316 -0.14614253212875475 0.1140507938005326 0.1589121730895973
Ni 6.989058271343502 0.633543645041649 4.886001935658135 -1.3281845848221254 -0.03403369254594139 -0.28116298620241903
Ni 0.6813062593164714 7.577006950935989 2.5651000660473704 0.83859614929133 -0.8499637676983232 0.2225837431066296
Ni 7.590324709718488 3.9908853598662937 3.825013535487652 1.2400268567382708 -0.07813325396831705 0.4593702600762024
Ni 7.416432312708889 3.8267750334668484 12.541483032285958 1.1496027012177426 0.5244471950811935 0.5599474448703324
Ni 7.981661929327284 8.651294071568042 7.0550940473623704 -0.6859397273034574 0.9327990551279999 0.05938811215032998
Ni 6.9836640804139 0.9019196024701169 0.5816769127267741 0.5531255368524925 -0.4334581681961309 -1.1388560042242
Ni 1.8740597852164211 6.44895923835008 9.243692278737418 -0.09752065735599334 0.6908993853015778 0.060878580652927415
Ni 0.017200669665101472 5.015564055680217 1.2618027961457088 0.18958234847994446 -1.2092060147026722 0.5858088860181266
Ni 6.236328391185536 1.9798856519748302 6.96493218579416 1.73579673848943 -1.1666077204161716 1.2783473495850242
Ni 3.4236793842182287 4.213361738710751 0.3694313649143443 0.051543676405246715 -1.255814972810463 0.4376169275595108
Ni 6.017142922101491 5.4166108189623 4.901592507324754 0.0741999803521819 0.8172984162548182 -0.38983991728554795
Ni 5.13748183655635 2.6973311773462187 9.326568809497179 -0.3386461680205523 -0.12017387597913497 -0.35312070748764346
P 0.2634876418835238 5.67466166034081 12.38165995444216 -0.3309523989207203 -0.9641102065364555 -0.5313076696464526
P 3.902157718474659 6.070559011105221 12.873017259513032 0.6866069285738111 0.9772801682595105 -1.0860272904589425
P 2.4528882024976806 8.5321141825587 1.4381139664998757 0.17555852339702668 -0.004042031279857554 -0.2836029631024793
P 6.202431114066569 7.925190643107964 5.965645170577935 0.2548210058737805 -1.1095747387615795 -0.6233300228920361
P 4.858951201379566 1.1057547453659207 12.607389166405174 -0.9310707595829836 -0.3214783979920141 -0.23789697642493224
P 3.84599467173703 6.24139621089923 8.333636967124066 0.034867244190830274 0.9840797076798471 -1.6111108335725541
P 4.994331794911933 0.9570473271839466 3.791430843957354 -0.5824739081076226 0.5023174530616897 -1.9091076035028605
P 0.22612085742210555 5.751095985933216 3.657760979548375 0.0584691998804864 -0.5803992849667811 -0.679086708937366
Ni 1.414782957495955 0.9461864183878724 2.660463015575772 0.2497464195643505 1.1561281610410865 0.21460586710747556
Ni 2.029911106679953 6.5073071590608755 4.734843107010002 -0.05972878331920036 0.5331208115957915 0.36638477158640126
Ni 5.667862260009379 5.68122534812742 9.317957142330743 2.1490313805498342 -0.9943980588867196 -0.15765978873973494
Ni 8.497400977399963 2.3168367347992787 10.113900384648447 1.1883325136877727 0.7744458398656662 0.48941180074361523
Ni 2.302521730634837 5.2106071206541245 7.065165319133288 0.24656827894668504 0.20029819223555181 -0.24292939664251714
Ni 0.6876170094107513 8.899336195658686 9.027914669099488 0.14511871884993072 0.17219732023427764 -0.07428302698429141
Ni 1.2811883397839772 0.8255614301614237 11.385888682490641 -0.027517488693978416 0.6949501583321838 -0.3586681196684339
Ni 4.141152107190943 6.9912703429179945 1.5534599003090004 0.0883454186146285 -0.30377095340992205 0.21063968337087594
Ni 5.556361160441001 7.731054164844915 8.069852871386091 -0.19934765539682442 0.4154810148924199 -0.13546396936898605
Ni 5.281801375057773 2.907994731348202 4.967697183933646 -0.8591235798207204 -0.37499179652912196 -1.4548998614642041
Ni 0.8352564684473351 7.42979540082693 6.816149520915184 0.3560021428004966 -0.5770051716835675 0.2880746257205878
Ni 5.1598382648460985 4.6830008525363205 7.062604211675114 -0.39348188491350944 -0.27552558541098354 0.6013473479733579
Ni 8.001008489736986 7.085074869890431 9.015733770052405 0.07753315849047293 0.6963724926010072 1.6133039845691313
Ni 4.734912007600028 0.3424440917055349 10.509576528255408 -0.4750809859432399 -0.11445137167306095 -0.5309405161150211
Ni 7.874875080655366 7.202704495624207 4.654500486107089 0.4933684713985181 0.19498732154559967 0.8372095533564484
Ni 7.449994152744838 6.046616056071472 7.018512366992556 -1.5295616119441529 1.1972030767045252 -1.9360352811316401
Ni 2.35197603571212 5.375361123618278 2.5601646079934617 -0.2732905254328777 -0.5874834455070721 -0.25184392552332757
Ni 2.3694459616303463 5.305100653526814 11.512579642399439 -1.1628968472234875 -0.7367236427245442 -0.4119907423509743
Ni 1.056191649883335 3.4276864974802193 3.853687966565368 0.015944696254714473 -0.12588455321066708 -0.5446144140576878
Ni 3.6587391866093903 2.6921092378916787 2.936905781557451 0.18455249936552087 -0.43134266451502484 -1.9752608022911662
Ni 0.734600865700947 3.4770501438864163 8.104776404661749 1.2321348555847038 -0.7049342661280892 -0.13450057701445223
Ni 3.9616751360424614 2.584279814502274 7.207698881814322 -1.7849197212683259 1.0096943229241577 -0.42006452049804427
Ni 4.242363447591087 6.649487152924675 5.957484983593506 -0.20425434866982242 1.4117449233432848 0.43072225732220654
Ni 0.6827132818917223 7.435778873118591 11.151163410595785 0.028200887914248206 -0.020567539738706515 0.2991457959330848
P 0.20232204967538242 5.623829343463025 7.986432388599817 0.7868637539140448 -0.039846699683292665 0.47422223748737036
P 8.627886002693698 1.520182728500261 8.094758621506772 0.3570251847483722 -0.9090772860310279 0.5624704684025023
P 1.6667868655130451 3.361958960943043 10.188179753629145 0.36887411366715833 -0.3968343463255101 0.8583357938121025
P 4.216543858065862 6.148516402371866 3.7190090711472044 -0.8482231308581327 0.4801337178757989 -0.07804455090925269
P 6.652904984824608 3.87088954281718 10.212713803198373 1.5554731896035923 0.730956915444096 0.8057739605549864
P 6.23864925316533 7.748841396111941 10.27244970816349 1.0342388450327415 -0.5865712181054478 0.6960976416730658
P 2.3485491379450782 8.622736590176027 5.73544467295697 0.5428910036086779 -0.12119743214764288 -0.5878151178148779
P 7.073887589878449 4.009017094083446 1.6425991320673643 -0.2048415886318601 0.7296667358777627 -1.1990635269520318
Ni 5.433391738980274 2.6238160609627745 0.6620630497918077 -0.9847921603658395 2.0894794891281308 -0.20012078611742307
Ni 1.8662178101675029 1.3219484783041355 7.036266054551279 -1.6149975702214703 0.2080842639388739 -0.2265884933906485
Ni 7.015022914742464 0.5393483791968322 9.309492342211465 -0.6558992150773091 -0.056465024966264044 -0.8579287881816708
Ni 2.754292020389402 1.556881358555777 9.256257570549904 -0.194492127076736 -0.34261980795631963 0.12842171781022396
Ni 6.549554099786841 2.1154112993809346 2.670839807068248 0.10299247910384197 -0.6113558812492955 0.966630144744832
Ni 4.219952624098686 6.764551138266723 10.680531584321828 -1.2369471893716826 1.0933155965902397 0.00837382588599203
Ni 8.441219798928117 7.126723463387231 0.46025956771503584 -0.5145985844218879 0.6592557902543678 -0.3603563060041342
Ni 7.495840242712907 4.052832429819194 8.145008003129476 -0.5422423142810855 -0.8740084673523528 0.8650435448495812
Ni 3.130743086205917 8.227056820222222 12.401523269277051 -0.3767139214265512 0.5126941683103236 1.1679158977046338
Ni -0.16678022426292058 4.887146048087237 10.215751775266455 0.3031598021884843 -0.125566507749616 0.18183021533835136
Ni 8.42107544221286 2.1365438356110253 6.102168063365983 1.8637947384986742 1.0542677386591583 -0.9277159841781378
Ni 3.5265679100334593 2.5364301679032097 11.308863262362758 0.08910826492258202 0.5279418384980133 0.8705799012867782
Ni 1.262050294317773 2.9957069956236757 12.479013768387604 -0.04616595703310114 1.5571374646798923 0.08867374848832471
Ni 3.0378360800772293 8.44094782291486 7.9185090990489435 0.6737642682831881 -0.39878889894871966 0.23938461671405228
Ni 5.713581427837927 7.874385523831503 3.513740614661535 -0.12904803854031324 0.25058794162903936 0.1745712197830929
Ni 3.225662714832709 8.304470259462354 3.4850009093406373 0.1347394324981357 0.380996350851989 1.0010322763737858
Ni 3.412256391661423 4.437887003521748 9.266647054256334 -0.17847569704382166 -1.6600690086388121 0.6467622857730474
Ni 7.243727544290514 6.2442882225068645 11.64241464502149 0.2806086563608458 0.08010554720333947 -0.9103996043868773
Ni 0.6653920361940768 9.073573095618409 0.30224785011953015 -0.37039903495211696 0.48840058587028146 0.25301917677835134
Ni 4.67160505758084 0.2723241425542529 1.4442968878679243 0.5796559790428534 0.2301499854896617 0.6362588151385623
Ni 6.015647054028576 5.772074402422461 0.44609505694459656 0.06003063083033532 -0.681022492507498 0.21239703238161484
Ni 7.866344099706196 8.935128239003344 11.602780487196215 -0.011555823158399453 -0.24625074770626623 0.03212413422805435
Ni 0.2025341909657231 4.988167005278101 5.690927639107018 -0.37228699600344917 -0.7814898911966413 0.4381879695716324
Ni 8.024362163408677 9.075567586382295 2.6107847835809075 -0.7128807746686755 -0.47890061679964624 -0.28931749698875336
P 8.625809919125835 1.6910199282942693 3.7961804517355366 -0.18241719819007296 1.3350247476724104 -0.6047748855976681
P 1.9008312907880465 3.2300596603803684 1.6283358033454416 -0.12189728642814492 0.0935704144589937 0.03952634022939644
P 4.945122268246582 0.8395935792720778 8.118138586193078 -1.534344892265409 -0.7583553620617068 1.589216090381992
P 8.573554261112001 1.7824038687487165 12.558719058832784 -0.8712525018737705 -0.7299320737240074 -0.6135757717187498
P 6.580160467145394 7.913740452949832 1.0871325477381946 -0.7706717175352147 -0.5636601178352293 1.578440854143359
P 1.8630719542808267 3.350517836652019 6.018322391412317 0.1971665885851056 -0.7970548355144338 -0.11212786574620688
P 6.870712442108149 3.692319158379556 6.054280340125062 1.2260845356255659 2.9608358635696166 -0.849283196691531
P 2.614342229834313 8.557235700316564 10.375043593297693 -0.8992219905035029 -0.41626391580503147 -1.8042361622087508
