# total energy = -340861.7803751904 ev
CRYSTAL
PRIMVEC
9.26950296817985 0.00000000000000 0.00000000000000

0.00000000000000 9.26950296817985 0.00000000000000

0.00000000000000 0.00000000000000 13.56685456965275

PRIMCOORD
 96 1
Ni 2.1015353647521207 1.491731842684401 11.613742653025776 0.12897527632084885 -0.49368086043261433 -0.850330921229755
Ni 3.449812379547305 4.426150587864405 7.630351728194069 -0.9947533853436094 -1.7060621875394746 -0.02915039631171109
Ni -0.1870724740918992 6.196597845706016 6.001325569291113 0.8201824226708326 1.9369413378856768 -0.6495370203047072
Ni 0.7971309074911612 9.069680289765383 2.653215395426938 0.6664769905931553 0.5627363204693793 0.9297515265509277
Ni 8.80940191600593 1.2565182049428092 12.15379872698225 -0.4614212290679601 1.6775915909036074 1.0699779503055638
Ni 6.88691627052934 6.509304528236561 5.483709108112761 -0.4807546392892495 0.6654637188372927 -0.37662624680875134
Ni 7.869696783407243 8.987774961565002 10.571103397799888 -0.30359791816716747 -2.407761491670034 -0.3009167717905786
Ni 6.392675641928593 1.2692452325140091 2.9844638647387463 2.2770005842036722 0.5634670279878167 -0.47724611191535876
Ni 3.7724096217417045 7.204155740009862 0.16405722517963908 1.076440932322088 -0.08377348297322992 -0.8304714633016665
Ni 5.969513562064892 8.919755348806468 5.445897878567471 1.9017269947680728 -2.3436829160225705 2.9913368603719515
Ni 5.995171546272526 6.332618532217153 12.782622342184235 -0.17860965151852468 0.6397436883633691 0.4000893629276981
Ni 6.353048516752422 3.3466984285625765 8.880442459780818 -2.1507848729058314 -1.0207248697067066 -1.1234034171145557
Ni 4.699443343786981 2.667911265427944 4.329604079730511 -0.9529032820770427 2.6145995419066326 -3.856671196989074
Ni 3.2733303125931306 4.345719110635486 2.8421204502550546 0.10556898158176659 0.9460428075117836 0.5306715787243506
Ni 4.7071370312480845 0.3811119066124321 1.638645122129929 -0.04883321945261912 -1.057470304756856 -0.09843057076477242
Ni 5.266338336628855 3.476452931069249 6.478796740077542 0.10533038320839924 0.7630764216864601 1.002362050928803
Ni 2.07382882038918 6.1318967150090185 7.053393762933189 0.10191287288641802 1.726259488422956 -0.7472155433948034
Ni 0.7954225380946774 6.107212028612729 10.592470529084936 -0.07870789552486444 -1.716770317985598 -2.8945211995027833
Ni 0.7922505141799908 0.47264083279127067 0.3829824923108066 0.935380699812247 0.8376163018765639 1.8642691070319313
Ni 5.453424714975202 4.01924721620164 12.946605411340153 -0.6361292315392335 2.777149054638501 3.1150156641805515
Ni 7.8396914023089375 3.7014423070402414 0.09774598181758876 1.0567388259074704 -0.20565148612766518 0.23871510145085342
Ni 3.1126249396857024 0.695026405379342 0.15253337909332 -1.8538702802961107 -3.080124251620005 0.6032229677295159
Ni 6.273766457891188 7.6116894378742606 3.273356267201433 2.739635631074075 0.5556706718718495 1.5434910775410515
Ni 2.3972695873534113 3.8861742316334307 10.98319676417286 2.664699286776501 1.2791672743831581 0.3945509496079721
P 1.147314190509954 4.589006485459755 3.861167893484249 0.4099891385399133 -1.2639147190994622 0.2704579410800891
P 2.646220628489409 6.32347880229348 11.871485817724253 1.517551217746838 -1.4910287459762774 -1.2318918863359622
P 7.9169897875356225 1.7833040584543236 10.320278990114627 -3.439181122086426 3.394198386728148 1.2060181038929938
P 9.621744077862962 5.57377067197221 8.170489373776636 -0.8403378145727851 -0.8143064235060299 1.2714169410137781
P 5.4212317311771105 1.3034589679585105 7.257670434528474 0.25585356090335293 -0.3467672544657899 1.2532148161834546
P 8.279955715143407 1.2848643450103476 4.642998559381074 -0.7265808978635874 -1.430232183514195 -0.8638497816517962
P 3.8778131399588336 2.4305100249865683 10.246475207505815 0.39480394615904263 0.41559234365930364 0.9780286163897608
P 5.134118146333443 5.319155964524484 8.634272269534376 0.14546427511480756 0.7578431983119788 -1.2220371050290697
Ni 9.56288273403403 3.394899843981544 11.216017016248841 -1.9421334236095777 -0.5038493163251838 0.47849978181680175
Ni 1.0194506666081797 1.0475187215867625 5.325750288933917 1.0175310453597572 -0.18952526998976393 -0.13817622609382654
Ni 3.0127645842417548 6.167194982300447 9.251767625162607 0.3154812998683147 -0.006162934277602289 0.9489525249594108
Ni 7.932247389416319 8.519016196615551 6.841696854214273 -0.4356526047442884 -0.4291029765512288 0.12620825509867295
Ni 3.2588235404526142 1.0604404087202317 8.66934250705286 0.3516304960953622 -0.42973058283289867 -0.48330568784587735
Ni 3.4561712585814224 8.455566448818853 11.741298429429106 -1.6447475477903932 0.1953717014682119 -1.8126004750130458
Ni 8.448225002470426 3.683237003216616 9.117726904484831 1.901894630694189 0.5271645940123567 0.41706198622629465
Ni 6.955028578317526 8.786348662131513 13.073061824691813 -1.1756675166255945 -0.3006280369055661 -0.07779978188829827
Ni 7.607981636688185 4.737513192464999 7.210158670130117 -0.6651991523219963 0.15148374183601007 -0.48411275712820495
Ni 2.4949423400975754 3.227094031802783 5.106835218256012 -0.2712351855657458 0.7401398674949448 -0.5432802686272967
Ni 1.414081216345039 7.229035085968421 13.263093124130199 -0.91799104358089 1.9096979287886917 2.5640084592226424
Ni 1.1809624862735786 8.208840088394501 11.165914425771716 -0.32247264358448335 2.087777161725043 -1.4130366455715149
Ni 7.253348992246103 1.0925777755005313 8.531842407868478 -0.48872763019239707 -1.5263780720098488 -1.8556222299902105
Ni 0.3455207230273043 8.688360746286532 8.46103638251861 0.5424819410957173 -0.3738358285478078 1.0244511695183582
Ni 5.343785033902982 0.5741391094091667 10.289305872906754 -0.28343507006604735 0.3844087189676476 0.7035679819081818
Ni 8.012428590065177 3.4238763102507144 2.615757333944622 -1.0790578011196448 -1.1138918780796947 -0.7575367228151534
Ni 7.818167616423776 5.504008392656221 3.3244080547821944 0.6382725031344814 1.5576717399168076 0.22087550216627122
Ni 0.6917542708326313 6.550257192336753 3.437759244841674 -0.17592156316340027 1.036749270159421 -0.43660288447269974
Ni 3.9440715471539822 2.424920514698561 12.891523243870129 0.7303053979030261 0.882258880286603 -1.5609722650449505
Ni 4.993842757961285 7.131112056644197 10.730540702701678 0.49479106277765755 -0.8052895647194002 -0.4340389804002654
Ni 0.7069803564032457 4.159012781910713 6.512036250760403 2.3671694291802847 0.3018835065792221 2.144237558705617
Ni 7.365621212160435 6.131479587375584 10.195830351105226 -0.5847850727393026 -1.3649112508191976 -2.3193001163028315
Ni 4.641675801307943 0.14198468471893846 3.9003760371263922 -2.91532579495296 0.16936704987433412 -1.6903193228829212
Ni 8.230048711178846 6.830261068406124 12.038887479573729 0.45907355477139 -1.2458041255416803 1.3851746290539242
P 6.817515501828993 4.360985982019148 5.111177053444904 0.08622682960972891 -0.39299671774697476 -0.0046310710141081535
P 4.957738043911886 0.14498522282876913 12.657155911749259 1.456329651932195 1.5267205429509318 0.7945413250639607
P 5.099060886119109 3.3221713237166948 1.6682343025450987 -0.17848495301520229 0.07216932307539828 -0.23420615783690632
P 1.0285162405081316 8.428323379604173 6.4544985919549 -0.09114637839853335 -1.153878188664645 -0.6743088279327484
P 2.9893961672665212 1.483148282938639 3.640339597394329 -1.775708229972387 -0.10207048151020486 0.3759006814966365
P 2.3471586543236165 2.372158503820723 7.077895840121065 -1.1593687794655712 0.29085450245857003 0.48620692065307236
P 9.014980952767823 8.525078451554783 12.69336629813246 -0.40971300206039113 0.6481673936506902 0.6194515137732364
P 1.3211359101131201 2.60087421998372 13.25725889896391 0.23985744258541275 0.6940623564105919 0.08760134135975235
Ni 6.213375646073002 1.727677771160243 0.5513518902698501 0.7790285741403421 0.4917229653752951 -0.05961694033168443
Ni 8.631881664719653 8.339280534120595 4.523324641349042 -0.48861424454298436 0.2985549564266213 0.03830943710315983
Ni 1.5162404085243526 3.3322750819487474 8.833799247810298 1.1047102115804266 0.9015745498960795 0.7007688218964899
Ni 5.3592094868370515 4.490230661862735 10.53863789061462 -1.1785600076820413 0.1407262462091899 1.6821277882110643
Ni 4.693622095924844 5.991194929500461 6.409307911099026 0.958422412123059 -0.43889528005130224 0.909031520394757
Ni 2.9117918884419853 2.52508676374036 1.7705019479091053 0.16370599493381485 -1.7700492319143966 -1.9637078073462437
Ni 8.090746620618033 8.372761978830848 1.6222566408874803 -0.45064779260154003 -0.3753620353843471 -0.007880174079025137
Ni 1.082038350629115 4.18283540453124 1.268123622655222 -0.7442230364253828 -4.018918605099492 0.4542956737667725
Ni 8.86824472082893 3.2854270139626984 4.967870537603131 -2.35328881454345 0.5446583799217458 -0.9666196032218708
Ni 3.7452685170596403 1.2889058483031686 5.8324991848358865 -0.6778746909071357 -1.4471760104573852 1.680729108091325
Ni 5.599317422144262 4.800545812628263 3.304994007771909 -0.5460958836992209 0.25555711270885667 -0.0823552624694646
Ni 0.4571524202867415 1.3512247167381135 9.803775796242391 3.2332167327040313 -0.7975677705951103 -1.093842415627987
Ni 2.230121909885179 8.126703022619989 4.521195436517939 0.4744937459812022 0.5337823564391905 0.06557598612859673
Ni 3.6338676304240356 8.056838778771382 6.604222384699472 -1.4500996118620832 1.1174425715454304 -0.8010837541681688
Ni 0.7290909018261036 2.3530818667183704 3.1597742665181205 1.4941976306225622 -0.7292615300195441 -0.8895821534208939
Ni 0.8232356817417178 5.153760223116672 12.60177619323405 -0.6739437312838458 -1.658415017975157 1.6400133755395174
Ni 6.281330372310779 1.7858995192845757 5.337783957683322 4.021250081446146 0.6250058679325623 0.5597854653711715
Ni 2.2251905343077003 5.987848638930029 1.5935758717628987 0.962968893843161 0.6225977727117019 0.5247611267771866
Ni 3.004320067040471 5.727143868034175 4.74390822256068 -0.37406414250853 0.3182454928770132 0.04772096022504684
Ni 3.2318956343387497 4.630765596317919 13.425121255110758 -0.27873149394279095 0.36152538661157096 -0.2699306078217093
Ni 6.501175174136093 2.586172788280935 11.869898878816613 1.6608817343480946 -2.3415987798000315 -2.6668615845351424
Ni 4.719799172298529 8.07465476347047 8.535911719670194 1.1071360474130998 -0.06180032113624839 0.8114087902432606
Ni 4.317261736532366 7.241928964592994 2.409433029144328 -1.4191908380983689 -1.1032552243014548 1.1578346022092318
Ni 9.396217070719988 2.1210105904819763 7.470113538236086 -0.8041027435001508 -1.4245112218700178 -0.8967226211204169
P 4.541500282763178 7.41893012371322 4.723815647933344 -0.2717308942552417 -1.4566101592870915 0.034077401299683244
P 2.590881695787249 8.304742366072313 9.486270292026768 0.34748613490968544 0.7296960464538014 -0.4714426178597042
P 9.274508496787098 5.899723474240007 1.1705315145868551 -1.4458382654825679 1.7000625183126141 0.025313539064124143
P 2.4579662927694486 8.002760498472487 1.8761603774577769 -0.9774524321713166 2.2423871078948605 -0.6068327965679614
P 6.172154166386821 6.870453633263169 1.2981753512683545 0.14131117217838243 0.2412065004141394 -0.7292119077285313
P 7.21124690977823 7.740201826983597 8.84101740976929 -0.3372012080439096 1.8436532305537927 -1.0700316863616346
P 7.2739736363436425 4.76473772267375 11.838721832543506 0.2958195597733292 -0.8395292026285607 0.47144056097717524
P 8.409626792123392 1.5785129294444715 1.4596714127787127 -0.5145080815906107 -0.39454914983575917 0.20534809595463346
