# total energy = -340856.20549571107 ev
CRYSTAL
PRIMVEC
9.33243475034577 0.00000000000000 0.00000000000000

0.00000000000000 9.33243475034577 0.00000000000000

0.00000000000000 0.00000000000000 13.65896159409581

PRIMCOORD
 96 1
Ni 2.7646311632372784 3.965976834743085 11.561409436765071 -0.07911515826561215 1.413332836655695 -0.73194884704372
Ni 2.5683607262116235 9.34839329908086 7.184204460456046 -2.7017535113163214 -0.8744455548897715 1.6640459910086889
Ni 4.625089377435965 6.105642834350623 8.8280055337309 3.472058846651053 2.525371206466419 1.45786742873296
Ni 0.6458978149657947 3.2679947009602968 5.9573971069885125 -1.6344127415232887 1.1875375285903031 -0.7783598302080917
Ni 5.616539257056267 5.226247499800314 6.908661522207099 0.19661585828795816 -0.3959311177849504 -0.759375318685789
Ni 8.436577085911981 8.512767083909104 9.729114644412995 0.8786585645298544 -0.2886459248430255 -0.001340830298610594
Ni 3.2550879435827835 8.071538897320924 1.9189343176345213 0.25148679929422496 0.025014519766466597 -0.023098790800992478
Ni 7.079622395958846 3.776080450710084 5.457342850658167 0.9423489035999643 0.35345957888430096 0.8251827040989014
Ni 0.23878341067534764 7.575379999290922 6.643349732268326 -0.4787640912217819 2.0474311538078287 2.35781421321763
Ni 5.600543463748199 3.0901371578651067 8.35902548567236 -0.011226979064070988 -1.2377429458001008 -1.6660069713898018
Ni 3.826363609603823 1.7642874732187332 7.456809548218773 -0.026112895036967933 1.4950982880599606 -0.08480526667185395
Ni 0.978085832935849 5.044395674595525 7.38018279227135 -0.48881196237608715 0.8801300068690585 -1.1628467107118425
Ni 0.518946837411356 4.538923006599681 9.560057587367693 1.063200265262098 -0.03818371015857295 2.0008723322116833
Ni 2.7588637185089326 6.653942045806632 3.8806886460248227 1.4511393659805072 -1.1859161909367963 -0.18941522677446088
Ni 5.368240495822631 0.3456127254809386 2.0715588234214537 -1.0255153491168143 -0.7535422569437797 0.9625708870737938
Ni 8.817219105548014 6.945851275026615 4.423837286695113 3.270969011752141 3.178370217177797 -1.1647763236343875
Ni 8.036756912688972 4.207406923937784 11.452069696988728 0.8986182954812331 -1.302142395122093 -0.9864314957414754
Ni 3.5471931539343133 2.062374774299826 10.741749151109909 1.1948718574681871 -2.0071594507719754 -2.1051789021412586
Ni 3.866371757743664 8.724744008762926 10.063144885019579 0.3223654285826577 1.2104401442200896 -0.9807871529715044
Ni 3.574901152960949 8.51990639655827 5.45764335505987 -0.7217225413300216 -0.9097560572656074 -1.0873670923162886
Ni 4.939863072002953 4.394876874913551 10.240382754441692 -2.4727327543350963 -1.7328245432349834 1.7043164084929616
Ni 2.110679457008437 1.704746538968166 5.3989096764225755 1.9976489401783788 -1.0029428631329373 -0.22793523722653
Ni 3.760047327662674 0.5357816166111364 0.17256231956952064 -0.35603453870032875 -1.332494267941073 0.1661958512352041
Ni 9.214836824149845 1.1522477318361766 5.246475552306286 -0.31936700807596613 -1.2990030781621629 -1.836137896013354
P 7.808046932175075 9.000984079894085 4.228691408067136 -0.51650248631282 -0.5089141324426009 0.9237533999859641
P 5.291826519389458 0.9167465384924784 8.991667510197793 -1.2229030525737905 1.3313539836890427 0.6994999824863953
P 8.234781847463703 4.886808179963067 13.4087705119156 0.16107344240697422 1.756684894792349 1.0958193368487
P 1.4866568692970827 6.67615324071515 5.481013638374961 1.773389094920907 -1.9035913016703216 -1.107264345460848
P 6.040586431112267 4.335727902926076 2.2984751099599645 0.1474764204488299 -0.9171487501852527 1.189046251925346
P 8.30424315994442 3.8256543445563245 8.403006451321678 1.164401456793472 -1.563079026975308 -2.647569311964434
P 9.269524892285945 1.921781643502836 1.234577538711581 -0.09735713519493555 3.149263786730144 -1.843204315941832
P 5.7254207742821865 7.938346387348496 11.045387384431166 0.7700070873680223 0.4358667776376235 0.6463861333805513
Ni 8.742699613386451 7.204714352494051 11.871304134400054 -1.200285829394907 -1.6972425323653157 0.6842785375509506
Ni 7.6775794931746155 7.6399604483526655 2.2014149879401876 -0.3810035499408406 -0.08146488944471131 -0.11199159727865875
Ni 7.0814888829259495 6.013960994526551 4.0014475530658995 -3.798841430464799 -2.4848755603452175 -1.1831923642477302
Ni 3.2968879192110423 4.838839464908535 7.946469338629325 -2.1776644709054946 -3.471506316581692 -1.4237938840880189
Ni 4.088325055436648 6.9683984375892125 13.074740271309015 0.327622563216539 0.8567087997316406 1.8884912128040894
Ni 6.959924586758568 1.9811545939263644 1.6180678174594127 0.44608382737994146 0.9337153962946823 0.03552853192391301
Ni 8.304028513943203 -0.023125773522399067 0.13353407708740891 -1.0221857705229493 0.6239727986823577 -0.9181108569882058
Ni 5.006272678292458 4.803870831579871 4.527413314717045 -0.13075782214256834 -0.8773560436683471 -0.656818641567785
Ni 7.256322717134433 0.2134290517142283 11.47235281086023 -0.5866516936343961 -0.08737457006092694 0.5646947297473307
Ni 5.797485836082012 7.537089019160815 5.958434873742221 1.4657799987118176 -2.290436397993604 1.0577970919686557
Ni 6.755058977249405 4.82325429873323 9.148417885425506 0.9541096436803183 2.478048253010739 0.03688350328991067
Ni 1.5120504244845114 2.0228892425107747 11.771962232062997 -1.9570031416325586 -0.28447173886067784 -0.05414897523857771
Ni 8.255798490713275 3.0506796233805615 3.516964464258606 -1.627053987165372 -1.7449773765474332 -0.5664633916119792
Ni 1.2536539687588515 0.558060005050471 0.13327743512943233 1.1181640230924872 1.0508975366353448 0.8777519935551852
Ni 8.674675495870403 0.5063965790445594 2.4102198181934193 -0.5294613604663333 -2.855719396144237 2.95630635113038
Ni 1.3851573080260529 8.581108504209558 4.046685597687561 0.14142944292380158 1.104107544999421 -0.1148529779868538
Ni 6.6623505695934275 7.5822860010692015 13.364788613022798 -0.6777391937705359 0.12977386096274424 -0.2012595277075566
Ni 8.301322107840905 2.155176506304159 7.013657946810996 -0.9067303830654061 0.9272979228041127 1.232451101273542
Ni 6.536316037139836 5.907617899575891 11.450375860066083 -1.7819621813018989 1.3272260775635982 1.011360397772671
Ni 1.8507898117090953 4.520622101887242 2.126358880775581 -0.516709974337936 -1.8208439459687609 0.4789057590059687
Ni 8.476127944744883 5.224511666920908 2.2678245942296917 -2.3949548268236684 -1.7962814261380482 -1.2432849586642523
Ni 3.490003993262295 2.866018735290283 3.7043102938510617 0.2269427914062737 -0.5226775047752805 -0.5455708644336863
Ni 0.5745158873959296 3.62748942325906 0.13766741247605724 0.7608076802569413 -0.7807872087026617 -0.11928170318216874
Ni 4.080541804783832 4.579789738744388 13.398431107361336 -0.8294149970126942 -0.18680967083081376 0.6994007379043696
P 5.180135939278049 2.831619380486585 5.854135582020538 -1.8430883591892582 2.158538548709321 1.4552585303552035
P 4.054187008808346 7.091754561245012 7.158074576160096 -0.5181860446628301 0.683491522873281 -1.8303894235653508
P 2.268696243643329 5.890576873566246 10.316449564298983 -2.2250509306092585 -0.7693200886033267 -0.5390505468166652
P 0.43010019129031346 8.133114302365634 1.0950856352251812 0.06520549016305544 -1.2617737614970592 1.0521854022088333
P 2.3239815876089023 5.734958522684081 0.32178421961542547 -0.7011573155841602 0.6858998752044574 -0.22120974557723838
P 6.144027138829085 0.45184476445705674 0.0009584410576070962 -0.8676622134193509 0.035372208851706825 -0.027061889213798557
P 0.13722505506485397 0.37513681632656476 7.827008573273869 -0.012492733150372033 -1.7361641491311774 -1.752452087657924
P 7.997999310817089 6.421331107531491 10.007811945636345 1.1458627745593362 -0.004563451000966334 -0.8810823434799987
Ni 6.308716616371367 2.4045111678045368 10.584780396907044 -0.07644763873577802 -0.21672599877427193 -0.9237158618798093
Ni 7.4048297526719375 0.9919444986665846 8.848343708967931 -0.1817001175183903 0.5069043011014238 0.3264781651994506
Ni 4.059665148056791 6.585068676720552 10.856483971464662 0.647367266346898 -0.643642509197143 1.7869208108587549
Ni 5.923007084619651 0.9443677458751438 6.429355135003065 -1.2691579697762723 2.0060456488825062 2.58868153648929
Ni 5.541646467501282 9.220016325483554 4.661489606268396 1.0939246909291482 1.241582888371481 -4.314382324195299
Ni 4.643819574150838 2.866373367814032 1.2727369315105066 -0.053514941199004615 -0.27939535277903493 0.926888603180836
Ni 2.5353052420242395 4.383015350237615 5.414316593092522 0.4438202281567453 0.9754883664664104 -0.47567748187665815
Ni 0.9785431222427893 5.3378074258240265 12.21683473445444 -0.5055812114146261 0.8136214816238633 -0.46433583161159386
Ni 4.941486915664332 2.0286846845436273 12.576406915962338 -3.2258381808517735 -0.26989229838460616 -0.19774431546544652
Ni 1.6481826514301268 7.6639914680541095 12.930788397214725 1.1038591764340409 -1.389585099416794 0.8701806089658305
Ni 2.243825304806689 6.9757337313699255 8.344846717426766 -0.3906454439059788 0.13924991877397952 0.1598727372306537
Ni 7.7030850375800695 9.135921755180755 6.64391061160194 1.3515006338402467 -0.9966323475338771 -1.1338549514651826
Ni 0.8564664754029385 1.591422782760542 9.284297203387078 -0.6538081368762353 3.4723524666320715 1.3108422368889359
Ni 1.1149179924941282 1.9207924054102719 3.0553869035115935 1.4531491973216846 0.6165461672009833 0.6892333104530646
Ni 5.106783001470924 7.1274324596211756 3.8258615246096728 -1.0161616758160565 0.12274549336105314 -2.3458272160590825
Ni 7.99483561540785 5.823028710226808 6.022892134664136 -0.4845051074706172 -1.31075430516082 3.076441403451779
Ni 0.41653363076992955 9.095409655559797 11.684217746496026 -0.4277837435191729 2.593325977239837 -0.9289557701225097
Ni 6.971543468128781 2.3236922821290014 12.827144242418495 4.335618350755939 1.1024844075737013 1.507562224854926
Ni 6.0593632900013175 2.214325478291635 4.118176714745001 -0.3531680157858111 -0.8657259156285865 -2.4611802736108066
Ni 7.644580003596245 7.25863716097364 7.914357363603811 -0.5526203150812998 -2.0814365642189956 0.6361611132184335
Ni 3.9226370073669665 5.3482690852746355 1.9165844105429393 2.0245336803843648 0.6733847734565822 1.3892081756933492
Ni 5.585163611139276 8.338371874137888 8.101048056270814 0.1397541121039077 0.6652179213750737 1.0766090824688361
Ni 0.8199990530396913 6.50775878654317 2.4923648428590806 1.5903198649691321 2.6300480152512193 -0.3778135822486332
Ni 1.4289357598394403 8.872840417167668 9.536619177278304 1.1259151277928157 -1.7897330834965692 0.03771499805227053
P 2.576171974168947 -0.007783250652817119 11.696646683209961 0.44979470057262533 0.2845797251934518 0.2007630476871123
P 0.47754722323754073 4.212399776574783 3.865977928993605 2.4472662346328753 0.9624508165561619 0.6874206827243581
P 2.4974902160707444 3.003466835547705 9.024666999776164 0.38849548744251156 0.8084173117151046 -0.3243621472977124
P 3.1222314012644325 0.6278675508635854 3.2886137824858777 0.11270944928128976 -0.040408228613717505 0.4135084645470814
P 5.652497128477496 4.06548858739415 12.258467659499145 1.9737101699745945 -0.551178954649083 -1.5885925978653803
P 5.369901669223352 7.009041191297868 1.4656066292821017 -0.19627210179529422 0.9511315348886006 0.33410559983772137
P 8.60667937565886 1.9961424842721966 11.415668534912813 0.4916412042947662 -0.5254283280475404 -0.9579734975110986
P 2.827578436202808 2.5138779716419033 13.429559443755187 0.44387782086755817 0.41866558326798864 0.5250231221893216
