# total energy = -381175.7225360202 ev
CRYSTAL
PRIMVEC
9.21081190883828 0.00000000000000 0.00000000000000
0.00000000000000 9.21081190883828 0.00000000000000
0.00000000000000 0.00000000000000 13.48095427172093
PRIMCOORD
 96 1
Ni 7.029875874351272 6.681790081044481 4.159332786737658 -1.3677824017194058 -0.31010640870964656 1.076342973291643
Ni 7.396456977995446 0.5524156817188428 1.5683470517385412 0.9283592741890915 -1.5526845711148614 -0.5056118075422453
Ni 1.0318504162627755 7.7724699530467305 11.458028970247108 0.47255821952138616 -0.8037852122597319 0.1870215297313037
Ni 4.652058722883605 7.555371116068586 4.133947789083362 0.47073787848319565 -0.20397127021176484 -2.5125385734781247
Ni 6.288396303898255 6.272240539788808 12.44449771617508 -0.08692539833865029 0.20857791574584078 1.108116151938182
Ni 6.1168080886218075 7.62562197859011 2.078452868898237 0.46338040967686006 0.758297512240578 -0.597430529417455
Ni 0.3548069227655499 8.434939178841347 1.444052671351699 -1.8234752129440206 -1.8296432894279455 0.8114185604352736
Ni 5.706328255362113 0.4993641682974165 3.3933985106343667 -0.3207016677269896 -0.46120345663019924 0.32160258227470423
Ni 0.3929424473620969 6.654673450749035 4.792587159281223 -0.7032720479343179 -0.6965087610685553 0.9727100323903247
Ni 8.212580968256306 5.21531829347705 11.13259901102242 2.0606471382774707 -0.023130158259560163 0.493978079958059
Ni 7.384897409034582 8.332763642201611 5.89511305649508 -0.9603417406329589 1.2270576981721126 -0.7412120175132009
Ni 8.618961990211153 6.421999130812466 2.653334641973608 0.7545910099232682 0.21089319414257873 -1.8043174090686471
Ni 5.834745395164798 0.44844679999808756 8.258891088432748 0.7235737356061475 -0.11650311199576709 -1.1871243523122845
Ni 9.020212589925999 0.06558282303995693 12.871722805507167 -0.3150213295127607 0.24541128252410638 0.0032527026093427855
Ni 6.4942395287089285 1.3500194924501343 10.380078440319691 0.10285363953313252 -0.12481934517094632 0.7917228817785591
Ni 4.441932470529664 5.128874823598395 0.13265595544873285 0.02069043846981598 -1.5035654449907074 -0.3254085862843557
Ni 6.762559690779795 3.826521282839474 6.355002448142636 1.3627214422567306 0.8624878683072631 -2.0627382164785444
Ni 7.807867103259162 7.736630683862091 11.508866204482723 -0.2658584946348647 0.5977979400592027 -2.1658373963635795
Ni 6.630752972190178 5.420719399315515 1.5691023383160638 -0.16674760997361607 -1.0183417141865108 0.2955609067953039
Ni 0.9575283748721668 2.7755676426525295 4.583443700559252 -0.3823744621464383 0.16224252301441092 -1.637669043677057
Ni 2.4818993261750504 1.7620375313006376 10.094983547578286 -0.5511905246133088 0.5098916658645218 -0.8957332606239541
Ni 2.5997240322685773 6.801678009008313 9.62298838582295 -0.5022264360097802 0.829874710257932 -0.22804090956645887
Ni 5.196362442543617 2.241561610720204 6.923130853917525 1.61346544984766 0.9334446591317989 -1.002596278426796
Ni 3.18765015718648 2.109460146149116 3.5505736474168215 -0.45481503660535216 -0.4682562497119226 1.2907344103954674
P 5.182260689492554 5.229641106014217 3.8030852929876633 0.48483935088158436 -0.1763959316966575 0.2878236860520462
Ni 4.163286988295347 3.514587926322638 2.2869092010508996 1.12489208584494 1.9990141959570218 -0.8023469371513086
P 3.8256738881427417 8.404967196850388 2.2256379590711663 -0.8232824017523951 -0.12727629135187113 0.48531191964262865
Ni 0.5345586806475857 8.29105708582329 6.584758782862628 1.7748787920925564 -0.3159654385935849 -0.8686070938311233
P 8.87001187993013 4.840355350984759 5.870389395136713 0.007555957970386986 0.012273418050714347 -0.17065337278592543
P 1.638216586646535 3.186894870608957 2.3232937503012634 0.058112330761699915 0.5913634972877686 0.32193708279598754
P 7.017643916120174 8.310860331453457 0.022682545436672835 -0.7510367169131065 -0.6962863606451041 -0.13433834040497508
Ni 4.864432413346273 0.6515802039416007 1.0789480608584627 -0.0033843430912006236 0.5588356998633924 -0.8697916010575278
Ni 2.410911598699846 6.469508498701023 13.1589481590459 -0.32025429577692593 -0.1036509386234473 -2.002635851870009
Ni 0.641680423288902 1.6516735828631268 1.128872503632707 -0.4714827270690203 0.46950554873799144 -0.851520570662482
Ni 1.728795711077722 1.5600904799325501 12.257503496879556 -0.7372620317265174 -1.3012340243752105 0.1889334020420359
Ni 4.832139306751221 8.200717442502048 6.176973112089828 -0.29802839449918994 2.9811336945867044 2.789876786617815
Ni 1.3467404434062558 5.740472735153287 1.423682960788391 -0.3011882802844103 -1.5011100414716794 1.1795095160795042
Ni 7.2215805028631985 2.533452240496929 8.386137534040273 -1.9785232750925217 -0.3256590117322649 2.0066377739405508
Ni 8.407030418720694 4.9398229089197185 8.662821113335415 -1.432639507404107 -1.1706052716113389 -0.03645567172387269
Ni 8.716154477601624 6.690798255103227 13.521127415673025 -0.3787474069168122 -0.7879001655983592 -0.12919639119271945
Ni 8.303795638710042 2.0268391632176797 3.0842127393135668 0.6097810805630078 0.538214424068615 0.6671351930024446
Ni 5.422561561699717 6.116890985929096 6.111954911820629 0.47538566166785223 -1.5782277096912884 -0.9040718623966365
Ni 1.4395762167580892 4.401561481879887 8.907136057377752 0.3928506790874138 -0.567032633851888 -0.2628626452313344
Ni 6.387550694227899 2.512884497477319 1.8541438083483275 -0.7478858299889507 1.7155102203262518 -0.7873026412236764
Ni 8.375428123019718 0.33960079336515886 7.713262854018495 -1.3212078963939762 0.5856641329101462 1.6878600627091511
Ni 4.014578429830682 6.170065003149072 2.1690587046839944 -0.6682623646283524 -0.7040315518081617 0.847010084386638
Ni 3.4957241835084143 1.0432257689852198 7.563853352766642 -0.8526348867725831 -1.8272951009107432 1.1152540485345437
Ni 6.755025246628411 1.5065756626714972 12.830107436166863 -0.9894371153370186 -0.3865458199153085 0.09837992003249509
Ni 0.11166912048671747 6.970954310492588 9.310810021709015 -1.0326946404740731 0.9528811705898557 0.4211868070279456
Ni 2.9839069974937957 6.730542908542373 5.345710231355599 -1.506028304708903 -0.3967117047047168 1.0932106955812593
Ni 4.332701451958436 6.680242664641752 11.069238756899 0.8027760542689271 -0.2689211927205885 0.822570720397351
Ni 8.297237540622286 1.4196071765133453 5.432110410418225 -0.1666121128370163 0.1689883263786767 -0.028212200768157863
Ni 2.348489926311179 4.833134074438689 3.8493383061301936 -0.30928082748455765 -0.21012289163545744 -0.8798186462762266
Ni 5.071694103192781 4.300482031858753 11.460374964043387 0.8237120330906459 -0.7087790937954761 0.5867843625575184
Ni 5.686700015158446 4.747713004683266 8.06119298460382 -0.8257555458832359 -0.3430900627245188 1.1725302565481937
Ni 3.381583802183291 5.700405703296905 7.518651293264298 0.734848022968386 -0.7121624084454122 0.08920802372523991
P 1.483953908593503 5.519652730159055 10.883430890178902 -1.123392104260646 -0.48379625432905066 0.9787526390399789
Ni 2.6727565599902445 3.8582617407192656 11.68995537225569 2.1324133123771793 -0.5887630835504442 0.31882630508114773
P 6.736161503814188 3.7993125444248186 10.180937923343933 0.3259513461617032 -0.6053546693605382 -0.8282544010456898
Ni 7.767440849737861 6.517782363979023 6.9853590992558505 0.2105442954435922 -1.6966432082184202 0.7742838603665052
P 7.078683966720689 8.167963795310946 9.129760460427308 1.3569071495677987 -0.5466047050148393 0.7975220049588394
P 6.139733799493196 0.9011047832064596 5.562416687745909 -0.36490253061392 -0.7420869639189865 -0.5073593863609713
P 0.37393133155713765 1.7596242985773336 8.843209338321191 0.7242687047906431 1.675798760669243 -0.2564729396549067
Ni 3.210502181562499 8.689737869012175 11.677054709079128 -1.7088675181987536 -0.3080886069486694 0.630359676045308
Ni 2.8014131809028764 2.8030527054248155 0.34858962471886995 0.011812162143579656 0.19573294146237258 1.2796419000267316
Ni 4.245631646869153 1.666714838730132 11.781383733545994 0.4708435508231246 1.12995073131477 1.0771693258476802
Ni 0.7056172742385748 3.1039515092602854 10.770486993322319 -2.25990943304934 -0.1781273125654674 -0.4358066138236494
Ni 5.140065960082419 7.304514653399949 8.534023567000391 -0.7570816375556058 -0.259808688896359 -0.3615086744410226
Ni 7.168618334317406 4.030246020908316 12.83111878331579 -0.6803030978429703 -0.7567723338453031 0.45761522505830865
Ni 8.259482422558076 8.760532169437036 3.677968387096275 0.8500743251342586 -0.03995905689144086 -0.3218293535735296
Ni 6.01077322178717 2.667405078264139 4.1889501524696575 -0.16547517101909567 1.0796229295944955 0.7619960441380876
Ni 8.844138709244021 3.083549560855254 7.190228741246474 3.0101035994564933 0.5347796873554532 -1.4585130327367593
Ni 1.0857889308721949 6.110332887841339 7.3338142461206735 -0.6984833682964228 0.3000138003603349 -1.1112523835743184
Ni 8.585591218621344 3.8211329578656854 1.2181602722325686 0.47785906290900926 0.42947192985487326 1.0646493390037985
Ni 4.063690478993494 3.9211071104562993 5.36846646328764 1.2409997621745013 0.4276873271506247 -0.3669815246301358
Ni 1.458928132604126 9.07618669396996 8.951367297303621 1.7266186715345875 -0.8652880567602195 -1.4468317397440889
Ni 0.9674944733706967 4.268400773937883 12.932225865772688 -2.14189631216695 0.8660907551671728 0.8401136143771208
Ni 5.4184443287710256 8.786129015765516 11.807468752906287 1.9925041627526459 -0.6288003019779881 0.5047913685234791
Ni 1.688065500763027 0.37864634617950127 2.7842755442426497 1.250506416113356 0.6958114778912146 1.1373542228676927
Ni 1.577241011729466 1.6993579561781822 6.563054425651966 -0.9905912835461197 -0.9889105534095872 0.589296587456411
Ni 6.47944696476379 6.006462561808139 9.893240976234843 -0.26090475017401515 0.9527474732254688 0.5061741078036186
Ni 3.0953946649856694 0.3007781421993047 5.045866986566277 0.5288851762478891 -0.6699706055687107 0.15472590292239158
Ni 4.380348982025808 7.468927646189932 0.24232540866739963 0.9008759811671582 1.2509273057008587 -0.8361543726190567
Ni 4.192494472896861 0.3114074191561473 9.809483379112354 0.12007180318363192 -1.704747068272477 -0.2371256454765465
Ni 4.641355759431394 2.585585435969831 9.452171115504292 0.75018773864925 0.30935616080718337 -0.6368555681822967
Ni 3.5833190048771946 4.628211930820117 9.8508841365349 0.2815126562323539 1.1765170091100834 -2.4709383814388346
Ni 9.077853850927664 0.4301347848179327 10.440500445440305 -1.458952948487655 0.4399342628387778 0.9413957956580756
Ni 2.243035340627565 8.843540006469157 0.39524515034234875 1.1791320781354273 0.49863537622441223 -0.17155094489953038
P 3.6001747906926385 3.4037358048533135 7.630799375970907 -1.0986799462259467 1.0946710821768695 0.44376880609351954
Ni 7.777010883323787 4.445211519573542 3.818331949960507 0.28065545043838114 -0.4698364497148489 0.2354343738170526
P 8.72919698728177 2.2084671634880246 12.56801101971102 1.189308247337481 1.4366640551824676 0.1330669298917192
Ni 1.9384337903998503 4.04280956836857 6.25591805998359 -0.6731654583569245 0.8937059457812802 0.8518702406924168
P 1.0005889206028764 0.3444650231406428 4.838786749714612 -1.1627212408775716 0.2634390865600947 0.08039891007404217
P 4.942816422794046 2.8374458771378572 0.15964639762086086 0.8239539738981229 0.476190931177967 -0.335728480153125
P 3.030255803080305 7.870583521629301 7.810797062531234 0.24214135352358301 1.212539964171912 -1.5492331222311513
Ni 1.8368477457230596 7.238574450857457 3.120854270216526 1.020347688872946 0.39542949555818346 -0.04635930399082984
