# total energy = -340861.5746703259 ev
CRYSTAL
PRIMVEC
9.31303841232586 0.00000000000000 0.00000000000000

0.00000000000000 9.31303841232586 0.00000000000000

0.00000000000000 0.00000000000000 13.63057309278678

PRIMCOORD
 96 1
Ni 3.8293537447462342 7.298069391493157 5.944838350542065 1.6528398378802243 2.1175567069803205 -0.2249617564205029
Ni 6.328414462056828 9.038340994234183 6.089703593755296 -1.2642397065390485 -0.5876120006651364 0.6414946096162049
Ni 4.771022993868341 6.932607139616052 2.4383322566806505 -0.3753566360677084 1.4453068184591302 -1.1202237338349932
Ni 7.0291274693254024 3.3241214129503796 10.736938612858708 0.5637308231721646 1.5053868144701623 0.547769928967534
Ni 1.926821074412966 4.897047029146894 1.0570726954388165 -0.7365040705145703 -0.1943391464386395 -0.028592724036028177
Ni 2.078614286872701 8.860918300168876 5.12070616482818 2.2495077781000417 0.06367234134798067 -0.05752020570365578
Ni 7.0362891958350975 1.0447645839235833 11.244840992756423 2.03562027721583 -1.5980288035776156 -1.1728061359173996
Ni 0.18494856037542973 0.2629704019622709 10.151628120603007 -1.5086685705452276 -0.3089545544933905 1.2057460811785299
Ni 0.6170446705155053 2.4206449342005274 0.2122078236964706 0.2365144942551088 0.7607148634328189 2.8698231825354705
Ni 4.0442521052289875 1.4277632870591508 5.0026382582326345 -0.013106455474970977 -2.292350327186865 -0.12250895187021482
Ni 9.1913635277593 7.503952730829765 11.601198818318991 -0.6603901609691272 2.795638885912572 -4.625042805636203
Ni 8.879013533729786 4.890472024054767 9.164624863283374 -1.7982874008244836 -2.1093960255463995 -0.08155950604104663
Ni 8.864075420177702 8.965261582112484 6.163650049749623 -2.736511997843429 1.8222755362089649 -0.4671722726191245
Ni 2.1480150488366223 4.663522591915907 3.626386317724563 -2.335716352877326 3.408685010380097 -0.9832608113229777
Ni 1.402105866338458 2.407178280711554 2.820165898715616 0.13071359916819425 -0.3166483235932224 0.24668552125083965
Ni 0.0728326166047831 3.977580063508683 11.991633051292453 -0.34165872959463095 0.30792379923603097 -0.3327668264216398
Ni 1.0029211025086748 7.597762966372247 6.673951468332509 2.1534781034672785 -3.300273931363845 0.6413737677676246
Ni 6.658384724690172 7.899486783616894 12.059145129074102 0.5198392639955369 0.6442834852152517 -1.317214458963867
Ni 2.66207614101114 4.138444175344809 8.339756947537932 0.15833187510609506 -3.4353321806539805 0.7895618695714983
Ni 2.380710625652313 7.424763965534646 0.58355498452218 0.724860572738371 0.5172352507137866 0.2528237729380936
Ni 6.009815419278281 5.755196950129918 12.921674040700637 -0.21240860234584066 -0.09521720603379731 0.30439033216147576
Ni 5.848038629681492 2.431699510750604 12.559332587982698 -1.6275075297630228 -0.5134091920994771 1.814363994671372
Ni 1.1390218453080228 0.11429705735786486 1.405489293179775 0.7106313165128664 0.301409652266597 0.06476274619868201
Ni 5.84310271934321 2.136885967979552 3.321116095467052 0.2650737939500402 0.18530454704019703 1.26372291480363
P 2.2014439499889322 6.536775069600951 4.944217568511798 -1.6843649050716991 -1.1091744179993672 -0.9493271346900104
P 0.9660600966239193 5.376752322759294 7.6794513511669775 -0.6399051536418979 -0.20877383380673076 -1.4761878243087028
P 0.2802302559810222 0.5031834633535491 8.051239018707783 -1.9183309218733413 1.1214259816732106 -1.704213821476826
P 2.9415976747718924 7.056228410994083 9.883201209457342 -1.301780898017616 0.19930728907719225 1.29237863086711
P 7.607355395897587 7.918876529511805 1.3624807506642642 -1.9790830042507335 0.668313529581262 1.3264388057756122
P 6.3806047291053805 1.6314580623778407 7.947264533083789 -0.5269041412621184 -0.9629616947543093 -0.4398476166622425
P 5.10405724612677 0.2661545297823815 11.386121647499454 -1.0486696757460907 -0.24721182606795492 1.0319881013253516
P 0.8616972572997251 2.9588640479175052 9.786683673659503 1.1111968477460346 0.4671046526059826 0.7637490222734524
Ni 3.863234578351273 4.016620320372982 13.172367995478147 -0.18555342982620948 -0.8837205524337942 0.773291671656565
Ni 3.553846130524727 5.955632162017667 11.705541168958762 0.04447134293949761 -0.4323132559584103 -1.7524559443126655
Ni 0.7116427891044376 7.173796207428937 8.889587557499759 -1.8689305170633426 -0.8179453058101978 1.6517468619263618
Ni 4.839250312997123 2.649745678203809 9.217797655880394 0.6389952402331188 1.0781977671121947 0.9788971350376431
Ni 4.581865871451647 0.23405155520296236 9.167377797426763 0.8819400634946037 -0.10434719335952351 -0.7756375461809223
Ni 3.099472301289926 1.556907190193033 12.751115055917056 0.15228309780885388 0.7505114405372558 -1.1517732265065002
Ni 7.89868586231672 4.027712149076556 6.514282219319783 -0.7248978537342096 2.2593576743109285 -0.7281135324580299
Ni 6.8056797396152096 8.86970049535567 9.4914855024036 0.9916670331088019 -0.12142188945362314 -0.621625895716736
Ni 3.938632937028125 4.939458605902623 1.897579996525913 1.5570184226035249 -0.8187636879464351 1.0062289900833767
Ni 0.8607501212970775 1.5454800921079914 5.294618774730281 -1.0334826835930073 0.9626084251799487 -1.254131671570769
Ni 7.686711795883439 6.840463937942538 8.116311080435414 0.3852859793662784 -0.009229746128384106 -0.5141416993901274
Ni 4.912879194382893 7.566322148821228 10.417383121039139 0.6688262075516224 -0.3648120277826427 0.48571044063262797
Ni 0.2087191595215263 2.8001791870609236 7.29361030871963 1.9425753962430026 -0.6358152998432405 0.5418936726924152
Ni 4.288505162666958 5.3956857297738745 5.127821326146004 -0.17000391212738464 -2.092871288418499 -1.6814469600939561
Ni 5.94948555669075 9.225235048325965 2.3526094636622523 1.5989880821670914 -0.630485660100211 -1.1490694544220919
Ni 6.86838442698814 5.669293484167061 2.0633688430542714 0.7290694686133959 0.8502725571879937 -1.4148235622686085
Ni 5.2587468135208555 8.200717009827713 0.24706373241927884 -0.09699152432540072 -2.3222563707176778 -0.027291745836417514
Ni 7.409984173634922 0.32999727044462934 4.159669521103258 1.2673072897207787 -0.23566063089524575 -0.6181399940506644
Ni 4.629474123620135 0.9482535672526072 0.5761147981650979 0.34650603038460326 0.3105236987527233 -0.05354348044409488
Ni 8.550095644432716 1.5334755856437543 2.163212996159344 -1.584157187801846 0.2888451853380251 0.43892304796544407
Ni 6.161822831620621 6.966040947379132 4.202701346214704 0.20212598947290997 0.3652835681024225 0.787361776596386
Ni 7.408084313806603 1.9075244589017952 5.901179757948042 0.2040723145660034 -0.19808087286925888 -0.10155600376763156
Ni 1.2732506673941733 6.267376808552864 12.555093292914801 1.0047740028044052 -2.402299440114198 1.3284823185682024
Ni 4.28088709727693 2.380552303999953 6.9447904564170715 0.1542258233575215 1.2250139282692063 1.9890861382100324
P 2.5142316568220306 3.1147177451083556 5.617676900282355 0.48677462023108425 -1.3030204268516719 0.3161649561989006
P 8.680385051286615 2.7955040417971166 4.120236254019572 -0.560046432342042 0.17933753082348466 -0.24702233576496815
P 1.317664547400338 8.689381446356013 12.841322076912592 -0.4221807955100987 0.7148337846299881 -0.5936672057202808
P 5.680413251985757 4.352625431872754 3.269374716868132 -0.500776590937131 0.16495040886387718 0.7499756226384439
P 5.2577689444915725 4.219085774626288 11.525971819548221 -1.4233210582166584 0.2614295123292336 -1.2778482984614186
P 4.630330923150553 5.153053141013 7.356625120270419 1.0079858248734834 -0.9714131679557721 -1.040813927147098
P 2.7406781848886888 1.8364100978770368 1.209406995428088 -0.9257843143730637 0.9409520232524375 -0.3253422518227945
P 3.9765276901724076 6.146651892109183 0.06845921378429769 0.7041043140276261 0.5692370977023745 2.140197327197972
Ni 9.265523252332395 7.065913970903165 4.448024471761861 0.42266416290442044 0.4233339352779354 0.4124985352253283
Ni 2.4746791828471553 7.430398353750987 2.869194389236156 -0.638893681658248 0.2824205127586039 1.5704606641513599
Ni 5.613154488847884 3.5704605909841516 5.436772061168967 1.1226526549914602 -0.11795938482631943 -0.26872810287317594
Ni 8.30433387477814 6.851611644876355 13.346593523469618 -1.0687685033784948 -2.2716349490163843 2.4381804702815235
Ni 3.5708237994807424 3.1899112169409776 3.667946682772898 3.01648276350996 -1.4512118710896555 -0.49944553083053334
Ni 0.9069390664173489 4.556301581114696 5.572627871059075 -0.779608100792896 0.5388456298947106 0.5922343299284961
Ni 3.6891738911390233 0.6976378419974403 2.7760705246218462 -0.9969750755852765 -0.6261224980355087 0.3517598225843749
Ni 2.2834918180649044 1.1232734974173908 7.114409755628705 0.14801815188491282 0.6148368978193605 -0.6408801159606575
Ni 5.410838043208562 5.31614306902054 9.435068978540873 -1.0343218916648511 0.566138661282709 1.0705492494280016
Ni 1.0747432544498663 1.786752977266244 11.808969910534032 -0.32326942845416584 -0.8476014381137338 -2.782271463466731
Ni 2.933150748966568 1.6490038266746776 9.44901339089844 -3.36924840165103 1.4811901626193007 1.0366441120401244
Ni 3.0175548157511916 3.5563233987322422 10.957917456095922 0.009019687000107047 0.004030975536264025 -0.21096209970730118
Ni 5.378614930434118 7.458598233947813 7.982663391943809 -0.5239255182497686 -0.680584376528815 -0.515888249767589
Ni 7.6060329444484625 5.2286750126108315 4.298646130152534 0.7827605303789487 -1.7202803880213857 0.8708516668909261
Ni 2.918510652642456 6.242548248247468 7.962640359439456 0.4575856573719539 3.1049528806279105 -0.7712926389486652
Ni 1.9314869066383986 8.94821872188785 8.844524558718918 3.6493055563837795 -0.9822375122647857 0.9332518263947024
Ni 2.8894074077233394 8.960511932541685 11.22338654625397 -0.25401367948113673 0.03905814234372629 -0.2570758633462282
Ni 1.3456036625226893 5.419806499162838 10.356209497174913 2.1055447701211096 -0.34123706867618003 0.7507662368605392
Ni 7.364983572211188 3.7848281082795805 0.24153085632121585 0.5930084890903593 -0.04063911367760098 0.39940236416300245
Ni 0.1518798237166146 7.074109444672388 2.094828286682039 -0.05905155474651765 -0.5240934112862006 -0.7028491014642863
Ni 8.467684567860154 0.08560917395023442 13.626947642861017 0.526587381352648 -0.44403003017470627 -0.7017224440590109
Ni 9.063653832535033 4.343005063232291 2.4212260677950725 0.10159431320473471 -0.21712040599921317 0.9246280892814334
Ni 8.198211802505075 2.1645643180274283 9.093964047227434 1.0271348869981085 -1.4962761104181457 0.26124876377699524
Ni 6.71067743516084 3.7612754342314383 8.488902463187905 0.29513333233958206 0.7326592428471833 -2.001796643798165
P 8.14051752977742 2.0151924955449636 12.728801947276509 0.2299808069016491 1.5363493242899477 -0.3648433952412104
P 3.56156663933687 8.673819359232864 7.390387678288104 0.059075208895601486 1.3533783104789336 0.7578663382404303
P 4.833709055164523 8.575147717659092 4.080721032198192 -1.145418487933066 1.2141093655415607 0.6789206156731469
P 7.36322340795848 7.048461336990069 5.94203046947227 1.1632987106475965 0.0384503335563983 0.2570550374106218
P 6.199140176385709 2.0747493759474427 1.2778634153008734 1.7802688527598758 0.5212443718731796 -0.09436591377709554
P 7.361453930667397 6.080147485079613 10.128838184397706 -0.35711543046933336 1.2580693160622785 0.8763615409655616
P 0.8599231234894559 9.141240755229802 3.5260653370547357 -1.7474708323932489 0.15841209352472718 -1.1204085961522896
P 9.254626997434679 4.960096298939667 0.40465896778608906 -0.4678507867433878 0.2647884014991375 -1.0635314233492716
