# total energy = -340864.9211298512 ev
CRYSTAL
PRIMVEC
9.28846793274188 0.00000000000000 0.00000000000000

0.00000000000000 9.28846793274188 0.00000000000000

0.00000000000000 0.00000000000000 13.59461171229845

PRIMCOORD
 96 1
Ni 0.1911074455872922 4.5424231742170615 13.403091415072758 0.16346662522949912 -0.7707228824881243 0.6145291367709546
Ni 8.752421361915555 0.7294196882089081 3.9991945454051563 -0.6579175310589186 0.009018144338210275 -0.9651538173096216
Ni 6.419864086929132 7.740851449881375 4.947215544916939 -0.07470031702736811 -0.21964908595833785 0.007115785109174842
Ni 8.994283783999352 8.176592067600762 5.417452604488048 -0.14277824364221217 -0.3169830812248218 1.160770287798788
Ni 1.1000611480721358 2.398663302789733 5.185215821945148 0.8857303837749714 -1.2232321537784352 -0.9458661727246034
Ni 4.953707255304986 2.2014784124937568 7.432215159134487 0.6962022855717301 -0.7246037195325585 0.5642069914776348
Ni 0.9627961657934634 0.561942105587981 0.3529014145489745 0.9395050063932657 -2.5775342616232195 -1.0039700188458711
Ni 5.264740899680654 7.987125894335072 8.743891761616021 1.705939031698049 -0.9343813120134554 -3.402440315021966
Ni 4.991084051129142 4.554683952171308 11.461753272282772 -0.5608535016243696 1.9622188815055435 -0.6531044259409913
Ni 1.3874556410132923 1.3974221673351905 2.3679500540143468 -0.27887753260235193 1.7614949145864824 3.0384582393397865
Ni 2.799302799381016 6.612330435406353 12.880990335908375 0.2702527670478185 1.9372601546776769 1.320045757765075
Ni 5.507039879767368 2.695550610177283 12.546222797723093 1.2254080783838315 -1.0375185442252777 1.065418355959339
Ni 7.1123193872996175 6.992646763691659 0.21496301832963316 -1.366755503116788 -0.5650528844176979 0.4485047781166082
Ni 3.2029424711838312 6.289314667120853 8.713085628159163 3.0440907550352154 1.303890231051135 -2.569091015951872
Ni 4.346027803713594 8.855421185199368 6.650429874052357 0.8737210180189211 -0.8482385574771005 -0.6500676959971966
Ni 0.23446787259184618 4.084269482858589 10.119734030904924 -0.4653611875523147 1.4671043739501959 0.38487691685331776
Ni 5.952505523636826 3.695574956304548 5.918767949632726 0.16376744429936957 0.6055446738841571 -0.3653223917601579
Ni 2.4679645636356646 2.7492379560678453 -0.2469961584287303 0.30711647284338717 -0.6011450021545647 1.3116030263143605
Ni 4.490779291318874 7.804421725880511 10.672871597536217 -1.0177753001600796 -2.2757057766516486 3.1151455048901964
Ni 6.596372847129539 0.7699787132202798 9.280063012329718 -0.675575610460314 -0.3418353643818113 0.06430174740186345
Ni 1.5349193613175423 6.664457318648192 2.013076697677731 1.2984559474094413 -1.6289427195476527 -1.8772848025653088
Ni 4.850726008957467 0.1447793530097218 12.305189835844837 0.3392876582592931 0.8856961881029263 -0.13822764815705227
Ni 0.1038051334721722 4.104657670441596 6.1793494215734865 1.676064869846436 -0.43486507584598655 0.4015209531679021
Ni 2.9389549179735077 1.8912249994424495 8.738875059969741 2.1408655569095902 -1.4877868420002118 0.4656481226651142
P 5.711850602412159 6.544691810358763 12.036356488802143 -0.23163968266131074 0.7647615226983667 0.8299315316377965
P 6.445797489995992 0.32276869503278544 3.732454819082831 0.9755025075337973 0.14820558530537056 -0.785336261525925
P 0.49205845778922275 2.448718857634757 0.822623892984731 -1.3605280341498376 2.8288305421731925 -0.6952162675093768
P 2.8829826089187454 9.005169868667819 13.022591175118139 -0.26951820287463907 -0.2926357627287089 0.39549197336500275
P -0.31644789245864574 3.1402453111905273 3.7263922359231825 -0.20096770749875065 0.039571848755351205 -0.08828036970464796
P 2.041178029210137 4.589311361423905 1.2966487898662502 0.23054156450112553 -0.6177509861423619 -0.9399474932473233
P 5.237990111416845 5.700165709483037 9.471678537124658 -0.3070061725177681 0.13057784492127836 -0.7960122531825323
P 8.261562974210944 8.919279403711068 10.163699137185858 0.5848174686391348 0.09752425690041913 -0.6091362478901574
Ni 1.4592833651952501 5.181367609591781 8.044897379669937 -0.6888255334916847 -2.575764571317306 -1.1488357411447312
Ni 8.00894450601274 0.85388330368717 7.382730845080513 2.0024533035455576 1.1559440700547383 -0.2609335465294216
Ni 8.236307629318826 5.091715315035431 8.076219023108962 -0.3052035720913905 0.3046633833172044 0.5228315138546415
Ni 0.4092610527254735 2.1494351254652413 12.007495360575298 0.7631908357771372 0.9739007102643163 0.08188346503936866
Ni 4.513563903683847 7.995513381071953 3.323080447045962 0.9818621312032381 0.02361044033008837 0.16599299119577865
Ni 6.262731071283691 0.9771654260171139 0.5123388991417234 0.6646458509216875 0.30829532364283674 -0.1252489765091972
Ni 7.470436276713221 5.254365680760282 12.118372733694716 -0.29077222715740886 0.7398886707160871 1.1387271919558195
Ni 2.7772984183404037 8.547675658547794 8.678147984070451 1.2260197438259015 0.9237757685834671 -0.6289458264169169
Ni 7.584870204286183 1.1418592547343382 11.908322386168114 -0.9588260753193809 0.5101564894901344 -0.14897820180533697
Ni 0.7762140618874657 7.193147637116169 8.677603679837027 -1.2275752612384794 0.9572769856647062 0.24084885996440455
Ni 5.825467144788172 5.877203912367833 1.9031643963988039 -0.2359460233461485 0.02183972158291077 -2.2949725953010605
Ni 3.342910397693326 4.1631192889597965 9.423744468404445 -0.6958932389717434 -0.4659306869025395 1.4465221789234701
Ni 3.6457423246950555 2.470240238331718 11.153781107008406 0.3888040198218659 -1.0491617848911607 0.2190194227941389
Ni 7.958703181804773 4.67124493894997 2.045581691958704 0.3624761805606144 -0.17554541077090413 0.12512299245429417
Ni 2.441483140948123 5.305833082763672 5.4430107534417616 -0.3321564465311505 0.31621175027643605 0.5181269092901205
Ni 7.744659721821709 5.392345875086285 5.655685093219936 -3.868066840420526 0.8699211846568565 -2.3296670613594523
Ni 7.733494983108827 7.860793439065602 8.242699024250886 1.699265990553248 -1.3455863252383407 2.0671456015176206
Ni 2.943311209534524 1.3899263735404357 6.288581806984042 -0.8790722550285054 -0.36496809374453276 0.6800318464594546
Ni 2.1704177750096667 7.44868268431258 6.707065379732827 -0.8880595461287802 0.1462975696493803 -0.9665630389523224
Ni 3.83979700122544 3.26941074924488 4.926687101464909 -1.4301887318707693 1.5990988967133428 -0.10239958271484946
Ni 5.588574053163104 2.962259684554722 9.732070524315217 0.7212029213811256 -0.1562611086199954 -0.32817843572000904
Ni 4.130191669378128 4.801571435522717 0.42175497123021305 -0.0001313833715417092 -0.9189356668823464 -0.20007296359862317
Ni 3.9648383594224557 1.0617090630925285 0.9373847746364738 -0.8432218209887995 -0.04862393165529045 -0.39005588995109597
Ni 5.320480997031738 8.219319021077679 1.1762070810957066 -0.2878799932112784 0.4079008885523169 -0.8351179609347424
P 3.6842894675057534 6.781798536751215 1.4855242165577807 0.42009768772882494 0.19036884893698183 -0.09638165865554368
P 0.4924569330727357 5.891545307187041 11.584362909518862 0.5337432756711388 0.7640758094852518 1.0473632982298413
P 6.609896856751798 8.743866682752024 6.857652811874966 -3.01503163288573 -0.01410301506028539 -1.7037800763735176
P 1.0018448858841076 0.2299629655404755 6.999947499655323 0.5161034511021886 0.22289201837566777 -0.14441835034879644
P 7.8024339936970195 3.3041960624559796 11.703642630924197 -0.17325764317799192 -1.9526219818457276 -0.9137114423689296
P 2.5550811063878416 3.565731460075453 6.788034814265216 -0.18571180978094468 -0.367971913567863 0.6869992789162233
P 6.391404220526245 3.4543627269910515 0.8267043170417766 -0.5817095191377724 0.37378440648458205 0.9366312843898966
P 8.169783620448895 9.218238039495432 0.5898808889278118 -0.7289064606729704 -1.0553856543136857 -1.016470722416043
Ni 2.305416371060433 6.687139757863548 10.527518217195 -1.6900316164391733 0.5556053658515528 2.6804622060377126
Ni 2.5773176991321334 8.836435556306581 2.3473547335916574 0.9420519411848356 -1.1620355276644567 -1.8330163196652367
Ni 9.388783603145365 6.289138186226057 3.77179798361374 -2.033728202399439 -1.5648559163700728 1.6187158996133217
Ni 0.9121192124293945 0.3815340464593978 9.39761507865968 -1.5636822077769459 0.0941892789899152 -0.9151314626449077
Ni 2.5386590947036693 0.006077444708684223 10.884757346368696 1.428568422658527 0.6729358588446217 1.325416535158685
Ni 5.223444370298399 1.5207730243294235 5.1070199240015 0.9033133869640572 -1.7400238891969 -0.29061307587172536
Ni 4.848561795879179 5.609956106837857 5.242014804665007 1.3360963834700343 0.40652483414039664 0.08473816087934437
Ni 0.8833249611732108 2.5297886076231353 8.074180204350663 0.054730815883976706 0.8188282226357835 -2.3316031020399004
Ni 7.673222113301931 2.1671853880944565 2.087779202751234 0.5815583382718887 -0.17595910126955502 0.4533582495541676
Ni 5.793486948957514 3.4557281318086837 3.4820971640316447 0.7787861191122329 0.15527766166080353 -0.6893865482014772
Ni 8.253881411053246 6.224044601450787 10.1645285973914 -0.36232757079789213 1.3314578562567585 -0.5374207245227259
Ni 7.77598043641392 2.4439445850071193 5.5776378107666424 0.5717886604796346 -0.4950931673991086 -0.8842787389301093
Ni 7.314798704439473 8.124019337887859 11.877721527857307 -0.706047553796926 -0.6950612299887514 -0.25440397294101996
Ni 8.563995497082347 2.0194801676183802 9.480487720315423 -2.2547834246766842 0.6253534810799682 1.9207228191442856
Ni 9.273588021184334 7.025277152292618 13.668838204150152 1.6478719523519878 0.06861940094061085 -0.7950128653837405
Ni 4.149660298614567 5.090507814176301 3.150796082158882 -2.301717627334378 0.5061411976831541 -0.30062829401588226
Ni 4.589543573127584 4.597856752119289 7.543364684370617 -0.8739645014882947 -0.17372481262239758 -0.2630971298396437
Ni 1.8820851467856476 9.0769232851046 4.49224408274568 -0.5048186222169887 -0.3353055336830935 2.2334165289651344
Ni 0.4073132609550148 8.978261176445507 11.916356911115404 -0.36873681675834563 -0.8498583524687106 -0.6859088740655219
Ni 1.661967028634343 4.540695519141691 3.401372016211526 -1.055410336904034 -1.0194238915070961 -0.00016172238884488277
Ni 7.410265580055943 7.707895964895265 2.537652224756518 0.7085515511657022 0.9761326849186285 0.4574221352108961
Ni 3.2597135884992485 2.9526368315542686 2.3978180521883417 0.5347418921389824 -0.2784479012641011 -0.13605866553019147
Ni 6.070320453615354 6.3780195379261935 7.2350116919022165 0.30757618608862514 -0.24943711585404785 0.11611744652157423
Ni 2.222433196633741 4.586236878467197 12.032414462920489 0.35895454056060117 -0.6542966464768796 -1.7805820131249206
P 4.500708663768184 0.4017689743179773 9.61148577313521 -1.3027612596530145 2.8629372540489144 0.8807295881262703
P 0.5046684821458018 8.134078748891227 2.9894553904427807 -1.0244881934038808 2.912002644116998 1.0267749325555287
P 1.7422379703620656 2.6944081285951826 10.338689232844205 -0.19729591507411828 -0.7553217174417055 -0.1968400584836223
P 3.221630869095909 1.3738387467095614 4.043431803802802 0.14779266613766803 0.1585455337787979 -1.19160218557798
P 7.113313253391363 3.2766093120589255 7.656730438106655 0.2746282704076948 -1.2229750434623068 0.8110136116873711
P 6.758047923698938 5.813076328279866 3.6721355069351995 1.0524731086525811 -0.37144984481413446 2.1955855741602894
P 3.5320050322331293 7.256281355112389 5.004720451215982 -0.7276363357112953 0.6046771836775392 1.2630320593841926
P 0.04533979956671297 6.261207762507559 6.517474740993966 2.7640356571849947 1.6318840615641634 1.072613845266514
