# total energy = -340869.26456441235 ev
CRYSTAL
PRIMVEC
9.25146581400148 0.00000000000000 0.00000000000000
0.00000000000000 9.25146581400148 0.00000000000000
0.00000000000000 0.00000000000000 13.54045537128797
PRIMCOORD
 96 1
Ni 9.147303704795085 1.0864644079491195 9.397130291579982 0.8001663845602219 1.4786684246387116 -0.19222492830911408
Ni 7.808894124356219 6.6697703721625565 2.113881334408289 0.595095453526375 -2.351814029770137 0.251886862946121
Ni 1.8060156759230857 7.345192147507136 7.106911390240367 0.6936759196054505 2.092381493266274 -0.9103011311358
Ni 4.1271899823649925 3.4443392798545016 7.072179536733188 0.6647674641012165 -1.156107849326112 -0.07028033358280154
Ni 8.598756533626483 2.9278114323735944 4.8197797030916165 0.3338659730230895 0.10544685418160549 0.13751828079485348
Ni 8.020364133270794 6.124322442090567 4.598081273411622 -1.4318607202565534 -0.4951227350854634 -1.2619581095937233
Ni 3.1020442907990127 4.5510643982561065 8.823326618340474 -0.41569390223417435 2.3506333791984746 1.3377544878987475
Ni 4.397314285466216 7.444321605268956 7.316192502308797 -1.2549608523402838 1.5568243043148478 0.8586612954723212
Ni 5.164806650045105 5.472787951854809 10.879254919681886 -0.9512451776483294 0.3989552493232548 -0.6922276171946982
Ni 2.828626465816015 6.7582051352745705 11.627974209534662 0.5553721667948243 -0.27481236139404286 0.28194563000471445
Ni 0.17696759176320517 6.862598677167653 11.884715341978094 0.5735174702452833 1.526260829705694 -0.0985339291118561
Ni 6.568106012727686 7.211277177735569 8.981966130890246 -0.7403314146804605 0.7685598133985344 0.48901919329088683
Ni 9.397546607548184 5.1965021724242 10.333831968567988 -2.115195662947312 -2.3023408627406736 1.5845798771615613
Ni 4.091904891193403 4.9806654715764855 13.514918009089788 -0.3833676792976429 0.7856949304169243 -0.054328181128919344
Ni 6.284511575188645 7.593399727749027 3.664968240069516 -0.6121261837564167 -0.10657479713846162 0.7314559665677016
Ni 8.518518569355063 3.0434547568740844 11.141438689549606 -0.8239197782260778 -0.9074945149249404 0.7467244626909978
Ni 8.014970528616091 1.4563842743612856 7.011396480229134 2.3409418629423233 -1.0015842922225136 -0.25006060837065963
Ni 0.8371290740067 8.138098289078252 0.7852607301017404 -2.023709898931489 -0.4798357270194059 -2.119081114044647
Ni 1.7680939169528853 1.3211926022872331 13.223406166982146 1.6769040779182798 -1.3860989406404065 -1.175888117276833
Ni 5.523078920813583 5.517296754588557 7.886896009305097 -0.26446110006670587 -1.3563037116558447 -1.194659484347065
Ni 1.2977771419423743 0.7391643758092492 1.9796148089302406 0.17888347400520163 0.02962399351401995 1.022473219856381
Ni 3.570677299004797 8.056694640095868 0.21416403580213866 0.20642847350300575 -1.5961848083903412 -0.3427722743737839
Ni 0.43366986804960395 7.99094447151787 3.64621459342192 -1.404278953983543 -0.10641358897024898 0.8556790729155457
Ni 5.496388441518869 3.186195625171529 12.501062806581439 1.012050224750844 0.2593713442486243 1.5954415024664135
P 5.938978573047143 0.27309957455397216 6.948095174690758 -1.1346301390683105 0.17989417465790308 0.48386875943819896
P 1.2728721955779487 3.4338573689217773 10.47700858091215 1.5425132870088143 -0.8077781354692087 -0.9977150390750947
P 7.864116124671693 3.1955396057911685 13.44542839797074 0.4309554563789352 0.8665805503193978 -0.7758496621917284
P 1.9607001867749407 6.45087143608207 13.560766424094549 -0.1121137246788198 -0.5916319204578069 0.8610351950211366
P 2.280689891400775 9.017746175490696 4.348788496212618 -1.8216224760059982 0.17637022066504462 -0.8091667882866193
P 4.604186315798652 8.128486015945771 2.4028619754292646 -0.6718356838019075 0.2765792234864785 0.4577381237894181
P 0.6807025121145698 2.5271581960421785 2.817375758062011 0.7551018881214157 2.117601187065011 0.7424687727384374
P 8.574748979460182 7.871757835554686 5.768030910184135 1.056098106999678 0.8174303138469922 0.31738263065608563
Ni 1.4448199419112366 4.778659712339031 12.160682870979679 -0.3426892277416744 0.33742463690862534 1.1579346181222057
Ni 6.274492237553924 4.898318173066177 3.2735137363421667 -1.7904640481253227 0.6632165746743287 0.2358429221093809
Ni 5.788299946955984 0.817072820951931 3.196630353627857 -1.0432179086029 -0.7556559608526728 -0.14688275272888898
Ni 5.706988812633201 7.919569411636167 11.408239866077986 -0.059788947133174446 0.12674715832127847 0.22681680735137064
Ni 4.208020040457854 8.675515946696928 4.849364966085226 2.183782925098407 -0.9911620684479252 0.036160251970640954
Ni 6.2867226755530945 2.34093543773255 8.04330129282552 -2.2114338540464558 0.5479090256485596 1.5068412875285018
Ni 2.245867373527188 1.5515263502943284 10.667847820735838 -0.6992958368953892 -0.5712569563458807 -0.07475302464217448
Ni 2.335134768575606 7.713668785229536 2.3790172470638598 1.5629000781952826 1.1412306751039636 -0.17065928632319638
Ni 2.4852675581751216 6.574026950942112 4.360811701374286 -0.22242253493841693 0.8281104192686577 -0.2508234546786132
Ni 5.508313581141359 9.41540193685106 9.1139854752866 1.8511742215211862 -0.7941304627787872 0.49402770224907183
Ni 9.003202871001514 5.666189847749428 0.2774098325447544 0.41609448010670275 -1.3505760651434482 0.7589955667488671
Ni 6.9481562343660945 1.9594327359384154 1.3940173668848737 -0.19856192627073543 1.052637402144587 -0.3750756144921798
Ni 3.1838365013517187 5.52970297044097 6.272467091655271 0.08206627047413609 -0.45099900529337167 1.0667543011619434
Ni 3.5291474683101804 0.8858287908203462 1.162147875528412 0.8028565297978754 -0.4100107358064681 0.4691041995345147
Ni 7.08389374293179 0.34448296075503837 5.152590089244873 1.2019418769410912 -1.1233008300984202 -0.27984606716320837
Ni 6.598053008040333 7.356488187444344 6.532430509692583 1.6759949358404491 1.0343630293154316 0.16454134635091663
Ni 6.512921018276052 4.027644208634971 5.475638328517097 -0.10014061147734367 1.7380012023399165 1.5220614469123657
Ni 1.3462363206410592 8.27427986801003 10.218142386737698 -0.26544891790127184 0.8603553953452924 -0.7038052947299686
Ni 5.3864995288455235 2.0013603796693125 5.344810572936395 -0.19356447305614405 -1.4385718137281418 1.2151203233045784
Ni 1.0263946394705852 3.2286228480642682 0.3531488089198071 -1.9123852458128678 0.9930538861539995 1.2053845840740531
Ni 6.392883247444544 0.8503938259002041 12.472763497356276 0.1315101269275606 0.5252352382001276 -1.3457143661757727
Ni 4.753995304089566 2.7021311717443997 2.046219812962947 1.5464005378783627 2.3271496942542376 -1.245059791176488
Ni 7.237329305879039 4.583185488069363 9.480078935377692 -0.6215114816260586 -0.41260086513114747 -0.07667543847586795
Ni 8.325403468905206 1.0630211932063804 3.0983002225249843 0.04137984849836744 -0.6185778529190314 0.4772615385343264
P 3.4785882068385665 6.739683700422573 9.624528549437958 0.18192431771405443 0.3778310657501299 -1.698467148801036
P 0.6711947805474375 5.754643113793363 3.1318395620699144 -0.14218020504689707 0.05002081200281708 0.43783418577663946
P 3.55025931363099 2.9269602975052713 5.085889795112779 -1.0289919948115054 0.721809444616873 1.7097740891734232
P 1.2615298983109409 4.681352793371339 7.344830415188098 0.23052819476468683 0.6662497050736977 0.459157629844764
P 5.10701274219274 3.8973928193835796 9.235538636242362 0.24604685922557626 -1.2810200113211807 0.6870751264594812
P 4.167600385678443 0.44435993696642917 12.392469099142499 0.7481287992376923 0.2762730050999693 0.3620763740190345
P 6.957601981111295 1.5962386852791977 10.25376700671002 -0.12553205496725478 -0.07752467385004068 -0.10151280923452194
P 7.871896607544086 3.5594275163973887 7.227163795082148 0.0980968415744375 0.9678609318281395 -0.3936266380214898
Ni 5.790677573707715 9.200638406054711 0.9709089723752503 0.6335779258722894 -0.7076786616424457 -0.40755893183186587
Ni 3.440703453732206 3.836601436560162 11.50796511824763 -1.3479077742826657 -0.03272268704400171 -0.46969401059971366
Ni 8.40202410998625 5.656142755716825 7.664128110160122 -0.23883825729227898 -0.06150927225839084 -0.5186041060368553
Ni 3.1800804061719425 1.9991492793048635 3.3293139532801423 -2.620049252167294 -1.6280101804310545 0.3076201519526831
Ni 4.591317526648237 2.157784166121655 10.667766407835389 1.60851504782092 -2.0738371546051835 -1.6978876221484822
Ni 2.390652815801801 4.356163764875962 1.93503939564158 -0.27476453887524294 -0.2691186534433752 0.1308123295295876
Ni 8.851441823393031 8.323442158121678 8.123433790384993 -0.039932317418563484 -0.24537940084490645 -1.144784711003809
Ni 0.5551906488745064 0.8285770188732398 5.37749692731981 -0.9005548503823136 -2.0402629181941636 -0.6336213775157152
Ni 1.4715381756038297 2.6868755043762946 6.254986446723777 -1.384170870379758 1.736230740703055 -1.1354940297305023
Ni 7.640943011317668 7.616870696889646 13.113742064931628 -1.2864653507064685 0.8971928758886162 1.0199093157839467
Ni 2.8830990973887256 1.0741414552903474 6.0821561105379 1.400382190032298 -1.8760398744146143 0.32979668804972234
Ni 1.1142650631590372 6.36585046390931 8.93011999050359 2.4088693800222316 0.3899011095407866 -1.4549057750014749
Ni 7.961015979137143 8.866567970237696 10.72344543056929 -0.5034145427806105 -0.2865304211619194 1.1302374093172534
Ni 3.7584635550616716 1.2924760519472716 8.384805281541425 -1.5260176033466364 0.37391193320138183 0.09836346497226285
Ni 0.6135118902865934 5.8828221746697045 5.730415374737212 1.2434729063053422 -0.3305672476671597 -0.3878673669402094
Ni 6.459641825812187 4.699124859480573 0.9648363101190806 -0.19242110348032024 0.34902853969614084 -1.425229845203597
Ni 3.928940318307313 6.109094529120343 2.034737818559942 1.3400857071350856 -0.22073177749955533 0.34364233568356306
Ni 1.7071730136060272 2.8145364831588755 8.355002609097754 -0.11396646161684243 -1.8312810821416847 2.797845406645588
Ni 8.69518456332797 0.96139383963535 0.05186464331857557 -0.35593940788336115 -0.33956096652533774 -0.11474139210965399
Ni 7.207539585487713 4.939570459781992 11.93316249377103 0.9742110424158834 0.16110326720364515 1.0576564526257333
Ni 3.635974145750753 8.840913655130509 10.544440666001682 0.11898371232577573 -0.14150349069484663 -1.2227593279070748
Ni 3.9040353719428875 4.700743866023581 4.078777986142704 1.7860067836849176 0.8426554069623681 -0.8548285519897922
Ni 1.6938138967597307 3.9909528946374557 4.418074575080544 -1.2020760885261104 0.585615539060398 -1.5238694466553822
Ni 8.239836660240803 4.167054549186801 2.4589600895711543 2.1663174213237917 -0.8953810194908579 -0.21924439432075146
P 6.69189062727301 2.720717366858118 3.695501778324029 0.232024062583923 0.3828007510505794 -0.8293424919035458
P 3.5004864267659794 2.845334613339846 0.22150877462781374 -0.4866116122906588 1.123852588836832 -0.3938780919106636
P 5.766401727028572 6.365739446317789 12.897487197822521 0.2282936490072133 -0.746899040595649 0.399645333411744
P 1.6210881228478629 0.26305433281456164 8.087524225261102 0.4927264669391449 0.42366200804131554 -0.02516132975697602
P 0.6539935298879367 0.2564968937420859 11.776459313046695 -0.9977785453231783 -0.18477747089213337 0.08236888931621943
P 7.9085971730075615 8.612735498692102 1.7685592656906752 0.37605546190694594 2.4085559625468713 -1.0180437233301176
P 5.229594666163259 6.202182779610257 5.531628200507255 -1.316004754926482 -1.4352499484437604 -1.3025236897209116
P 8.387471554031109 6.952541429231154 9.837100407948373 0.47921043473058117 -0.1543384376759858 -0.058306449050377004
