# total energy = -340893.7618430817 ev
CRYSTAL
PRIMVEC
9.06352525840001 0.00000000000000 0.00000000000000

0.00000000000000 9.06352525840001 0.00000000000000

0.00000000000000 0.00000000000000 13.26538537084466

PRIMCOORD
 96 1
Ni 6.591883583814299 2.0210391790166002 11.446023869549673 -0.2945440354950153 -0.26963133141373563 -0.11513322823143397
Ni 4.410274996424715 0.22777544602740166 5.908707700246601 0.636622112015252 0.2988899711685369 0.15067512989178566
Ni 2.5072429125207956 1.4503543292646865 4.841812079070836 0.04667297857650672 0.36624438935379505 -0.22297197968398372
Ni 3.2998572346942985 4.188526794502532 4.853499494519976 0.03780318689070263 -0.015533319748908732 0.023345359594159794
Ni 4.929732803044765 4.660845207752301 2.615097953314297 0.6859978342349025 -0.5306360975007248 -0.5141113603728243
Ni 7.429715832064389 6.428649499100063 2.38881708255449 -0.33974608595295036 -0.8959520615029796 0.13948388916165655
Ni 4.893514957263639 4.731259733246189 11.196913792094795 1.6881819648249443 -0.5105334132135788 0.5074653158112163
Ni 5.734446931053554 8.184952177260573 12.386433468003085 -0.480675706422198 -0.13529479078097345 0.07915603880587657
Ni 1.87497141059602 6.566170363473695 0.48557835028124796 0.552816747362822 -0.902363107235646 -0.01922516677819915
Ni 2.8521553552637333 1.726936857256895 0.4857822795930786 0.009774819998576713 -1.3275531218857137 -0.028162835587461178
Ni 0.569579099705543 8.786371440186612 4.375812755430327 -0.26126213351343397 0.5144692579328752 1.2200583840361439
Ni 8.716337582741476 2.319129451763217 1.340785375899311 -0.09206940443343499 1.1529713605796597 0.3480394363099941
Ni 6.961811355475133 0.659116756534165 5.011822055052835 -1.642823591294803 -0.8512153807172372 -0.892427850399805
Ni 0.8717579285662399 7.39773971596934 2.4825901246017104 -0.11746496168840417 -0.41535940171289115 0.04705273051342865
Ni 7.511858558869783 3.977246963920989 3.708604083802721 0.34098870011079985 -0.5742036976790305 -0.05552451542986567
Ni 7.658071343689888 4.0167095516414655 12.50916537868276 0.9123991513154093 -0.34545547763290185 1.019422091734883
Ni 7.807157265925561 8.700095745994783 7.079775852020453 0.4249197917078166 0.5077676775429835 0.14153511526373044
Ni 7.0522381441033355 0.9490960807849028 0.33247275472126697 -1.0171052706762485 -0.6583777585247887 -0.046602273239571355
Ni 1.9582833321225759 6.365658000556811 9.516029611564248 0.11345969718375298 0.09755613857961908 -1.1691615971862768
Ni 0.2696996871297991 4.8650917429569285 1.4260550188194412 -1.1427113734145482 -0.2419246095270866 0.09795080291487647
Ni 5.934460800097074 2.2133218612604955 6.833463684723892 1.8894947143679395 -0.45184155579932506 0.21948350691475105
Ni 3.4083385650632443 4.318769648325052 0.6170429672697584 -0.42179101627084775 0.7077691644737231 -0.5359276849169674
Ni 6.0207364942889035 5.57206481768652 4.627231312695128 -0.7473721235773259 0.7223792010774139 0.7146386379000467
Ni 5.19684394744306 2.5767873396175385 9.524241165187295 0.5267367624463187 0.7558613919952596 -0.6413082046370117
P 0.31705297968937735 5.62884780162515 12.562041077006713 -0.4471662618108428 -0.4107345013463701 -0.7007168856126319
P 4.101743542912369 6.208641493972166 12.588492068279896 -0.8998066593623794 0.5648451392822659 0.6627388637069619
P 2.5823342168993326 8.53234802584536 1.453647107886379 -0.41452173630294414 0.5795518493648212 0.9674989205030305
P 6.15123312681059 7.804691987133653 5.9757379055165964 -0.20191207368989098 -0.032920661987420725 -0.528925028346889
P 4.77954113076272 1.2533948681361415 12.621735265165784 0.06864254086906242 -1.630795456485675 -0.7856746187019501
P 3.8992915856518513 5.9548265407052305 8.24543126668207 0.4449016341463822 2.6934233941840713 0.4118184784391682
P 4.970083616212327 0.9683016901968666 3.8530503876061233 -1.1027086077693655 -0.026806578669882866 0.343506324326331
P 9.034702960846545 5.53209467256771 3.7006970646186734 1.1476592043381266 1.0998271724565123 -0.7799305171293213
Ni 1.4802458346165774 1.168759671963929 2.6318654745092633 0.22313395918314474 -0.6758039244210361 -0.41871057757331115
Ni 1.780901084929775 6.573339611725164 4.678807301538346 0.21041933982995376 -0.6848737479327883 0.17725982235884954
Ni 6.073830623564638 5.580394197134182 9.301184190259406 0.35258026160314115 -0.08262625674266416 -0.9047246654892871
Ni 8.85829051082556 2.226944339290784 10.160594878758673 -0.03125073048416554 0.5357441081512515 -0.23271980309936693
Ni 2.3954715225876484 5.231919789077936 6.9049513315742574 -1.084878007345848 0.3303695298340569 0.18714211446956805
Ni 0.5097652730168623 0.06950364123437705 9.026351828938955 0.5619063683689162 -0.5319486456645613 1.290879163503448
Ni 1.6377880256494968 0.9194130365073276 11.570466973743729 -0.8645527212560918 1.4054544623488827 -0.5161633578058465
Ni 4.2412946368793385 6.790546987637252 1.5284773827457732 -0.08351945798089487 1.027165740236044 0.29225935322589663
Ni 5.357041751292264 7.758023897061825 8.136801294503613 0.0830826275537924 0.4158373697905742 -0.10298296602214523
Ni 5.346201775427843 3.0592478373090204 4.6067232747449385 -0.0998243657885055 -0.6198662327131518 -0.07630648517222344
Ni 0.8271372887851925 7.398247273367675 6.910986732851948 -0.7611812615462762 0.044281852636510834 0.27099324475826875
Ni 4.745498530974454 4.287998981051047 7.246694259635098 1.2781735430113212 0.7838995290793983 -0.80235413624016
Ni 8.203378323525095 7.265058773929822 9.161314060213483 0.5378997210416737 -1.1545636447674439 -0.24465049309868186
Ni 4.73346216981396 0.47365800224037263 10.555598704954702 -0.5973855351121324 -0.8171873445982506 -0.36588032114615693
Ni 7.953605702394892 7.1461453263201165 4.930186885645775 1.0329916028892017 0.19494207012996106 -0.7735858058582161
Ni 7.164571472584639 6.187115622167818 6.996124048307513 0.02349705468067566 -1.1068941066056228 0.7178016090090605
Ni 2.3378275037768463 4.982264993772346 2.747327531810296 -0.1253901300727518 1.273358123900549 0.17206516553178752
Ni 2.519877466329327 5.149985523346858 11.589939957142315 -1.4633649615124216 0.337543936095309 -0.1910918431459354
Ni 0.8493175470923932 3.218575542761079 3.851458832621347 -0.2059718455815614 0.8110125832461066 0.09644490779331132
Ni 3.678386291551901 2.5341072005326226 2.670070044963869 0.25874605195979955 0.15783153843090883 0.9183965065494247
Ni 1.3263199900467886 3.4084382638379167 8.17886602024305 -0.9312918744548542 -0.07136893866128999 0.17467894900555078
Ni 3.5134120100433752 2.4398556043669726 6.837271271563895 -1.0115218630512 -0.004996681883643008 0.1786513033897375
Ni 4.071661703536103 6.894650635445566 5.960681577836014 0.10619710208406873 -0.5634839972686811 0.25637292374193266
Ni 0.9268088728830532 7.536438838589105 11.525523672473742 -1.0359013203368288 -0.7374638633246784 -0.13036572891047227
P 0.20202053347193372 5.596935130204892 7.9179361998744655 0.5181269092901205 0.23274242880718626 1.6866894394398175
P 8.495223827567207 1.6517005364788337 7.959787932777101 -0.467111337474202 -0.06118119949501076 0.6036052907695991
P 1.8323547161858953 3.2963224599559 10.42547820871928 0.1188168477306083 -0.36672621408622 -0.22227881027170107
P 3.949186290613089 6.1221664022309925 3.874288039316417 -0.1976011050193629 0.5348609342153499 -0.43585186523928804
P 6.931294466900295 3.917155793368218 10.438173488145113 0.22590740816322383 0.44987826142536713 -0.7860672261546785
P 6.415598023142899 7.731658102923363 10.167639050365553 -0.3240767548468096 0.7233562202787026 0.435261797063773
P 2.332760993318476 8.458697821937093 5.796124218476119 -0.2123281268168924 0.4819460884941893 -0.13351610161399585
P 6.822042736908878 3.9765853265981606 1.5873096296801756 0.6355954705229505 0.5653174509329941 -0.8592732180247071
Ni 5.175399647363444 2.8120401937453985 0.624475964097862 0.9955668823838403 1.392640598413666 0.12159029671068737
Ni 1.3556042392256729 1.0423053715789738 7.096741864412268 0.3498209536904492 0.29716758916079145 -1.0972105607692717
Ni 6.868973669204842 0.6711395224072042 9.135047964849695 -0.4083467178404838 -0.01763185414915028 -0.11171186125471082
Ni 2.6683923864918753 1.4834361954061064 9.363862997191184 0.49182349550890136 0.01775552421120813 -0.5995720012404899
Ni 6.4207007877011515 1.9726218286255144 2.606714192716814 1.6298199799462831 0.3515510490076785 0.2065171765620701
Ni 4.422447310459765 6.968237394679042 10.499287024314528 -1.5299405925501264 0.7012686443510439 -0.3737985475519691
Ni 8.383814978632872 7.413328978918174 0.33292139920729447 -0.7589996805139251 -0.6770321404011823 -0.35775794914933867
Ni 7.854885788418908 3.9127418567077052 8.010222823826565 -0.538940246491046 -0.5883709903183479 0.321516193208485
Ni 2.919325138818271 8.300657137030809 12.59105251408399 2.4879194893778633 0.2199429630496728 -0.3359855904692536
Ni 0.10386618345409324 4.789293483630712 10.30790706915767 -0.27172472360765465 0.15744715850829658 -0.006884642934975241
Ni 8.414948186905686 2.2139472444834425 5.891303013246226 0.7479740188273827 1.8051193361446523 0.21949636243055745
Ni 3.6503437452939416 2.8768443972827 11.645907223833621 -0.375329896594831 -1.0429577129629781 -0.04849563360754229
Ni 1.3017215832775249 3.2060316242022506 12.631790339767782 -1.2735730681248325 0.6377230583889145 0.18180913229242884
Ni 2.8961678325192772 8.263179461278817 8.011827974098797 0.5512226634028249 0.17659982017734746 0.33480931077296533
Ni 5.823351047486756 7.7571809892395915 3.6511114258589217 -1.0606327616452378 1.1645307832824847 -0.334992630428365
Ni 3.2112250240102047 8.379391978447387 3.7001133736105887 0.6836398755256872 -0.13231102556230118 -0.77713264266921
Ni 3.5453065544136915 4.181819786024545 9.265062417842964 -1.1950232954443871 -0.5474482839620572 0.9103939479599223
Ni 7.38477887526188 6.296276716909532 11.549759538244194 0.44757558143411946 -0.17314014376352116 -0.7733844884806874
Ni 0.6456338567884182 0.18964700918254576 0.44929887253032347 0.673032532323486 0.2352924489225496 -0.19040612993282047
Ni 4.824922200288771 0.5323171358478432 1.6364710954713193 -1.2156682253882483 -1.6019232535360153 -0.2927617467836119
Ni 5.977023113357378 5.665047520356335 0.09495673840833559 0.692585514754749 -0.15909806384815828 1.493239637584667
Ni 7.999313058819873 8.93421565950136 11.296230992366318 0.32055434351584794 -0.2711048306354686 -0.07092439492470366
Ni 0.11642641635786839 4.932370288811109 5.81714978370211 -0.604152678632637 -0.7394672669079523 -0.09824622266810822
Ni 8.087156742831555 9.022693790260961 2.364289371279994 -0.24086865745874644 -0.5440981365429017 0.21577751881807353
P 8.451301985561367 1.5928782594218986 3.7488769506555384 0.23388862659648754 0.05530108656514992 -0.6637071411575022
P 1.7411575279352203 3.1844966888729322 1.7826820675864294 0.21229264559326663 -0.3220977767435679 -1.2669344797623923
P 4.669573382298654 1.0326889715855365 8.04626483722327 -0.5919396815062128 -1.2301589628052554 1.6828898631880693
P 8.65756062330939 1.7022478152379288 12.346067246843075 0.3743950434853875 0.07744908341709887 0.5557418914294171
P 6.344539987376123 8.022515682743718 1.1992013332815141 0.7842348009316299 -0.9924141956874714 1.0679197822249544
P 1.6016245610181916 3.234862697132622 5.91962471607327 0.5699402944169861 -0.6910251122461647 0.5247392724003157
P 6.6205424497702365 4.15215486879691 6.094476427094376 0.9128732627383505 -0.24895863355573253 0.10912893101888303
P 2.491454252022617 8.443788323361028 10.298369521831473 0.3326660391777174 0.028468539753338067 -0.8657066323548768
