# total energy = -340894.964348421 ev
CRYSTAL
PRIMVEC
9.03018945527042 0.00000000000000 0.00000000000000
0.00000000000000 9.03018945527042 0.00000000000000
0.00000000000000 0.00000000000000 13.21659505333391
PRIMCOORD
 96 1
Ni 6.371701677339468 1.9501506838669984 11.426235539696986 0.9139847506349743 0.3698714445834211 0.13591596930474012
Ni 4.4777819831901455 0.3974854611849805 6.023106564866624 0.32447990382249925 -0.6134369321480403 -0.16061758581647823
Ni 2.5806746321642646 1.5086918121265016 4.838833338993095 -0.22678621122375134 0.5010504134238081 -0.2734327074376968
Ni 3.3505614942744275 4.086251028929822 4.628676448933262 0.3623208859296728 0.026474906362076986 -0.11895774418384675
Ni 4.934420603399475 4.405540467574053 2.5556140503970415 0.31304723650552535 0.4777006829542741 -0.12378267637631585
Ni 6.980453838867933 6.104633824296221 2.872349751464243 0.8587060326673276 -0.5409853019455328 -0.9043202309620169
Ni 5.129255971016079 4.4874894368510585 11.471581539049208 0.00011389987004496514 0.2849715613152318 0.28002501594323387
Ni 5.704524190056485 8.0116021422037 12.474298290895316 -0.536316949935586 -0.03899232210279736 -0.4798611809407027
Ni 1.915799843191546 6.562780486144035 0.5676458361239634 -0.09563603873877079 -0.5758456041578276 -1.7583977637183976
Ni 2.5734775711710114 1.4858273724340079 0.4728333619725663 0.5222836117709715 -0.25529280330387644 -1.0417608644413996
Ni 0.4572129402584764 9.17097010556858 4.755449472612164 -0.06974734389746698 -0.1905287715536138 -0.22679418164355133
Ni 8.4874208848091 2.37089430100458 1.3994788948559815 0.5997350091809155 0.6301285338711083 0.056768672249611914
Ni 6.674185933413504 0.6951828138305056 4.864962192172491 0.5655221107446325 0.024439106878970815 -0.6815390271326005
Ni 0.6792228569930201 7.344207930373869 2.5478426693546403 -0.09422913108891513 0.08788313426622929 0.44897066200943325
Ni 7.641915216227791 3.936738182172864 3.779034050563986 0.2618208342303813 -0.916753314519047 0.03322610904298149
Ni 7.513171805210461 3.9960394363042253 12.509877237336243 1.3331797240438719 -0.671016787445038 0.4157157566110453
Ni 8.054901900626096 8.980776255330309 6.846500008536792 -0.41807628642342193 -0.6706617180984644 0.20247668794410936
Ni 7.040585870428879 0.586228159978313 0.5370849659615201 -1.4547178273603851 0.21775006916341208 0.08779160299368752
Ni 2.0936133036911087 6.279927861938672 9.141178607547447 -1.1659045237015597 0.021192832027531243 -0.7816369582974667
Ni -0.13712432984774311 4.825083069514517 1.3527052225513962 0.6998848766296397 0.384631376501415 0.41169712236995554
Ni 6.414008114922143 1.8822255988089664 7.108426974725007 0.1330057376364806 0.03319422736378154 -0.010792205519497543
Ni 3.3773811569469023 4.224738014365873 0.2678977274538864 -0.5090059208254588 0.7078704659382776 0.5548911133933476
Ni 5.844537277509927 5.405399164458598 4.875959156887151 0.19608903925021068 0.4077394232737881 -0.8358404409230638
Ni 5.570471027641371 2.911938102021862 9.153391035762349 -0.582750558807777 -0.8100903285421532 0.2715745711830355
P 0.2631171451579914 5.793146469338528 12.608724400134797 -0.35492536479655 -0.8903416572947376 -2.0181624867506986
P 3.9792523141129355 6.253370074760306 12.568796514453782 0.9478436081659483 -0.41343981609267505 0.3448376415432448
P 2.2124686572584866 8.49289317961702 1.4239028482668377 0.9011078946723061 0.6058915157006145 -0.28563670570305644
P 6.407822435147515 7.725616042258488 5.772017632058711 0.21507535054472637 0.12608869880167317 -0.07281287019666816
P 4.8598312385258575 1.0616251927363054 12.686160080723688 -1.289106387873741 -0.6268784023649269 -0.5713163488289065
P 4.163856477080411 6.134848838202652 7.924102315470542 -0.17759149466665544 0.048398703018361806 1.404820942529942
P 4.524567394741019 1.108952415654299 3.862007946343796 1.2517654853314377 0.02536753223051115 -0.49818106229581294
P 0.21266999178432794 5.444400552701836 3.545628937759949 0.3196264323849398 0.8595537253796035 0.26693732952134025
Ni 1.4437828103454413 1.0908288254241114 2.6354156406223597 -1.2543419878093625 0.007915655302650884 -0.4487770579413884
Ni 1.8116275776731385 6.556260689359682 4.739854335428539 1.3374780943089095 0.32602076594705787 -0.17268454428334132
Ni 5.976350952940943 5.625519062540835 9.44052126071113 0.11018565441817153 -0.21805962998403092 -1.5868069667198672
Ni 8.713807734371034 2.3270346708361593 10.19084060529773 0.43300771092227364 0.4209320107046622 0.765393756965727
Ni 2.6525097892550176 5.254874936483014 6.797334239046369 -1.1148190178796542 -0.7857676926363886 -0.37187716215954014
Ni 0.726565431233082 -0.10034527122864459 8.992914635991703 -1.1766887588012573 0.4029162908535319 0.9815037194225549
Ni 1.3183354184780947 0.8799133994503092 11.637503143059416 0.6403838930505295 0.33286992765840734 -1.3203118669422682
Ni 3.9323224195308306 6.937154080445537 1.7550841434004223 1.0061513427679059 0.08248047519341925 -0.7746646407446917
Ni 5.71688651941629 7.63032948316086 7.916119627994963 -0.5503418034597684 1.7971239766440017 0.43730736673889203
Ni 5.431866649742444 2.8275690419717168 4.962289574086273 -0.5493064202167185 0.4223600014004404 0.22658078008116464
Ni 0.9531094060914808 7.472382439455724 7.093227359839381 -0.3496072950177463 -0.9234842054849773 -0.5195363880431375
Ni 5.188313410032236 4.358411908824003 7.017377380518264 -0.6008374982164749 -0.048943262667922156 0.9631848665087088
Ni 8.24529441503231 7.065265378201228 9.192340048906765 -0.8064565884443078 1.1192886236152335 0.08918231269362706
Ni 4.629263411247642 0.5146937081963118 10.339712308603595 -0.49755062780066567 -0.4258088791809892 0.09323694237897491
Ni 8.328299916475203 7.08435519870278 4.928283686647887 -0.9484105364130118 0.3556265046286327 -0.4943082096039681
Ni 7.169311221067307 5.985715259402679 7.130392910567027 0.6271594239404553 -0.5245089015570644 -0.7820161960137564
Ni 2.391437982007907 5.19313553119961 2.443417558531577 -1.1911157328598647 -0.7727219151960241 0.6850375272041621
Ni 2.6164341823942308 5.1080711465616595 11.338529824644322 -1.130816164638859 0.6255344867425227 -0.22978283195823007
Ni 1.120709722320818 3.2628602943164897 3.6885669035768975 -0.7560256854872657 0.645379803603224 -0.08205701450275545
Ni 3.454372552214754 2.4705966227442415 2.48560570063243 0.5604683503708089 0.8905319189286729 0.36370799608518656
Ni 1.149019366252875 3.50197971100576 8.057351791024427 0.05628144820054823 0.11723279107294005 -0.6816439281415809
Ni 3.562274285976842 2.580214092502212 6.80770992672673 0.2132169571797489 0.7337614747724266 0.5124913082708981
Ni 4.328404589274968 6.923085045279303 5.822663449600319 -1.1152666469400343 0.6502312181582544 0.2215740708951926
Ni 0.7652399266181577 7.415844423296678 11.096084589179876 0.17872072317509222 -1.2800249943977633 0.7650785397181533
P 0.15797142521665739 5.606573725070515 8.039443119303197 1.0496585220219212 -0.42056665694544343 -0.28626431198472635
P 8.581298734352215 1.6768610302913158 8.101402861209229 -0.4550045269083389 -0.28256423742531983 -0.6752333966295468
P 1.8054870488457708 3.362643887761219 10.137960718885694 1.267581883538404 -0.5162320062602529 0.9016506545496537
P 3.939961959807232 5.993517343089216 3.783118405253131 -0.1433567418535015 0.7887745977835126 0.2284276034819163
P 7.005070135314117 3.9339839743900002 10.415205595441357 0.018543824440458385 0.506804799409082 -0.10689824191615138
P 6.227950091452893 7.874505805943258 10.164090475084034 0.33678006134609095 -1.1439879261341266 0.6056341482741698
P 2.4028611716647017 8.508668920589685 5.773960025809839 -0.0917511018620678 -0.7587783085317383 -0.14813410863748683
P 6.8876144611118 3.983108205008944 1.551350427097805 -1.315927107611011 0.4469554313516174 0.04682544499397097
Ni 5.235116881962012 2.8742551214386176 0.4608701669865412 0.6108863978120448 0.09055348200954083 0.05945547505315567
Ni 1.382512974913542 0.9996329421482452 7.031201697550349 -0.12167848554911949 1.323930694641778 -0.8765638867843548
Ni 7.013991962492704 0.6540232103082362 9.387509533533095 -0.05094743758214451 0.31108651323472875 -1.4075280570484598
Ni 2.6693962435302794 1.5796239502720537 9.03395233195637 -0.4481206553043121 1.0375278001966584 1.4439988982809842
Ni 6.098068876564608 2.1809894168287736 2.717688793700693 1.2686887434493377 -0.6106763386837677 -0.3703105890033687
Ni 4.088020946062416 6.926679060681204 10.122814382117832 0.7885745659575645 0.9774660590180715 1.0637746497083294
Ni 8.129238420195055 7.146437751185361 0.5741990446092882 -0.3415746545212569 0.12317332492709111 0.15505757523019748
Ni 7.749248048054404 3.7915327357845157 8.313820007688902 -0.27176277593444165 0.06076725188604373 -0.7440744266626605
Ni 3.1988543114806305 8.338783966428988 12.384002717507814 -0.10726693810947979 0.28758611611994345 0.08303814746910215
Ni 0.19665585381013037 4.857095091121899 10.201057361643736 -0.33820111006333364 0.27482573113048153 0.7180047261588022
Ni 8.529862775233557 2.3658644854798094 5.766506507436149 0.5367584083483787 0.5324929482038055 -0.02116609255465387
Ni 3.5145226441546042 2.734865117057365 11.465488870225935 0.01957072304307597 -1.0277537515290298 -0.21372320739220613
Ni 1.1085099363711504 3.312490215544746 12.399227616923906 -0.42441071328188196 0.5783886822946555 0.08363772872631402
Ni 3.0379002146879737 8.481614472991456 8.096063310186254 1.290441818855713 -1.228872125673032 -0.7528208053967228
Ni 5.337203173717005 7.831224107899765 3.6621734658465575 0.5894014884653914 0.09182232141963541 0.4383656328000773
Ni 3.05206858193818 8.581163281510435 3.536813666816895 -0.4634398021598857 -1.2503079269493047 0.1630822453068869
Ni 3.74715838481733 4.354565048117446 9.186934577500791 -0.9392607515929435 -0.2507002988371876 0.00881862673289449
Ni 7.312584206912924 6.237070582799426 11.2976248724646 0.6760404659118745 -0.04547664427556039 0.8087718668410459
Ni 0.28822468391036477 0.04819412110538653 0.46121963531833404 1.4174268042194103 0.3088267706662746 0.45004615446179913
Ni 4.668734369342386 0.35044720432945153 1.6024856809077117 -0.0687772666747138 -0.29757716589438427 -0.25697044811661546
Ni 6.177408121089984 5.772377033598902 0.1533696406719122 -1.7280217225297012 -0.33328593214990343 1.5524940523706101
Ni 7.969593700872941 8.789986412588206 11.417366990636165 -0.5012604725520852 0.453747000352154 0.5621197699313029
Ni 0.22330484590196215 5.1661533251169995 5.818130294495409 -0.265297222814756 -2.272769319731144 0.9349284427661769
Ni 7.698742198449302 8.57328895630828 2.8726928986634195 -0.06464627522547575 0.9969465363401864 -0.2824423671354749
P 8.484666677026237 1.6876250161181137 3.46191546946402 -1.1972879231088476 -0.980690736602956 1.3300851442789479
P 1.6362883890834272 3.277832348427925 1.4364981565145036 0.6274257902279646 -0.18366624010582563 -0.287379399425776
P 4.556823231463604 1.0942783577947799 8.081775744435282 1.2209374442069876 0.3880270324465253 0.846070089070872
P 8.524841989898238 1.7636321207356964 12.45726193547515 -1.0293756034031691 -0.7669199638022663 -0.31353728876806647
P 6.162047768832111 7.604169024318383 1.5074447429631788 0.050005128273533234 0.6642216189000754 -0.01214512000296618
P 1.7352592654774754 3.2835755489194045 5.829297929790712 -0.5535366562479821 0.1747887351105377 0.9073248221162954
P 7.021622472579655 4.014461022786329 6.000770391257072 0.9987522220903574 -0.6785722311947927 0.22916319609636018
P 2.389604853549149 8.484359650584869 10.222348742333688 1.2871631481044412 0.053862297236094335 0.4227978602688073
