# total energy = -381167.3221369185 ev
CRYSTAL
PRIMVEC
9.23283469573041 0.00000000000000 0.00000000000000

0.00000000000000 9.23283469573041 0.00000000000000

0.00000000000000 0.00000000000000 13.51318684643034

PRIMCOORD
 96 1
Ni 7.610782592239639 1.648356442676455 12.269717140425692 -0.5399149516994896 -2.8164959318672396 -0.6421618108865587
Ni 8.39625677056205 8.732544308435399 11.875280286398265 -0.8209753508857732 -0.08028141065957141 0.074350132776801
Ni 0.47175722812951776 2.449914219026908 12.318066725840989 0.46147290824150206 1.3834633027897723 0.9680730478389455
Ni 5.046242730550193 7.529358223118341 2.580558829874666 0.4922569835018941 -1.579568282879583 -0.2057327329875618
Ni 0.8975894132330405 7.791386071588967 3.2807723962625457 -2.471626408644795 1.6335971876005282 -1.3932702615778652
Ni 0.8337277422569438 0.9164382452504043 4.041389013752065 0.320056577943823 1.0120605091634893 -0.10465161197381977
Ni 5.271228446249004 4.801988088855675 1.7307281006368334 0.9160606593273967 0.7669261344498535 -0.004649582956869412
Ni 8.596655447484354 2.8431591140960024 5.657363135324186 -1.2256505334119407 -1.3547996163064926 0.052551034623838526
Ni 0.8397641695765383 5.140122193666802 11.358509296026545 0.11375588826793313 -1.0522913316590778 0.8078107884793573
Ni 3.0894634450914533 4.9341284189230326 7.077314943616536 0.07149646537808976 -1.1066840474773456 1.7907106169184903
Ni 4.765509158999882 5.070165005229101 10.216887752414987 0.5494786841285246 0.2983299849000088 -0.34689221007942844
Ni 8.480377127412504 6.5467630241881825 12.62716725868944 0.7262705657120202 -1.2499829395097184 0.7705053671606795
Ni 8.461616007324686 1.1197674239029594 1.6949185512959832 1.0179691613384403 -0.7267845292339612 -0.005097212017249286
Ni 3.9842913174690477 1.8659743562935323 1.2606429388694729 -2.049484951013064 -0.43295166087335757 0.6999779505640784
Ni 2.098651023288185 7.433456769204867 0.8241255941805008 -1.165941290476766 1.8327676939895403 -0.9467624592866275
Ni 7.387421855446074 3.591120285077464 13.068075739556447 -3.1435325406733217 1.9058944958822015 1.2277284989868922
Ni 5.023936201941842 4.928717977795345 4.647630788676449 -0.28134990540224447 -0.36514729963487436 -0.5428166987273167
Ni 8.674202026036319 3.104993073038162 10.388626787179513 -2.1048390023033363 1.0148303585991425 0.9574093974775125
Ni 1.4157998025327578 0.0906165793375548 10.69887680794673 -0.5276921843810525 0.3296326516680323 -1.542766283559885
Ni 8.776427971711682 4.944930835509031 8.814300136322029 1.1202648714855736 0.8763129471158134 0.013720692020202176
Ni 1.9417574634199204 3.5446606609229825 8.4659572861954 -1.8100571397659018 2.084766142812861 -1.344061403953382
Ni 0.13229821154053722 7.145401559746268 10.209712916578253 0.6639819920854436 -1.2103663535593605 0.635780332840247
Ni 4.659183834722653 8.683850338286206 0.2687031879506916 0.3476283169145046 0.8925322371881531 0.7826677135548262
Ni 6.075195992453256 0.4917260029946436 5.434584990399489 -0.9836130524560738 -1.0210750539572737 -0.45256197890511735
P 1.39254229195145 0.39295775391027005 1.5707184590610692 -0.749116102851626 0.3060494650314535 1.3201169773226427
Ni 6.1249609714263595 6.843524796758403 0.21807216908377056 0.4137046397182875 -0.19838374882165835 0.6343862807061978
P -0.11550922494226427 4.227567278686543 0.11635956901711081 4.066825456083099 1.8213095727512698 1.7028570503386158
Ni 6.32512882748144 2.581989919251443 6.6156372011168765 -0.005099783120410572 1.2570413890183965 0.8223843154181578
P 5.607792969163017 7.580471195956022 6.98957439228457 3.2880655622231116 1.6353288255796545 -1.6582784923972924
P 3.3931406108436506 6.2218318729821664 1.8361042895080437 1.0959741172590094 -1.339828853929273 0.8571438303865303
P 7.560805258068691 8.245078335366207 9.84891035603897 -1.7327132144681 -0.237452689798662 0.18791833051396026
Ni 1.8552181038809785 2.7484302301880175 6.024853961312098 0.7139243854418413 -1.8417763252460537 -0.265253256950698
Ni 2.748014752627017 7.168529810641931 3.97657913065342 2.6490662082249345 -1.9773873617158657 0.09366554527596126
Ni 3.817620185665251 6.725436841087533 6.08125827170998 0.8390538056540389 1.1079351462756273 -3.092736283957061
Ni 1.3721192616196312 7.081057934799412 5.917465014478709 -1.1618704628415022 -0.550391168640465 0.16893227632976068
Ni 0.5859304618923001 4.492124923861924 6.498383893701882 -0.5438479682053085 2.552232806743953 0.8898490339290352
Ni 7.4424680158612215 5.193691100531726 10.962261883116625 0.9456031488712039 -0.28722976122178917 -0.41719336959783637
Ni 3.167905608608241 4.058320186004547 11.479911839350725 -1.3485328094611744 0.6284359766600337 -0.29746789401002965
Ni 8.85593191121769 8.11211628301154 0.8907746579491727 -0.5672282948024618 -0.36512493103737115 0.1934505731860991
Ni 1.0239490655016854 9.568263573134734 13.020752845358555 0.7486098526391688 -0.4545119035426366 0.509883952555038
Ni 4.061090036411214 3.7259473700392878 13.537645709148167 0.6549805599177817 1.5635402828824427 -0.4106475980595186
Ni 6.20678235243928 1.6314788208651687 1.166551120555021 2.8279260280810523 2.8641307601363835 -0.19891442451414776
Ni 4.325989296470084 6.904359944523483 8.332014706796773 -1.7625662932737904 -1.0075952743032839 4.0565274165912
Ni 0.7197844060779148 3.56211071848498 3.9272702537139472 1.2312259706171893 0.543069181057755 0.7641012634065485
Ni 5.503508101352034 0.18777000563484192 11.249917310833194 0.9176079492098584 0.5902196134913126 -0.31812773635222635
Ni 3.8622978727247776 1.935414505988655 10.63737781936752 1.3599585347996126 -0.4357996718451139 -0.8505193830914772
Ni 7.269814007179026 1.864192419198577 3.8829471075064745 0.15420062654654088 -0.13051305312161393 0.010037586741660132
Ni 8.495740564334813 8.622285796580705 4.891936210961756 0.05976863541820029 -0.13838988476652941 1.8620692711671352
Ni 2.5495734366587595 6.155937131807577 9.931327254889325 -1.0100614764555895 -0.624329410690828 -0.5076990290885772
Ni 8.417972397750313 3.274147837373269 2.419359999190973 0.01203044880197283 0.6408680317757995 -2.1964211826877076
Ni 6.223669207085255 3.148202739382155 11.146216881458017 -1.3743202028379233 0.35863983753365974 -0.3854636425947232
Ni 6.29549142813011 6.905006242951704 4.896597869196175 0.3135617142480987 1.1366579681316165 0.08550666361425274
Ni 3.3339396748185037 0.6581912425848777 5.777941186510649 -0.26990052591472224 -0.0022540861414993437 -0.6857486943385739
Ni 6.582429464591355 4.026309948138174 9.059591625352107 0.7113810501946973 0.6771776648401112 -1.4601030029316984
Ni 3.2699930617632695 1.8617457180060217 8.314650514597382 2.3522619159408324 -1.4687995022644316 -0.7157673521878511
Ni 5.414697464479626 0.659093290533982 2.8092293698978104 -0.7270601514928511 -2.213578154082968 3.2655175017192666
P 4.491847938821257 8.441506893372289 4.513891331640976 -0.03144587721410713 0.24585274093689918 -0.15721935876820667
Ni -0.11519807841324876 8.148798335230488 8.161694758723927 0.8588176185445273 0.33825921699477873 -0.12168799863081622
P 6.832657750329583 9.198470078175415 13.710479758106796 1.3589740593991564 -2.005254006219146 -1.2944239434319127
Ni 1.4662757097769055 2.739409750696974 1.82342853076367 -0.47935313095603255 -0.9825169911784175 -1.2273880849283376
P 4.695422710876537 3.512077987305899 8.070886136424843 -0.13966000972820464 -0.8032352532935327 -0.01702610224435132
P 1.3323626754492817 6.045447799085661 8.012563242978612 -0.26617242633085775 0.3425290480147262 0.40790783053085233
P 3.4129358084166252 -0.10506134920831922 9.642429087623631 -0.05246850221236125 0.3336967944350769 -0.36789015248733414
Ni 1.1649067526969301 0.9777848920572481 8.145559456821628 -0.2052298252092143 0.7096560970837907 0.8770092018518896
Ni 8.66580937930412 2.63961204054479 8.212720019632064 -0.3487565169816768 0.41683367226557244 -1.662070098229241
Ni 3.147150196227622 1.8607855031983775 3.47952393547635 -0.1961440608578622 1.8094326188080256 1.7223817506351047
Ni 2.0945424118516303 4.9545883805936075 0.35944625712348416 -1.0630231162542854 -0.8158819955232658 -0.8844342906713673
Ni 2.840509290540292 8.269231430912336 7.385942755328915 -1.511126545167417 1.8231548534901247 1.723565743640877
Ni 8.760159716989861 6.022208754173731 4.360854326822261 0.3855104366722587 0.09392085581987696 0.22359444375933102
Ni 3.235665382389986 8.720440062158268 11.991547527068485 -0.8578765947874968 1.529383948715708 1.1893275306111903
Ni 1.5343493999380726 2.5062991404719437 10.222874322427261 0.8743146857388621 -1.1988213290342384 1.8872930787309303
Ni 6.414041025535425 7.230731417940966 11.402616393902298 0.8696476192804958 -0.13246606308292672 0.25211183447273355
Ni 8.433751312233623 0.7964824871219718 9.70156262395555 0.7667515565452021 1.5164955227888142 0.15309196686339438
Ni 3.141998274471223 9.085081635361188 2.6498004736239773 -0.2892498769756115 -1.2251427405375868 -1.2335980703937917
Ni 5.442257476025954 9.000314980082512 8.685452235104728 0.32484448625076956 -0.3625831384521239 0.04698305361775779
Ni 7.587866696541821 8.280467790728714 2.916874989535549 -1.14429054497621 -0.4876547088431924 -0.6465823085517575
Ni 0.9657914397963833 5.681452524310962 2.2771475697615084 -0.16924440825354078 -0.9123814107035965 0.6856034270099611
Ni 2.72201509014311 1.9647102904564948 12.54129173996463 0.11903821971279499 -0.31232321385530726 1.182788443941092
Ni 5.261801722031649 1.942939266260098 12.808176982765078 -1.417091789477495 -0.6910791054125517 -1.9489051951157728
Ni 2.420960049442557 4.925006378250412 4.996392809497953 0.137763306926124 -0.1396083305546628 -2.2911735332699443
Ni 3.2037105415317466 4.094088187589297 2.528601052662952 -0.13835311799132302 0.6692445260359635 0.7141724968969054
Ni 3.7283017428849536 6.4539730355648635 12.77775848559907 0.36339123617571606 -1.0546958273355127 0.04712806383605432
Ni 7.715566033123824 0.6817792886480474 6.983196350081485 1.3254209060340592 -0.1594978703897382 0.7547537607533775
Ni 8.123592696529826 6.804636097048809 6.696743960724877 -0.9069075320732187 -1.5543845845251036 -1.3894377752056524
Ni 4.343845598758392 7.382214536681541 10.722484242962746 0.097917892794412 -0.22757836810774354 -1.9879695081070858
Ni 6.946572464721076 6.552136533977115 8.768747176533996 -0.8052936784844583 0.05762587804358463 0.4704997943304607
Ni 7.811596746722942 5.907712371196837 1.639393206760483 1.5659213815201094 1.126867721514072 -2.1759739705769494
Ni 5.453632328362664 5.372909654677721 7.20882559435811 2.565317407842053 -2.3728536240492555 -1.8552566191206759
P 5.443707031072109 2.811785941823163 2.9830227103806144 -0.8025027460028824 1.7842980285239272 0.8950192652760651
Ni 4.2962872672759325 2.8287189606425827 5.395518096980399 -0.10406437201178208 0.06696489605632339 0.15909446430373247
P 0.975421286376893 9.193004240039594 6.3747516208003345 -0.39326436958606464 0.13511147112557376 -1.861851241619058
Ni 7.092792867688987 4.828689446775939 3.2299890356232583 -2.146640768830471 -1.110307760272862 3.603352743802749
P 1.4644753070125724 7.416846899599559 12.063356822144778 -0.6106724820290257 -0.8696815578422248 0.02721332718999829
P 7.487487317804236 4.778665948431546 5.860128187777249 -0.21659101585830443 -0.04302484030095816 -0.5318540290682259
P 5.7396009171815745 5.169990413885353 12.330593835946873 -1.0465747408902752 -0.19422833189238808 0.24362899381270303
Ni 6.222533568418522 1.8425506546878248 9.25120895320181 -0.05106236589345399 -0.7881027685274685 -0.8256470453298296
