# total energy = -340886.3863743589 ev
CRYSTAL
PRIMVEC
9.09682844648300 0.00000000000000 0.00000000000000
0.00000000000000 9.09682844648300 0.00000000000000
0.00000000000000 0.00000000000000 13.31412795293946
PRIMCOORD
 96 1
Ni 5.320243590535107 3.1384694097929127 10.352799079287811 -1.3478213852164465 0.06479745609135938 -3.3465298770075913
Ni 4.716832781796782 0.8149993941409962 6.665558049709202 -1.2587244331477743 -1.041468015791329 0.0336984206937097
Ni 3.84232739561151 2.934682264262008 3.2124993977551703 -0.715389142912826 0.881028864534244 -0.2590694967374893
Ni 5.208470862335026 4.841231907550514 3.1870028076518753 0.1749298886740923 0.09268852607467262 -0.7720706547652703
Ni 5.226673615580599 5.042890395280588 11.852409390123473 -0.824088185483142 -0.3417042381205857 1.0092664913581197
Ni 5.71536432377923 5.558598683259006 5.368988944491332 -0.6127111097256094 2.0837065912000954 -0.8035622976156483
Ni 3.536501128063814 2.8067808596479327 7.524319555313708 0.15462228746499176 0.4140707648084546 -0.6298603678113861
Ni 5.27879844121635 8.252260484131972 12.763255695319613 0.4677245455781687 -1.3052434026449198 0.5088951062792075
Ni 2.157531133566056 5.386386628440437 12.020580633851745 0.6617060515670733 -0.0006384049149472876 0.2760848003485632
Ni 7.962562892998269 7.250617826902153 9.608406536654146 0.3133691386213184 -0.43526282550503753 0.4611358366170574
Ni 7.77130207991072 8.979260800913456 7.4884380261273815 -0.4351674375777538 0.6335223900440058 -0.3914764244477064
Ni 8.47341347471325 2.4518590102579774 1.935807771856092 -0.05024989729448766 -0.5717506081528476 -0.3115138305801345
Ni 1.336451419450376 1.4640253382489392 3.004865203574814 -0.4443555318349251 -0.013495206272957404 1.1019822711263023
Ni 1.7884091353423472 6.977258139231245 0.8448615521016383 -1.2092597507587433 -0.4132151016763787 -1.331162950724159
Ni 7.526843015458796 4.279784767338842 4.4082410784736465 1.2116241372258618 -0.29056036825691894 -1.2669365366449212
Ni 7.207016729297938 4.195930204911206 13.167685212869678 1.003872059815426 -0.14571881432777486 0.13503099559662549
Ni 4.492213899667994 0.47709862001230685 10.853490323259335 -0.5670730001715202 -0.21115776065787506 -0.4508326549188365
Ni 0.3658171205354942 9.11856962810122 0.5594876834155231 -0.252360717258746 1.1739420492940555 0.40683953716733806
Ni 3.31696737290368 4.3441357300870616 9.991361171851976 0.3992470695320608 1.2599027697265914 -1.0294766477574078
Ni 0.057477399353739314 4.903490599810737 1.8922567068070246 -0.350984377870931 -0.48388161495400533 0.4844984226023979
Ni 6.620171244727623 2.146724101654141 7.471169517138839 -0.14810916893682236 0.43056079204367786 1.675656578664424
Ni 3.347469037887392 4.550897538442205 1.1233027280099166 0.7030974700296665 0.3220692374984776 -0.8767212382978257
Ni 0.7979000861571358 0.23912923280445694 5.122664120573808 -0.5854556164437659 -0.6918041565040344 0.29876450133426613
Ni 6.576315435933565 0.7299449600726361 0.8076045824901583 1.043055671993423 0.49582978845481707 -0.6699160981816914
P 8.9445200139845 5.732693781516771 13.168644018562874 1.3030592505094076 0.07153117527076712 -0.741836024250445
P 3.737095286893471 6.298616561207115 13.16040229220581 0.631015821572068 1.0350675115816237 -0.25532751319655383
P 2.112956675343512 8.82464201185048 1.9799837890030958 0.6269475650399655 0.23508033291174354 -1.3520292526502071
P 6.1876443538893975 7.987915753215867 6.218363433067298 0.5747197180835005 0.12101822625730127 -0.5571984213702855
P 4.67589705485771 1.3934066608649371 13.060533673399608 -0.9470439950827885 -1.7187040446732014 0.7251961017009187
P 3.8666796047261527 6.257326057967905 8.694431832237042 -0.19996472015553304 -0.3152725262916183 -0.8674323567967318
P 4.607243292366784 1.2919315421970843 4.188211546176139 -0.34592624662173327 -0.8510181771047666 2.0527528231310583
P 0.15130572422937377 5.824080517701194 3.9147799935623824 -0.9338660629399336 1.13382127001377 0.7448483287142076
Ni 2.521386068256937 1.9047029871621441 5.103278779661106 1.6138639708376594 -0.8560099738924032 -0.28135196228477355
Ni 1.6869522103309118 6.817026607163512 5.270157364100923 0.8748548745130481 -0.20486215745715042 -0.92452935892004
Ni 6.695047237713289 0.6309923918670507 9.52631130080207 0.7721745273329863 1.5122663151988152 0.7519132059807889
Ni 8.576380473207328 2.217861298246038 10.37653816218119 -0.2393257384516588 0.8354786867082707 2.29021682578363
Ni 3.4160227352680237 4.204681353647959 5.511636307631682 0.34712669468773766 2.1157633625253243 -0.7824694815010912
Ni 1.7924208365823762 6.679582629758529 9.734824248587385 -0.03575427478147391 -0.33138280158991956 -0.27783880692519247
Ni 1.3315755195305226 1.354053782034177 12.069456072451354 -0.8044069050041307 0.21645217628759494 -1.966891347280548
Ni 3.79772564690434 7.175068668629045 1.9750842373298994 1.8509353660375025 1.2715516668194295 0.4262647357714852
Ni 5.5100216206246415 8.096868464671257 8.384864948929936 -0.4681390074077679 -0.8387900104696909 0.27170312634109983
Ni 6.640593624056116 1.0748266401686684 5.363636370773343 1.305781534536577 -1.5686053561101758 -0.7503152653660498
Ni 8.344484128511594 7.471334169729416 5.450404647276219 -0.5226391953381774 0.3945051839717012 0.11100943587104752
Ni 4.8790929065550515 4.6638892416222495 7.565819285601717 0.47545276746036175 0.3282031183103573 0.22598634103027535
Ni 0.5907298302154221 7.816149442979525 7.617371920743142 1.3792286958831341 -1.4568688122651168 -0.9296407120046764
Ni 6.269752325300965 2.1409112284287932 11.949402501532909 3.022983026522323 -0.9244262576832725 1.5678965029686094
Ni 0.3947595891642383 7.876888964928899 2.998075330999854 1.3607038976060695 -0.26648892913001204 1.2773577319782454
Ni 7.232105781497484 6.383744679583966 7.457615243107902 0.2737877767842704 -0.8473011332644956 -0.6279659790021508
Ni 2.1470242969850277 5.858093558373458 2.890244258462594 -0.8106060918363073 -0.9941640884990427 1.1313612385090515
Ni 1.7954773708604936 1.124486225359866 7.260274110045669 -1.4830866083110652 0.38333271229464955 0.9392779779841242
Ni 1.2996456525180469 3.9482417664452 4.309609628303828 -0.95303363700732 -0.3557198356733874 -0.6830971156483397
Ni 0.6846755041749486 7.5081308398335365 11.970133263337674 -0.453836988962799 0.08930444009378813 -0.09552265308935806
Ni 2.125009972720016 5.766224690293974 7.326351650787897 0.363920883426941 -1.0250042138083508 1.3627188711535692
Ni 6.245463793983784 2.3671038618376827 3.3002264799512417 1.2363509505485806 -0.5893652359108172 -0.28916554479192136
Ni 4.221619647772525 6.91128794106188 6.563918278450773 -0.5424922255083625 1.0220438456284462 -0.3864987687274569
Ni 8.25696354431586 7.228248726337003 1.226636328680803 -1.7991507772660433 -0.38075672403735716 -0.5507945747264708
P 0.17888457830963642 5.689183652194642 8.567827635325525 -0.07870481020107091 1.0050704509989012 -0.7620718916813456
P 8.80891359587767 1.7785572703923442 8.396501611574482 -0.5923310034073606 -0.7880071234898687 -1.6446506172012128
P 1.5866141951891444 3.373886227005406 10.862251478507119 -0.26409626052811935 -0.3498690333195652 1.4199737390109803
P 3.851988227169131 6.297024616270596 4.1489086999005265 0.14284123566966364 0.4338608029511883 0.7864495491947617
P 6.993687010976125 4.297923842786954 10.882581979870702 1.5422842017171439 -0.4268933704944196 0.5323404817863413
P 6.176618998100475 7.947835128128413 10.625019844066992 -1.6462835248189454 -0.9226506538400884 0.11229473034137435
P 2.636042490999171 8.507235481993131 6.1721369908420565 -0.5959094647872382 0.9221832272853666 1.5326919300430184
P 6.953160641306445 4.005679139754821 2.1330033556669856 -0.28323503824009927 1.2927835796150122 -0.7316986787061269
Ni 2.3349829614328246 1.8393968574520125 0.8521162725980624 0.9554116503211934 0.145919103264039 0.3951117072074486
Ni 1.213489592553615 3.658635143593585 8.73965944272497 -0.5352134324587622 -0.1499901880096191 -0.9911003619720544
Ni 0.28239465744777165 -0.05184191427846052 9.588449005247115 1.2650501182554859 1.0993880280365647 0.6355692452707054
Ni 2.833925795022641 1.9171019640105782 9.53832093340317 -1.2215467956562125 -1.0271791099724825 1.3793017152129148
Ni 5.2012934648783755 2.968604336652185 1.0663720480315189 0.17247911314075456 0.8453280686985248 -0.02887683093535027
Ni 4.079836483312 6.797723137704688 10.688727661060858 0.4116762964343491 1.3925701501870469 1.3476218676111307
Ni 7.219397512489955 6.7464807044051796 12.19507508286787 -0.12039473374068942 -2.986419882686308 0.28237551845328146
Ni 7.8051331840188105 3.997282767318207 8.779069631573444 0.059151056438859415 0.18870585941226212 -0.5737218729466055
Ni 3.0583991279000893 -0.1178002865711545 12.973991907919128 -1.0074242959430584 -0.9217836778541028 -0.14569438884774263
Ni 9.21708827760125 5.199501389721265 10.897880115869244 -1.5400254875899542 -0.9507137306248917 -0.5686619419251949
Ni 8.66682113925805 2.923338519485781 6.422442586783701 0.15852265096066245 -1.4177826448969324 -0.19055859635028471
Ni 3.4741241770368783 2.726692384098692 11.93224133511723 -0.18649265381102723 0.8771374998996379 0.3645315204277464
Ni 0.9320974055744405 3.603153588348831 13.177138636744143 -0.636764036909755 0.37600481117466855 -0.09025600537378003
Ni 3.0759832968274727 8.547589011926847 8.475054542522097 0.12368985955219343 -0.3348103392142298 0.5009637672472728
Ni 5.515516104862685 8.419105410307417 3.9181085230039394 -1.1933073411945447 -0.36915539235300293 1.365553512388887
Ni 3.0039637078993335 8.647262958609382 4.011972325509587 0.35813281599025415 -0.17151803477906588 -0.21830002812961113
Ni 5.435864277067461 3.070879976202402 5.651953973067789 -1.3342058513155408 -0.33800364934054694 -1.3599302526648385
Ni 6.112222551211212 5.565821564856699 9.462497050918163 -1.3288664413804985 1.5136696233042448 0.34707912927925383
Ni 7.545127640158249 9.134761982312675 2.884678818964522 0.9693125766730015 1.4168873867761729 0.678478900150038
Ni 4.424351561231223 0.7611561776566257 2.067710871199167 -0.5107588989608235 -1.0586702386022284 -0.8225581219918607
Ni 5.717392916469766 5.968974797409088 0.9316971451332584 0.38704564236986244 -0.32214971302742584 -0.28411512685220747
Ni 7.664623575507501 8.825087756432707 11.788235815525322 1.5673426873476686 3.4918465708009414 0.39948721056732495
Ni 0.12622122044393186 5.203158314661155 6.116124180829916 -0.7345430901334575 0.04964491672063708 0.535081277756272
Ni 7.112382425443014 6.787189010639033 3.5502655388263715 0.6736028030046592 -1.723175964401626 -0.9790357174980365
P 8.48225559173209 1.6305973595781238 4.303339184619583 -0.3496276067327205 0.896520789522256 -0.9170209663581369
P 2.022370460041452 3.4614886826550184 2.287739493813853 -2.2667956186462126 0.11506509399765989 -0.4779048285452801
P 4.7925729734622715 1.5656096188552964 8.834749497673148 0.9665185588676323 -0.7819136089976211 -0.39992121278095
P 8.42156155392376 2.0246719575782484 12.931546107497416 -0.4430303852655983 -1.5061110942306966 0.30039355229725684
P 6.0487175934863995 7.918479663498994 1.858545680831289 0.06232431196051848 -0.20719389091412055 -0.8659866254891407
P 1.7155799287036355 3.3563111549062317 6.443318897839807 -0.4678307321387297 0.7782780691275628 0.7376147870802457
P 6.876356120740539 4.323758834899612 6.491888683011604 1.9920783880691368 -0.652757584124534 2.4808173311154436
P 2.185194588148659 8.534143899834415 10.777560007884283 0.724790381622068 1.4189869496176786 0.10701008490366731
