# total energy = -340873.3294518195 ev
CRYSTAL
PRIMVEC
9.19302256988672 0.00000000000000 0.00000000000000

0.00000000000000 9.19302256988672 0.00000000000000

0.00000000000000 0.00000000000000 13.45491777598917

PRIMCOORD
 96 1
Ni 6.087582774289626 8.5659389221726 6.500675840019548 -1.8130511893972194 -0.7564925978213553 3.210850449193689
Ni 6.76281947513703 5.991929374440512 4.806742841359556 0.15177530493449992 -0.3325894203035111 -0.2091016494597947
Ni 7.520021165225634 3.844099160067872 1.9110151950422114 1.0818487336012206 0.3798424397532039 -0.20299296545889556
Ni 2.9222872078266264 4.096401664523318 11.397472611180346 0.9865808768351461 -0.7900624633570006 -0.8370457740850745
Ni 8.76710983508929 7.826746363300182 4.005380628747628 0.866774668608075 -0.28413415301560097 -2.021350140450061
Ni 8.053593388257099 7.434976513423217 6.3154695300993 0.7135369201954357 -0.06220475566351867 0.8573058098856913
Ni 4.678981890879687 4.283479673838979 7.418907109969469 2.0276262032667596 0.5225116686213775 -0.439480720241127
Ni 2.544656226663543 6.1787407861016215 3.221847364109497 -1.6231636509720302 1.7534936415485607 -0.9261234428800372
Ni 1.4872655775482249 2.525930039686835 3.146095938823896 -1.9577577604103962 -1.2458861437325253 0.9481423703532896
Ni 7.175448293227126 3.1852995835770477 12.967567322091426 -0.34854697207403196 -0.9175778673028714 1.0742387824644468
Ni 4.519942600404947 5.542556045134951 9.824551965131004 -0.08852873827002818 0.277180090295271 -0.1249340163719397
Ni 0.5088678134769701 9.001697385050816 5.797253331970089 0.6805342400171699 1.1175243326259592 -0.15612406882149887
Ni 2.261593868686219 9.094510140925554 3.676260308388368 -1.3800861587874231 -1.8224529423270937 -0.16758450405261463
Ni 4.121075737103329 8.031879468944885 1.3348627300673417 0.14819864332683508 0.1414988627091563 0.1802821541249411
Ni 1.3536909595945852 4.708408756128799 13.219631727262291 0.4646165960768063 0.3394938607328282 0.903996529074011
Ni 3.4234264472283296 2.2418196771364407 7.860901200057453 -1.146673957606722 -0.5114045029646226 -0.7036996223900397
Ni 6.495936836884304 3.5850489770454623 5.655841662274848 0.13820656511112972 0.35121886247924033 -1.029471248440769
Ni 7.562879036450676 4.02975225088506 10.907148043530926 1.0765723156936298 0.6088104891196224 -1.526464461076068
Ni 0.12283349038192357 3.355554361588156 6.407595567188 0.35332768129212694 -0.437057198401299 -0.7890378787472282
Ni 2.017657014770195 6.863078579294111 5.5184271187933875 -0.6468345337718795 0.3886271279243694 -0.12529885591052617
Ni 0.2621013472136559 2.828490798536813 0.3918636187071871 -1.1016086898369672 -0.39487156617218444 1.411761635513833
Ni 5.8193119896287095 0.5923873428348924 9.90277907139492 -0.05229880940371638 1.1786307130189764 -2.011966899462948
Ni 5.651658837005137 0.27128885397090763 2.594794052462397 -0.4437238117881971 -0.14093039180019598 1.7062791886462871
Ni 1.601553234148338 9.043093565687101 10.543999750125872 -0.29999400286599304 -1.1673718522757057 0.4858508228652343
P 4.805128546596125 2.942760069091785 9.636708177035194 -1.0277090143340237 0.05275569443547688 -0.12801574062105694
P 1.4452074992868416 6.540008187088691 9.304156101350257 0.7147044581409755 -1.3351142220624233 -0.0587111406879634
P 0.7820035456823502 0.12665962637588812 12.757872638647099 -0.22085853288540674 -0.6172629907623499 -0.6509549836981563
P 5.462613520859325 1.066179178692997 5.220037234283779 0.11807302758604826 -0.020314286077319853 -0.532677810521102
P 0.9011221356434158 7.64175517010809 2.1623266916645263 0.7097329730683132 0.11279018192055415 -0.17420355203102902
P 7.817976219767644 1.7537529158304066 1.5133691651379948 -1.3342462176351733 -0.3515541343314719 -1.011259867639065
P 3.836027686250714 4.620164932471746 13.275308349160047 -0.12859963814898498 -0.8013370078295554 1.2960974744795937
P 2.1346106479158387 0.05711441062783011 7.2078803575546315 -0.025261345669950044 1.0196054113902826 0.22096034857059363
Ni 2.1366698849716967 1.779383062757781 5.434818417116529 -0.1077896433821692 -0.09306827801159456 0.8752541668339958
Ni 0.4022590886302411 3.6143839120688663 8.765959787965684 -1.0295866909727107 0.908621429440532 0.41540079647378786
Ni 3.582741528380193 8.744586929790843 5.763709831213775 1.3644463953676371 0.02848628036515094 -0.5425217931947173
Ni 1.251685181149053 1.4322085653717382 8.860884181124932 0.016294880505281613 -0.1894252540767899 -0.35474230225146647
Ni 8.424522655966074 5.957777295590012 1.9223042267591468 1.2072874575237207 -0.7814050447923188 -0.2164696597890917
Ni 6.782924615499356 8.623211452788649 4.48721544005292 -0.24802378044628898 0.735094077540921 -2.044390824319608
Ni 2.625269841586837 6.552538276852683 11.187709899368992 -0.6887437724111558 -0.8099568882880824 0.5217709338006111
Ni 4.320279343189869 5.507512243095084 2.0507987804401653 0.9828064973943785 -0.0443165625291882 -2.2838119506985506
Ni 1.5670426274175766 4.5331162017488955 4.589203751755568 -0.23324302259268861 0.24091288043312056 0.8823655810677964
Ni 2.2872424016587347 6.713894209015263 0.4553120218862944 0.03191021844503537 0.6338221806726116 0.5466864660953681
Ni 5.772188555930819 0.9098913598736965 0.4949495773047876 1.3380974730604633 0.2269322498833124 -1.2716586247109392
Ni 5.502014815597748 4.616579653669136 11.733011499898534 -1.1560307162312735 -2.138318879228337 -1.2412442740851397
Ni 8.42574532796799 4.001961743653549 3.9907416596058947 0.9487128981447789 0.5139478382117664 0.9668072937526447
Ni 6.870773139185865 6.477881740555263 11.529694016211566 0.9037180786016435 0.9006232417264037 0.48159590424362214
Ni 5.434510450860407 8.86274484889326 11.851845106159905 -0.9942029121567781 -0.884156097309316 0.8318022662979481
Ni 4.302077158499696 2.8245010267410886 5.500451082458457 -0.4905528563265939 0.0946911583269982 -0.4095345675009979
Ni 0.7077616147028735 4.830069216830689 11.021865014285094 -0.7438646246446996 1.5742684679332242 -1.1472010337547855
Ni 6.143053472481798 5.042814145164009 0.4413496592057722 1.0417973741062898 1.2351199063549567 1.2303746783604876
Ni 3.1151935934521715 8.746664552891843 12.634234758790228 -0.9914896269906731 0.3074769415065995 0.005513216508745343
Ni 0.5297819398255268 8.185605192373703 8.18621377046789 -0.24342844776612269 0.050769774353699657 0.04174623069885068
Ni 7.681763204336187 8.67126338176619 12.505068195159286 0.8427999029600325 0.6739185344728652 0.934242986663378
Ni 2.8697123117442542 4.289574647803416 8.71090185648694 -2.735859966081727 1.146031953147349 1.119387353976627
Ni 7.409401524631267 5.4627238371301745 7.3857947619717255 -0.05321772167355996 -1.2356598380188268 0.6008626950274555
Ni 9.028513431889822 0.5583933839726096 2.784737526913375 -0.6639675939077403 1.1948898551903162 2.539008594744195
P 7.562502122525274 8.951595412039987 8.20365201498243 -0.8537155214312716 0.30854446353916537 -0.2090926505987302
P 3.756296601494216 8.136128344897688 10.528540763370824 1.5738894873272506 1.1115933118535049 -0.6422273740171713
P 5.643909118977956 4.428573149073824 3.6256563963451742 0.7863765298649812 -0.5640560677220673 -0.7809633292692099
P -0.16733139683359574 6.06286273659676 4.894307300648627 1.2426781783181888 -2.81740378839349 1.6469255292783187
P 6.6342550544844725 5.637648670607247 9.49697883047041 -0.7623210315776742 -0.8366827343187009 0.2669972362249982
P 0.046995650684156946 1.8488823133929846 4.768288427945924 -0.5840818760246907 -0.3010710379802557 -0.6207455499943115
P 7.431850885749147 3.2061769378353215 7.479656441721791 0.8397030092022636 -0.1728436955690249 2.361172073946269
P 2.5816489494884185 3.954084482104853 6.468814662393688 -0.43184840050684975 -0.013566940051157281 0.7206413924507008
Ni 6.162322047790182 6.904943604081507 2.6431107404899774 -0.33317743159649715 0.5424860548607754 -0.3755546110111274
Ni 7.686856138840406 2.0091442758696396 9.386365624991843 0.3724584885843069 0.512143438013176 -0.9480004454587867
Ni 8.208311958123566 8.968473801479966 10.26256363784132 0.1827702106541175 -0.6526513975639727 -0.7613560965612436
Ni 1.3940759077480842 0.808659633928625 1.3242549013229024 1.7906864485487743 -0.8723038259564203 -1.3872657072549979
Ni 6.996781899563741 2.074745684934827 3.541307656351366 -0.2032999551763531 -0.5542683922076842 1.1000153772079186
Ni 4.7456037254502315 6.491092113989494 12.80382120406044 -2.2220247421884247 2.1296108099313775 -0.544160871460037
Ni 8.776247699524658 1.666713378130127 11.681775107902471 2.5341900903096293 0.13746300207688583 0.22941824952995973
Ni 5.507843191907632 7.617632678882327 8.94910778013233 0.42668485402803935 -0.3709651918682321 -0.35980943236172874
Ni 8.041495370553934 8.169894316800216 1.4807137103620198 -1.2332499430257535 0.7574536761830438 -0.5741219365985015
Ni 5.667875328820017 1.6079883499478937 7.500941966182207 0.2783807954715915 0.8100715594890759 0.5256206465640044
Ni 8.495456018122322 6.582240932778919 9.621570946070126 0.3045471694543142 -0.13839914073791001 -0.41326858062213334
Ni 0.8502194503666715 5.524500948805911 7.241651845270701 0.6381989695840686 0.6359302281545499 0.17123958430669864
Ni 3.7272466501705064 0.12759455677133788 8.65884544687756 0.21240140325698903 -1.846351860431878 -1.193877354765402
Ni 5.444098773401746 3.0922661951606103 1.777905744030654 -1.9128310751010347 -0.6198088971126551 0.06991189449978928
Ni 2.891619284530457 3.049867975064108 1.2826371688426599 0.3111567043510318 1.1064243660580557 -1.356770366879618
Ni 3.5010707158612573 6.599817991934278 7.626718143089042 -0.06706362641771677 0.2774811664754576 -0.14890158293113065
Ni 3.506880706125999 3.8684055117450513 3.3751125171075205 -0.2851929332974185 0.3835846804044555 0.7807085329459265
Ni 4.500012127471466 2.348633406386498 12.452984206482194 0.9549596503854392 0.355043121321337 0.6860659684686765
Ni 7.731800826189019 1.315337669429232 6.352308729447243 0.518847589506229 -0.5462694331626077 -0.4525768913034528
Ni 4.184351311458106 5.5278104369313965 4.90473494615068 0.09154541360916492 0.8096848655736185 1.38967303114491
Ni 2.1164820074062325 2.0407315014228886 12.681730509902238 -0.6099687710937818 -0.7801482895670823 -1.3175001085250857
Ni 0.3416669575638796 7.32376851938432 11.722718072526018 -0.40816005575097447 -0.6709926190753218 0.9295679497852121
Ni 3.5374566991964604 1.6918195227709663 3.287628037114815 2.6440103909685817 -1.9022250174504143 -0.5660859536679025
Ni 3.403891274265392 1.3637665123321758 10.504899986527768 0.19537375835074094 1.7796260769695547 0.526687397265622
P 6.769383293252576 1.6015348481031966 11.56843065541812 -2.44685151569296 -0.6824011180225796 0.33240044422115655
P 4.082088128380591 7.806402204351014 3.598168339556242 0.3539982249965904 -0.2916420313568719 0.15792872613040543
P 1.0287451907847232 4.262666670738701 2.1577789033987544 -0.9293226665436253 1.875843185022776 -0.6872152515817713
P 1.146590547119734 2.8037799538665182 10.694318539389954 1.0730614743268938 -0.7742026135066086 -0.6046951813996682
P 8.482429505139507 5.509019898796694 12.869924552157993 -0.32687411508628866 -0.34687498368824776 0.014189661236820722
P 6.118002485976384 7.765447288798126 0.28889992730977804 0.8695206067843282 0.10092916881691004 0.9571913679294355
P 5.517091372613851 6.2042606167581456 6.6330590422480125 -0.7743062289640084 1.3012857035487524 0.16336506665462833
P 3.543836656860592 0.9975900372923018 0.9084958590474498 1.2978152285016487 0.2752641042194808 -0.03604043856332503
