# total energy = -381165.73895928514 ev
CRYSTAL
PRIMVEC
9.27010404396283 0.00000000000000 0.00000000000000
0.00000000000000 9.27010404396283 0.00000000000000
0.00000000000000 0.00000000000000 13.56773430481378
PRIMCOORD
 96 1
Ni 3.1388572518134668 3.9153582525249355 12.970916927507057 0.46080390719893544 0.4347434626664577 -0.8947259024053622
Ni 8.597372655195993 7.7824192626341935 10.139371043039773 -0.2521843395818818 -0.012074414666030818 0.3936834594013543
Ni 4.999561818976051 1.7760685166337682 6.1666438242166315 0.4523046114786726 0.371704898247734 -0.9255449446687479
Ni 5.286351029842422 6.526700229930707 8.178711578305782 -2.096458491549125 -0.6393742208390923 -0.9006620653841392
Ni 2.5465161393610836 2.32677759152592 5.54965072390321 -0.9075076275510627 -0.3371842387630451 -0.6510735115538916
Ni 7.615325636042529 0.6778689469966281 8.978366518054033 1.167766516610963 -2.1407984511170803 0.5078247560331641
Ni 8.711144642944094 0.24381949728299546 0.014628224286360457 0.2385922027197439 -0.6284413759766725 1.0543739252197195
Ni 7.221893147489028 2.024581467627907 0.8032480321014785 2.5159990212228993 -4.516265344419467 1.5930292934804953
Ni 1.4950453105241248 2.5850334219401887 3.3785691659651023 0.8955918499500833 0.10444669505186528 0.7108850843948854
Ni 8.345364874952198 4.756397718053668 7.3899378867624295 0.7022274087198874 -1.0167620284042167 1.4290641313480228
Ni 2.5523563049506954 7.183969151572994 1.4368772612515934 -4.288036744322234 -5.691945973671185 -1.0502601601616623
Ni 5.817045949960016 4.47644057391673 6.582467322238621 0.048548598332664776 -0.9756673152464358 0.7756876826925674
Ni 4.382469528548647 3.199437382175549 9.197608188308875 0.05738933655274632 0.48767270656532136 1.2380887591752936
Ni 9.019820569615343 5.485732429050939 1.4608655096583203 -1.123702179301897 1.1330082871941711 -0.4138691903206098
Ni 4.206291199928697 0.8570322491401571 13.094518933653926 -0.976457929468531 0.297350651705875 -1.0356681212801002
Ni 5.672042981463659 8.34711692462908 9.63762295001761 1.7994783358087911 0.023661862393314085 -2.4021698565148695
Ni 1.5334420817497936 0.17227376076860929 5.254403470046424 -1.1925617212777717 0.49964813375964273 0.4924169061185262
Ni 1.5478756338498336 5.219189125561888 6.593227132079672 0.14188221419050404 -0.20314080389066952 -0.2961921126213996
Ni 2.914316790049067 2.2081017187033685 0.749184784929074 -0.51025573407216 -0.5708041850791783 2.1386130134299877
Ni 7.705681340807519 6.977218019596634 0.07812194837037102 -2.0883224927055517 0.9934747757415018 -0.33640750849802065
Ni 2.9869758660671235 8.17423875307247 4.17697634970008 1.3496550959910758 -1.5453903514462932 -0.33107992563752014
Ni 0.40088194421669415 7.6917947248499985 12.484092775092378 0.4489614060380526 -0.42460560290150745 0.031241217402468775
Ni 8.357888785605477 8.686096821637538 4.118567277720675 0.35188837774243914 0.8965557565252494 0.8403941217320172
Ni 7.484561547459892 6.686285072192872 8.298745521380521 0.3445167678687163 0.8466748125344064 0.1366919282388162
P 9.213797498127441 2.7869640997790923 9.987385832127393 -0.28373768890813067 -0.28165535245780526 1.188718950492914
Ni 4.7888338123362875 8.30903533694317 11.610792420248714 -1.7067998370364474 -2.1382774844674404 2.62756612936963
P 1.4074335565758405 5.518947212078841 13.581302297610518 -0.26234533927528364 0.6753884341501722 -2.3240270894648556
Ni 1.0116371914741638 4.161247764055804 11.679146459917856 1.3603573128999282 -1.0036247196913102 -0.8975152922250413
P 8.595880168434205 0.8321169903223807 2.4425723159909296 -1.154290079391083 -0.7531655903306513 0.692789146125123
P 2.406750779687157 5.439808333287549 8.864004024674093 0.29657469277179893 0.18368372360732235 -0.6399462912924786
P 4.241193141904709 2.430630567875791 11.227177898958638 -0.5026159581387151 0.7554327890982732 1.346674416096197
Ni 3.9889814193704836 6.128771740883617 5.709520158361567 -0.3749997669489219 -0.6487831728578182 1.9342388513528495
Ni 5.924134192644449 0.9010847108836384 11.093698596882039 1.1986616635279228 2.0193359382335094 -0.0246692206119059
Ni 8.915068393166754 1.7291339795223342 4.684884426903668 -0.10205736888408229 0.5745641663422428 0.50159420174242
Ni 7.90607318136408 4.616984622335939 5.280019548734955 0.4978666163791878 -1.2405580466513924 -2.3706594446114138
Ni 5.532935799181577 5.332859142164772 0.039973615934863704 1.3539334116514552 -1.6077660854700373 -2.732300787975559
Ni 5.883623837681588 4.514512891498532 3.8903984972074284 0.4852018764273257 0.8956846667742059 -1.2888482491163482
Ni 6.48532775528557 6.2483746241172184 11.04343053033247 0.0029475126640981495 0.6419862045406428 0.42655861286282015
Ni 8.587676126296417 3.604726333886372 2.7076175706557253 -0.5063628267756569 -0.32205483932077433 2.031457404087392
Ni 0.30127838359107406 1.1830599566854296 7.563048737932217 0.44600849405731574 0.2257271738316177 -0.3939382557246377
Ni 0.5314902950502745 2.107558169520944 1.3432195454024445 1.0627971162864083 -0.7637796184010718 -0.9390990292040988
Ni 1.9692389460882544 2.1206753668372937 10.274872154822873 2.075748255584967 1.136014935230979 0.13796282453143982
Ni 5.413712990216506 2.8529394307334823 0.34346848141875697 -3.7787670283124277 1.889773679060939 -1.1829550514259433
Ni 2.3703841612616863 7.6263756001422385 6.6791109386217595 0.10806475142042679 0.38938457491568423 0.13149367186732838
Ni 4.105228524916085 3.7849464278984972 5.007945701133582 0.27167253021348053 0.22826819508591653 -0.15985242551567955
Ni 6.149722176173335 9.179062418025419 13.487969962415647 2.9229421738476367 0.8903038620782667 -0.13330552826508657
Ni 7.213253410458047 2.5521245523479332 6.839915726584866 0.6801938259586157 -0.47825321302363444 -0.3003400733515021
Ni 5.790894986264311 0.28982887800420215 4.304295667595257 -0.5162736581314656 0.2812254640092382 -0.25500149731570276
Ni 8.620251272140694 5.4816350430341005 12.120789978918808 -0.8341139451502602 1.471923392605394 1.781504782049506
Ni 0.6095000751609085 0.4780481448532732 10.724385065203222 -0.6932151779189482 -1.4315987248444182 0.5694309588807355
Ni 6.819014422846934 9.131006198316614 6.440224063735959 -0.28660241205043546 1.051669381804363 -0.6553898795410584
Ni 3.503061102106578 7.2600118155913815 9.84686495896846 -0.6385740935353003 -0.6747245753139283 -0.3269129387440241
Ni 8.821690634461742 6.728695798498384 5.942572429720223 1.026288479837413 1.12220039794539 0.1984256578031873
Ni 8.425959160088839 5.01661881053936 9.976192181413971 0.6710545826615089 -0.9689397667146151 -1.396419605840124
Ni 4.610384308209267 4.874267091818606 11.045628472017068 -0.5675787361633451 -0.5248549720425735 0.001784345593932411
Ni 8.195393130652617 1.6670613623984623 11.919091980693075 -1.088443613209919 0.9336719446512566 -1.2436870791986774
P 3.1833166711273986 0.9149935750910245 3.382721245596193 0.3727263975337129 1.994173580035269 1.1796198164051235
Ni 1.9789632853001633 0.0008964190674848265 0.13337176886891877 -0.6353964671382669 -0.207488539336404 -1.4120323726767166
P 0.7076639886181688 4.818220042366555 4.2802536525846895 -0.04419263535681421 -0.15923124699191285 -0.5702280008607341
Ni 6.679480815775769 3.7731363152617274 11.594511336399453 0.06084695608404359 -0.27717417675800005 0.5067652044203982
P 7.125002019326138 8.225697100989825 11.691941057611162 0.4397774255459394 0.8026282158371532 0.6035014182018832
P 2.4088087427996867 8.137195417046932 11.711844898146804 0.43366771310377566 0.37160822476886973 -0.542217374580421
P 5.249075941214123 6.623378145699056 4.153273620499957 -0.3790191725209601 1.0027482306236277 -1.089245026065292
Ni 6.50087371987887 6.532410614062773 5.979842883296467 -0.7253832780110604 1.2220700151495338 0.8258887290269905
Ni 4.6399466702176335 8.47717648529932 5.941948551713587 -0.5903710514675123 -0.32651184665086347 0.3032014540596972
Ni 1.7417876716331593 4.389338675694524 1.6663216080904448 0.9010978673699772 -1.24677908786044 1.542608417825782
Ni 3.176336282732196 5.709800115505703 3.5773637675834253 -1.4529257684569687 0.33945606551635726 1.050491302335862
Ni 0.5938150590059517 6.968161127880681 8.194721975115018 0.37934004619548867 -0.6196893408156554 0.12907349246160996
Ni 4.944413969622718 7.495611511559602 0.4656688478241187 -1.007715601931232 -0.24207630461360244 0.6294284224802902
Ni 3.491195368845145 8.794649740771428 1.8106682532157783 4.984374527030564 3.6296487013848004 -0.12121311587692674
Ni 1.1133580438786208 2.0600118055382173 12.60245809942723 0.8831919336238337 -0.6674416684992699 0.23058733013739643
Ni 5.047043292230004 1.0574593160923385 1.9372283495843055 0.3698884138642856 1.9287045517981816 0.4416877551947748
Ni 5.57063731259896 1.4825770204955095 8.411425490864405 -1.0390902595877716 -1.8090009305872456 -1.0677979119351095
Ni 6.083542902928514 6.166658656383209 2.040084789742298 1.2579117074384918 0.22327999784270577 0.48006789763487
Ni 7.378455935811171 6.646636836912286 3.868472846965287 1.5522287145243656 -0.33148358883384205 -0.5775651579520956
Ni 3.6737422589890043 3.819431215189537 7.215999215295576 -1.5809877889349289 0.8486147098695965 -0.0008116972680179569
Ni 1.3416899782242129 3.4078942133082406 8.419010290047613 0.7221565435436466 0.8337722455401253 0.25712651407850556
Ni 3.679016948227876 3.5007435760789543 2.7850220129679437 0.5460994832436467 -2.3447810341827555 0.0553108567571628
Ni 1.8991662291170257 8.99166726343177 8.848184592009535 -0.5335093052834619 -0.47486604171895636 -0.3313864011343454
Ni 8.648803192801017 3.537100924400314 -0.04526313734031192 1.1846339817902631 1.23007565906283 -1.929093045485852
Ni 7.165512374289 2.745916078777822 9.41937225389218 -0.14627288705903194 2.750748967378417 0.5363205494800118
Ni 1.3663669953663495 6.258506847909988 10.616738762251336 0.04094893160853593 0.5535677665962337 -0.16844350961880022
Ni 4.009885504139648 5.333925204137479 1.6478147722442533 0.027598478443558918 0.04747362010093114 -2.1653411734534513
Ni 8.893663722775623 7.803193565945812 1.8873125469909364 -0.005724818298919173 0.2770991005456905 0.014804669113000308
Ni 6.626604141929508 2.4357476653447843 4.247596002813828 0.38970544859021267 -0.481395615307358 0.630405955902211
Ni 1.4760879476181634 9.185523680590434 2.4748359863370952 -2.687572848940565 0.7212957382052481 1.1934999168213252
Ni 3.770244042779253 0.5735608085349321 10.043949226378398 -0.08006209555991373 0.2778555190957408 -0.2072003186720238
Ni 0.8560236618129353 6.914079340500056 3.7802965436766733 0.31384067894109824 -0.1517691342869128 0.03457182443759853
P 6.359096747612965 4.903097115602244 9.273682370681236 -1.0025402283778797 -0.7696646164269391 -0.3470577891230152
Ni 3.1030746499469575 1.3581166027080092 7.497434941038136 -0.22946298672496612 -0.6590012510414005 1.6352275241150998
P 4.060602243728164 8.582994723720617 7.9604339988784325 -0.5391778164231488 0.15445953663488235 1.2902785538049715
Ni 3.4173682597091664 6.260166196545767 12.739912422146409 -0.9078665535523783 0.7148636094266592 -0.6344855252882234
P 0.6924526747832582 3.1135127871753747 6.452502316630309 -1.3261500708906 -0.41380799806537116 -1.1878943977090897
P 7.0852332726921174 4.014817199526432 1.221322311401496 -1.8470054348554772 3.281287105848697 0.967406103678908
P 8.425263902280552 8.57836894176948 7.50529042726137 2.2715650150103976 -1.2403186769470766 0.8192640246216212
Ni 6.614117311692672 8.695737729912452 2.4083952961563586 0.9251731631516261 -0.6976410749007856 -1.4147975941266795
