# total energy = -340875.7622438245 ev
CRYSTAL
PRIMVEC
9.20909601426532 0.00000000000000 0.00000000000000

0.00000000000000 9.20909601426532 0.00000000000000

0.00000000000000 0.00000000000000 13.47844288656781

PRIMCOORD
 96 1
Ni 5.491162806835758 0.5973737844911763 4.375601489903024 0.9035216463201214 -1.3176091232991243 0.061635770533926104
Ni 4.752574905538639 6.845249834976277 12.154158189576417 0.0828406867463154 -0.6423294468126743 0.5153688869290092
Ni 2.183264804815557 3.044886225991602 5.788774997601565 -1.1341624554032725 0.16675455195215153 0.2357033112077231
Ni 1.3400155297591572 5.709206568076274 2.997066154234469 -0.5248084350753542 0.08351637265710134 3.2204401497646535
Ni 2.2748768898271994 1.730674582662141 1.8080383546530745 0.27898526182480987 -0.5786879587026291 -0.7765456598174884
Ni 2.554032210792008 6.003823960888143 7.092289355250536 2.021344741133422 0.34095938953476124 -0.2003015346696615
Ni 3.3718275450590856 1.7878262311927255 7.537926710075464 -1.223083801126029 0.021473339382427535 0.37080938301665817
Ni 2.7139849957304096 8.30203669947082 8.090758860914065 1.0144223245274464 -1.2223109275157464 -0.2910751031098084
Ni 6.248721445479479 4.996072607568477 4.065704365340923 0.9016020606999052 0.4815467961732416 -0.032964113630846455
Ni 1.2150204724749771 0.41659831304093065 9.273114670588852 1.0846201256987706 -0.07619618484660426 0.3579332983849384
Ni 7.485060974729883 5.649255354422697 10.203086921697034 -0.792330690565887 0.7688074106329663 -1.5060092785455095
Ni 3.5166313674076046 6.64959338562391 0.6836630121308114 -0.08398894141814567 -0.5495306204123827 0.348492978907645
Ni 8.162196579758136 8.901125217599832 13.179679414150455 -1.7925823800199063 0.39338469721401287 1.143029161765283
Ni 5.525595616029418 8.45538656272111 0.5494487290419313 0.47081938245340843 -0.32904489748536236 0.4665179268645772
Ni 7.310207872788181 2.3751178976028053 3.8885038648799743 0.06815968769537295 2.7381405345857877 -0.7721243908213412
Ni 4.799099257516806 3.2338844990810602 0.5474116770511216 -0.09257334065304701 0.06239913106251189 0.47525659228915573
Ni 0.9159790300411151 5.1973097689752334 5.77787142817517 0.3678194471503988 -0.39824408218884316 -1.6713399535669409
Ni 6.936346210623158 1.5337380689936677 1.699685975297427 0.06351601827577448 0.4189707732132333 -1.08680582049618
Ni 1.5026849979583583 4.2525670491145195 8.204098886554625 -0.8517810234127202 -2.5595892471090242 -1.7287321183331648
Ni 8.93555802679349 7.202323315499139 11.32243133518413 1.2706340401011664 -0.9440818271306709 0.29197318944404554
Ni 9.314724128138923 2.9195780594502443 2.4215501586229804 -0.753476950923483 0.6303949001586175 -0.5146782886198878
Ni 0.9102620233688967 1.5316107678640245 4.141224476352833 -0.7500303871357793 -0.8171510920436764 0.32711965543819144
Ni 6.028172810181546 1.4248128838793022 12.901308708147747 1.6845734215380794 0.994164859829991 -0.8726447542356068
Ni 5.156789747458222 7.15566082708398 4.51421311623608 -0.13109155133290326 -0.20524782293134328 -0.7559318402218788
P 2.7310126138633537 2.7027314806636396 3.6322248587902584 0.703068416563944 1.3830542402768116 0.6113011167519602
P 9.126232355318427 0.6675618290352789 1.809076219749658 0.7364930147709768 -0.15093943929676584 -0.14355703078976567
P 6.309059441156628 0.22702907601191377 8.56533487837878 0.6754375422205529 -0.5930244299299593 -0.07693743388800299
P 6.473358919312308 3.804922111405339 2.2618985111172165 0.6849423963871946 0.7105127886571312 -2.0503041044802495
P 3.1843579818723136 6.661961201282398 3.1101639806555066 0.9262879934823597 0.8341784798396086 -0.6924294487928591
P 6.986314764430272 1.5856497420144386 5.73732838391866 -0.379848610400791 -0.6435890302513884 1.9807812178887627
P 5.855235200166103 3.875113839587762 9.844088740152115 0.48973524552130493 -0.31866946778830924 0.7693504276206298
P 3.9351110987203364 4.6698403888775415 12.735618656526368 -0.5606331580834474 0.8193082475959954 0.8010873537125945
Ni 5.006865667845282 7.078580695243666 6.922676228818646 -0.1590049899137197 1.1501359480133935 -0.8849443975385662
Ni 8.141844478041637 8.993833185011592 10.012461401379834 -1.1368975949462485 0.23937073275698129 0.6643524880509849
Ni 2.931743275001147 7.92368099855573 10.683027237464852 0.12719015939596803 0.2788551640048488 -0.5607820249564858
Ni 7.820557543794936 8.655960669230314 6.052238940233912 -1.5733202450873418 -0.7396279608555326 -3.1796663102814016
Ni 1.0891321328982628 6.671345269901905 1.0613197426747345 -0.4934872563645695 0.30624821130582097 -2.372701414742107
Ni 0.14416286928088617 1.9632871334571829 0.06879747107840532 0.35131502173747237 0.273077123870491 1.1773546745200305
Ni 7.541033858998155 3.189395357274542 8.229034355250445 1.4285383407515397 0.6933645590126187 0.15644622804760797
Ni 4.40426848421673 2.8827969308277575 11.36810937125834 -0.6005531342068366 -1.229733959452695 -0.02235291377390344
Ni 2.0383596824132457 6.011799037850355 9.426674501223365 -0.2724844845918146 1.0431968255569777 1.0476949705376473
Ni 5.587434694321857 2.228334119657432 7.807320389492992 0.027001211179192207 -1.1160328356820972 -0.5947869211470207
Ni 8.4501097508281 4.172199270073849 11.673086075934865 1.6955666873247894 -0.8641678271128471 0.7437298988390482
Ni 3.162458752061529 0.5882494123732093 4.193911555239906 -0.37185427934140475 0.4084223082734256 0.6680870153927526
Ni 3.5666643848853137 8.744036461455018 2.171741463241867 1.8904516789645698 -0.263073732800876 -0.7624683557888158
Ni 4.208602825768563 0.545644451567232 9.545999518223903 -0.25469090805381944 0.8470715337521927 0.1936896857800987
Ni 7.8302823489590185 0.25451730606330614 3.4203161971712492 0.5165428526324523 -1.9556756810703864 1.792749758835706
Ni 0.6993737295644525 0.10165092034248198 11.963600816568135 2.1709145537761714 0.8194781975149563 -2.3300051614251616
Ni 1.7954974079935597 0.5383711077049284 6.345596528740433 -1.7800719062577213 0.018995824376212445 0.22705232040094447
Ni 7.4579217694092845 7.199560586759342 7.963130923140859 -0.6941664860886239 0.8736559691089405 1.0494003832645282
Ni 8.389283673073585 5.489836697040656 1.8986945355207476 -0.8626881572435272 -1.9658857888341694 2.4901846312629567
Ni 8.6371741137997 3.159069804807379 5.838079575601548 1.1213516767918494 -0.3430185860566351 0.02653866972047688
Ni 5.767398844432183 7.88734190653161 10.119035504336635 0.5847871296218315 -1.008536555170631 -1.0947276464464177
Ni 5.9659285316739386 4.756903180564319 11.813409673177015 0.6585798472332658 0.2700169968879285 0.7460631749579151
Ni 4.52778087707722 2.522297666667549 5.28562499769072 -0.8400192548911017 0.18143246567930044 0.37868621466157365
Ni 8.383371433570423 5.20306545384981 7.164170031602553 -1.0418778496352379 -0.004937803621249561 0.5173704907400702
P 0.45902553829798115 7.458916351755612 9.124312258844268 -0.6855486625126258 1.0925697195631507 0.3209410374313053
P 5.881149595745391 8.233898599651647 2.7523114106280224 0.5385538096859047 0.42711628513850314 -0.4981676925593743
P 3.9137736237533103 4.221596859941404 6.79790679438155 0.5233387925083632 -0.6402951899914651 -0.23761852595256494
P 0.3744022360884432 4.65508741740703 0.3109156505575061 -0.8649458429294523 -1.1534799247849619 -0.6685349015634486
P 0.18119356439953468 4.612080940024201 9.855908614610543 -0.29360172618640407 0.5527293298553383 -0.8981992056659435
P 4.251425121235404 6.683869640188981 8.816788318269651 -0.9175765817512908 0.045429593087708865 1.7718801144755483
P 0.7887139306424025 2.2035892792446576 7.579130046500785 -0.19847476587356785 -0.25683777919349315 -0.11976378502490988
P 8.031123519246405 1.8355293474332066 11.96932887415531 -1.1354719182433155 -0.2882646302442068 -1.6822031215336901
Ni 3.8722774380815714 3.607700115767087 8.909735722172195 -0.18254523912750498 0.2903770486015192 -0.14360896707362367
Ni 1.978215077747882 3.6264682530061023 10.617467684469489 0.09727280301124537 -0.8982894513869046 -1.202783141895464
Ni 4.288390431773878 4.906504941824283 2.5383408324595456 -0.7308982942920186 -0.8136608195022309 -0.8182558950720811
Ni 7.742169720351119 6.119434949552815 13.346825423817705 -0.24041511486109562 -0.1816569229852807 -1.4643466086994006
Ni 3.4258665192094995 4.987195039217932 4.696226290161755 -0.262036035564981 -0.34400511833962044 0.9901040594970562
Ni 3.8615304232837637 5.193487994218516 10.646163226980171 0.3479337639700653 0.9945302135892097 -0.6896246323542122
Ni 8.723933005325101 6.783419965779638 4.245871115558834 -0.84365479476116 0.4324322980347779 0.416264944246296
Ni 2.089507000482673 3.0049832138931447 12.885498532479472 1.4653179714737345 -0.7284812002100938 0.2921192281036066
Ni 9.154706879529927 2.3545816139703204 9.833898875650167 -0.052332747965445355 -0.05226384240072289 0.5781451988252817
Ni 5.921890635561586 5.095374287572552 8.176791154780899 -0.33579275773215717 0.9277427236510153 -1.0970280124448204
Ni 7.244998265433191 3.617489384601765 -0.011385205136700199 -0.0029346571482917203 -0.8567476233893762 2.5170673145864133
Ni 8.595502955307774 0.38915612846853487 7.808047908061139 0.2114228413938036 1.7837429273514056 0.7835675996612763
Ni 6.410313449470159 1.8296723625048388 10.061131472679245 0.7484609857661304 -0.7350331423959986 1.502557058330851
Ni 5.9199383072521305 6.144216626348787 1.6063204784455938 0.9866369268840622 0.5628921293209532 -0.18258457700587263
Ni 1.421331845667159 8.316522607163153 2.907542692150112 -1.3783349804242715 0.13457462478549725 1.2881509659390074
Ni 2.789858736021013 7.4497993469142845 5.0718164996083095 -1.2467518341669301 0.5223951976481713 0.9739225646411872
Ni 0.5054366183978177 7.347606010829223 6.96668373491486 0.41144901091489144 0.16608580801990105 -0.5583613313301352
Ni 7.799395041648097 7.742657802428482 1.7432882811784707 0.3637036252098123 0.4725628475070765 0.36404661037152786
Ni 6.31065261472991 3.7404123953310977 6.046765974600375 0.2861352426060298 0.8873681764887106 0.6607791688774297
Ni 4.814017992711706 9.054696099149304 11.823869364185882 -1.1417469526187498 1.7975420380180271 0.33769665962308937
Ni 1.7716366407775197 5.234588188770884 12.217479932292548 -0.21287834289340757 1.8849654590390181 0.17132751603481458
Ni 2.026829894472496 4.155134815557707 1.6379408297821414 1.3652364953691003 -1.0566555221650449 -1.0841131041553653
Ni 4.942742733794611 2.590380511911927 2.90770477223618 -1.642709691424758 -1.4784426817811505 0.6697600322198013
Ni 1.6842883671209627 8.909662049405801 0.6033016794571989 -0.08296872768374743 0.7104438830924087 -0.38218111518870956
P 0.608479954025157 8.569837205315068 5.050992892186886 -0.5096427830785094 0.03273914210423394 -1.1042440705772854
P 2.063500513945391 7.391109779385213 12.520408534063304 -0.3723690141942942 0.48109916711286177 0.8025724228985532
P 3.876237349275279 9.305422941381607 6.3364049302231304 1.417464085215249 -1.081031122795932 -0.7983738114361735
P 6.855711367804305 7.57809126049462 12.084137750575865 -0.9409365966334698 0.333956990074999 -1.0035365308528783
P 4.144056273311124 1.0842421030288236 0.3581454192739023 -1.1777004878952233 -0.7801832565700757 0.4265079621305429
P 8.890442666472618 4.528130822717594 4.010699357041161 -0.17964734875441962 -0.5856427927539076 0.30593633649235696
P 6.895844607297746 6.431070751401829 5.8303430142205395 0.30260521523659495 -0.3557941405547485 0.534603309678589
P 2.134484224366555 1.4810528319257539 10.967880226000702 0.716830760455359 0.3395162293303314 0.04419443512902711
