# total energy = -381165.24160865875 ev
CRYSTAL
PRIMVEC
9.35041756176543 0.00000000000000 0.00000000000000
0.00000000000000 9.35041756176543 0.00000000000000
0.00000000000000 0.00000000000000 13.68528125634012
PRIMCOORD
 96 1
Ni -0.12546670493168374 7.911677970424755 4.8405932392814695 1.0386238614743146 -2.6507302261909187 -2.2158142425023386
Ni 7.474901275853251 5.3351704736535215 10.513854232865148 -1.8776977217330113 2.8051707366624075 -1.3664986499109757
Ni 4.781607066562791 2.0847690491022117 5.888694608991442 -0.2274711531059179 -0.7416017967524519 0.5430655815133292
Ni 3.3652619510994413 9.26898455083235 2.8855004529953407 -0.2935325635113655 -0.9868040485895456 1.1701972375396428
Ni 9.290284801522406 0.5527461806156154 1.4997293321353031 -1.6458250971252881 0.12457868991504996 -0.30100676040122354
Ni 4.985146951119918 3.667177576442379 4.182659538851199 1.3154044023383218 0.7396593283141003 -0.3991323983310674
Ni 8.901700157897587 5.8007090519487345 3.788701210383722 -0.39151241989196445 -0.04126723417990313 -0.08965770966814882
Ni 8.889899931220302 2.542948848954461 5.061077015092086 -2.1507051687078316 0.4264004900184011 -0.08581005378728447
Ni 6.810862687944695 6.113789075590147 7.819167746433445 0.5660383882594187 -0.9966187206871222 -0.9347654348257515
Ni 4.8105279073812035 7.623413954391511 5.595760994540897 -1.5806653725985036 0.826023454832642 0.7807165033657264
Ni 1.3031863648702613 3.781505129202393 3.8774366708967287 -0.6805075005442925 -0.09421499002152806 0.09716841622289718
Ni 6.0888702133912895 9.204307714123342 11.276698680756942 -0.5787116128517129 -0.11311079848476649 -0.12382021448247063
Ni 4.839271090270242 4.432200671573325 11.7156680481936 0.09184443290682245 1.0157916940711476 -1.596723711612947
Ni 0.6077294396730056 2.2694958939805003 13.338934159122559 -1.2434407675158263 0.1469899677307146 -2.110363017445359
Ni 6.175585983759849 3.5638835161381444 7.1811186435086505 1.0227933221999612 1.166404346156114 -0.4264097459897818
Ni 4.209585935651969 1.687797081127533 1.5714264621797325 0.6402519954583554 1.1701280748646041 0.37644292715335165
Ni 0.5782428986058016 3.709469514050422 6.889896155430484 -0.46407486464072334 -0.8855084975721524 -0.15445645131108882
Ni 2.929523152852168 2.142227363628284 12.56834289046838 0.6194589699724041 -1.828632331664928 -0.39433240583926277
Ni 3.7909490507111534 6.826131919453413 11.337830774254098 0.609455321792473 0.9949832419662284 0.7760499511279925
Ni 7.552668696831827 2.151194413852939 0.14579077205192312 1.9272575349390098 -1.4936579560690082 -1.8097858883823863
Ni 0.8115863033778025 5.596477236508789 5.623323219720474 1.2780321323374506 0.848233672381094 0.7751536645659682
Ni 7.840708302849021 5.079315004104795 1.9322244706089244 1.2441437071201218 -0.08391360809552 -0.9134993263581236
Ni 4.1409445219927505 3.7673392469392524 8.090601011262958 -0.973747986736536 -0.5519088908365721 0.9959080677733427
Ni 1.8554968160380467 3.6454659073895654 8.841033715183736 -0.7058660339137391 -0.733812125504704 -0.4461581322613026
P 6.47448142430345 0.739490845554885 5.608487847576118 0.8956108761134769 -0.2420184547924735 0.6313372094672289
Ni 7.821521246476768 4.782701065391033 5.773217889940907 0.3900636032605798 -1.4874785667311736 0.14851566034662164
P 1.475991427645907 2.0658531548326846 5.819282720943787 1.308063645702534 -0.09274149079979511 0.04295490629497118
Ni 1.2557797489797509 0.9338757364989152 10.651979532785505 0.2686913360979695 0.1475592099706233 -0.33818208389994014
P 5.664903590569292 4.9101940057593 9.104722029334331 0.29454377838469914 -0.9574981005365768 1.1961301553553205
P 8.183990174483796 3.690020645992777 11.210516426856937 1.5302465538263195 -3.09348216098415 3.169053824872878
P 2.9762565386945288 9.163633398714325 11.633748106876372 1.140045653656927 0.8092956005549997 1.2849448002968837
Ni 8.24484269050262 1.4940470835205768 11.159484654165489 1.8172755118912123 0.8968061819731588 1.7135410124150232
Ni 0.32739644762365333 1.5153192829586264 8.217162650064617 1.5282346656026131 -0.9913759842309441 -0.15415357535868934
Ni 1.6397265856062084 6.430450309071022 2.6764718734623307 -0.995200500183357 -0.26119502772092434 -0.15442919761757917
Ni 1.256387526106552 3.1237032696565525 11.118319441846362 -0.9469779177315433 1.2829231418811649 -0.5006788890170023
Ni 7.649557721261307 0.45880253764678725 9.389539481537744 -0.317661338238769 -1.1563970984317569 -1.9763000421889576
Ni 8.630837268525532 7.229752034153567 9.463125395883925 -0.8498580953583945 -0.4584369496286556 1.6016928826927643
Ni 8.801370179888675 7.192041801039872 7.232096183779553 0.8005664482121181 -1.500683238346906 -1.0035257322196007
Ni 3.167341667360894 2.275554964413844 3.8408559681971512 -0.13262418592734576 -0.35213417520465806 0.04626340184291387
Ni 4.118765332073166 6.3410977210138775 8.563851813776415 1.206196024231755 0.2865926418584226 0.8522134829644484
Ni 4.529753575633619 3.4908754575832908 0.06136491888880514 0.43467198599857393 0.10998279437874607 1.018838194206955
Ni 6.0647087349966 2.5266978236255246 9.357229114435246 -0.28196131373399824 -0.3893364952865682 -1.1132704424456115
Ni 8.194154078127383 0.3800392972219914 3.831208207590479 -3.1223001136571065 0.44595835754567065 -0.11882558948135664
Ni 1.6156212097155307 8.330847829153688 6.932292817712684 0.43470052524366426 0.37666275647364167 1.2095073479931748
Ni 7.818183147488027 4.835951692116173 13.059397822630185 0.524263875425794 -0.1231067333552138 0.15924076007360963
Ni 4.940208845405954 5.325090723765952 6.121206761662325 -0.23376315676221676 -0.16498434742560616 0.2214722552100057
Ni 7.618916403653181 1.889392078878895 7.327961337510807 -0.6287324248545302 -0.7974471858568459 -1.1004455227668015
Ni 4.898721043688757 8.111580542638409 13.413874013898909 -1.9061364366896785 -1.1101627500545657 -0.5727988469117038
Ni 2.811474133992662 5.123729486447976 10.170736928575476 1.2822847369662174 -1.3209348452382477 0.8533643087394399
Ni 6.256065025765691 6.230360728510659 0.8932687440947122 -0.3038174903771413 0.4383841447428385 -0.8177542728453142
Ni 8.775880942232357 7.19636169384883 12.073811473141271 0.10011104379098888 -0.8588186469857918 0.4781015179371186
Ni 6.697797441524961 8.446493790757996 7.483727134776141 -0.18134376262023608 0.8899840168450027 -0.9667286179959094
Ni 0.8886271969294165 5.6327568557701655 11.224256865131316 -0.6928179424805294 -0.69882558212719 -0.4997144682212039
Ni 4.771630171265913 5.275009888517515 2.3523218907375307 0.9580413746345565 1.5873363568607757 0.5891292086406111
Ni 3.2361139868628084 7.218821396288477 1.2383225198145469 1.194843061112781 -0.019624973319779106 0.446764912607366
Ni 6.523832926999725 3.240705041774493 1.5858092741250545 -2.73321121560497 0.45827342746759786 1.975634640690817
P 4.359781689310602 5.750132644581521 13.525518931925394 -0.4667529256935188 0.26758987550367463 -0.488163787269127
Ni 5.434939426622307 1.176955730842275 3.5650981353500133 0.3704170326742459 -0.2095104548624392 0.7538847278848629
P 1.3675078857205218 8.644741339103282 2.2458094167864493 1.0061145759926995 -1.3773415061627505 0.2294403610171468
Ni 7.057695004764754 8.398301739811311 0.5474276632352362 1.4192407174996977 0.4695988797827461 0.37414410381684593
P 0.8523344870837701 4.937852540237432 0.6393955630210929 -0.46213316753332023 0.51381876883307 0.1369870908817318
P 0.48077321325979167 8.819594143275381 8.970235911840915 0.9913567009572345 0.9318590598122338 -0.8016270282661485
P 6.8246452030970834 0.7437499606511626 1.9816283356422777 0.54745805415407 0.31020591040198836 -0.8893553821220682
Ni 5.966894019250913 7.325014085966687 9.596461412045088 0.20607006172232253 0.9985123381654094 1.399608802201383
Ni 8.831244763275299 -0.12918630094770842 6.369335046325071 -1.3690777234920617 3.9151766494241347 1.2744104764244633
Ni 7.181167265678795 7.571014215643894 2.9880034679930003 0.9793499063043456 0.0748098460220389 -0.6991536548905701
Ni 9.172890311876378 5.010963453382975 8.583709295071618 0.373834285885911 4.130064309438087 -1.2185602022240627
Ni 3.233804433780963 8.788092587272397 9.279359773907716 0.2656227244749748 0.2583303045786196 0.3367983161785361
Ni 2.7984116009750992 0.2574740267894843 0.6078809164338392 -0.49728117618936296 -0.7480246695596601 -0.9779563683909286
Ni 2.353322385392419 7.451151215821319 4.82090032533137 0.012672196151029788 -0.02869119728710542 -0.19392237061619505
Ni 8.82832743306665 2.7611314870588335 2.4264417139135634 -0.7875129574622696 -0.1034280239793638 0.3858176835000323
Ni 2.7454134355180155 1.5655029727977523 7.550922038873573 -0.10628554803281694 0.5875227833854397 0.18579434219242194
Ni 3.3804096271827997 2.145677667625049 9.917900708784353 0.46484645269942526 -0.18615403952468584 0.32797120480520936
Ni 1.467940718320122 8.021928741226532 10.792787467439389 -1.1398011417462888 -2.6555518159492784 -0.2080852923801384
Ni 8.557436492442593 3.211008116317242 9.226753390936986 -1.1448410181630413 -2.9914703006260224 0.4950635997127538
Ni 9.09712388020758 7.029017274797062 1.3290253081349233 0.3370947643730324 0.274656809652785 -0.6809165630572531
Ni 5.650980819156873 0.815762199759795 13.527544232320242 -0.5207396643226193 1.9486452565861663 0.12259354116422112
Ni 2.4006354971095756 4.386467780385852 12.793807633593566 0.10494600328578702 1.178789607194344 0.6080353015164948
Ni 3.0443088760616166 5.325174877521972 4.065267854330372 1.40404138405144 -0.1257156317329706 0.9714959574775657
Ni 4.375574544190104 9.234444109195357 7.200989215388123 0.06305913324401398 0.302143445108828 -0.07875134716829019
Ni 0.9127522086964985 1.037625162127384 3.9888899053678384 1.9735620744325044 -0.6726445528564481 -1.6483926007421483
Ni 1.799478465781627 6.409290314640996 8.60982033548074 -1.787860806174521 0.721115503873642 0.025928546940303734
Ni 6.204366568318229 2.4093687869008447 11.54446471190751 -0.9734836773315557 0.6008791500876877 2.2356089086307627
Ni 3.097924169062837 3.9116722889285853 2.106492873697561 -0.7860276311659946 0.002103676606564119 -0.5706902852091332
Ni 0.8246095646425566 8.97832682796124 13.112278172828841 -0.6869640548029137 0.8420681670003304 -0.6347472635900423
Ni 1.8651090450588446 6.902945597863777 13.067472843041042 -0.11787402420136472 -0.9500483291267509 -0.09609652331495709
Ni 2.7990661301885775 0.3588923933762363 5.311668199680977 1.0291503747662405 0.2961262923804706 0.4250771432212873
Ni 1.5218178230067338 2.401290026323054 1.5382119097209017 2.0912435230070887 -0.33798102363272764 1.7711902874973755
P 5.236626425355674 7.213921777604723 3.6239580774346636 -0.8837249233091684 -1.0045585443594893 -1.147865663921978
Ni 3.052630747490128 3.8485756727492633 6.034798620024101 -1.441739412822846 -0.3192001434807986 -0.7051877768997921
P 7.990960159011666 9.080237026499836 12.352663359084694 -0.18525286786665515 0.6859669809969671 0.3855466892268328
Ni 6.4386599754915075 6.808384827350813 12.206613580472581 -0.48423745563152737 -0.1303796128675432 -0.7454895618426323
P 3.0304328567358736 6.528751246518149 6.87025747390093 -0.8665093307618302 0.04748004785883436 -3.3282326213603004
P 5.420119015145688 0.23356594470458364 9.06250208993977 0.14369278503668156 0.12278534546005304 0.6975361738918051
P 7.3380579181495795 3.8357281993304144 3.60078867831926 -0.3739425293290011 0.4254162717282609 1.7935221182253565
Ni 6.833733808747099 6.700013490433452 5.301076046923429 0.9766749305753436 1.2193757561468226 -0.29162197675221385
