# total energy = -340889.2582210902 ev
CRYSTAL
PRIMVEC
9.08275655342182 0.00000000000000 0.00000000000000
0.00000000000000 9.08275655342182 0.00000000000000
0.00000000000000 0.00000000000000 13.29353231503293
PRIMCOORD
 96 1
Ni 6.727497702095108 2.0760910277544142 11.35335458288413 -0.8908491930587755 0.12694719014722655 1.234428536714887
Ni 4.231928656071811 0.3094495081071547 6.244251468196089 1.1781332045572677 0.008536576716101427 -0.6147633642689477
Ni 2.7981429075898845 1.5067475300676256 4.879124999627119 -0.7228304296822197 0.060278742285399416 -0.3920752343739699
Ni 3.2803736893313924 4.358188051792315 4.718499178787008 2.2238224575187955 -0.12240250819933758 0.15460171863970149
Ni 4.770854002814929 4.573676445682606 2.3456436204136235 1.4895573036370733 0.05819614872475784 0.23701817336440473
Ni 7.426106987847087 6.086981725819307 2.4913146829590938 -0.5471518357675609 0.19914505246771508 0.10762406433858239
Ni 4.955933328517878 4.5263462024555325 11.487605895897955 0.3367098702297879 0.1515253937072229 -0.052690902635812484
Ni 5.632280778509051 7.883569093081162 12.48120403340671 -0.5818457876053205 -1.0639790524096515 -1.2626854746780511
Ni 1.7712373943494084 6.565751977399709 0.2901177695378777 0.6656130999309634 0.6141085042937682 -0.19836369421700029
Ni 2.8241650044706303 1.3970005853520766 0.4746957270915019 -0.46616799972432615 0.0015974263941069264 0.3993059477944543
Ni 0.5911484708042773 9.147516380979123 4.722168612343664 -0.3437737190551047 -0.04848303520205199 0.558265172071903
Ni 9.175037132654047 2.538203504228609 1.5493874379267347 -1.4062301641726427 -0.6390206941544156 -0.1643827092858653
Ni 6.811195301660926 0.8421295515988937 5.111788885734335 0.24815130716308878 -0.7597082765451755 -1.6787434451198635
Ni 0.7958420087983159 7.701995711320958 2.5353960242475133 -0.19119648704459977 -1.79340898968626 0.761535045341269
Ni 7.913169795955279 3.9730701007136098 3.99919937411903 0.5457320726018989 -0.6591606594374002 -1.447969710003274
Ni 7.635455438459408 3.678543561253947 13.081619640492812 0.4484533560533825 -0.2986855684672146 -0.7238002497946567
Ni 8.15012982580581 9.031447837859037 7.019091419536344 1.125429703515965 0.36129090200326164 0.5853540578688952
Ni 6.8135840665752845 0.44815591310004 0.35093045625876534 -0.3671969830750515 1.2820029440597405 1.929584897520606
Ni 1.5745503060588175 6.818870230758388 9.017547587574118 -1.0822462261499555 -2.3079394398743736 -0.4240355893306504
Ni 0.09657059011000003 4.9665783189347135 1.2691544321010089 0.17800672782720312 -0.24026701931900554 0.5036706246554745
Ni 6.549548340109919 1.9434464543350747 7.13285748392719 0.3377262273094441 1.0197231679150698 -0.4538652710975732
Ni 3.278865951780885 4.530215456651414 0.43590054998618666 0.6788344837172438 0.5195986087396406 -1.5445431729546497
Ni 5.914091459109013 5.098696092487008 4.559615430610675 -0.6000995916091859 1.167592452926944 -1.305269885007481
Ni 5.296336870192077 2.8606231883726587 9.239416617785082 0.31889366798397334 0.6772496557286272 0.5244824191945031
P 0.24030884210879563 5.290496657872943 12.42316431219287 -0.4799501411100831 0.8654734332981482 0.3741029661662654
P 3.9275200777268946 6.3633609181349104 12.166532848686384 1.2501775720190276 -0.07504870150572236 1.671404488256289
P 2.498448279779386 8.372185052521505 1.446974818946335 0.739848561506771 0.7700813922493834 -0.03028219592330914
P 6.657605892148394 7.926357958144055 6.024961032506746 -1.6781081255287098 0.9196676599523645 -0.7439317304372092
P 4.797339320268421 0.873871060139606 12.811654690696294 0.21069136254441778 1.1285561649600886 -0.425608590244725
P 4.019900792342623 6.153458419386558 8.110171147614833 -0.2700643051860962 0.3650282575585068 0.153249061266549
P 4.752061779971556 0.8011009247124352 4.016028813319844 -0.01175868319782491 0.7252781198917638 -0.056716221745121684
P 0.31597637680471274 5.643334492960663 3.5329424359322052 -0.2088504526809371 0.7177275612380155 0.673054386700357
Ni 1.4818971087532382 1.0552346302286244 2.765028086292324 0.825829593654281 -0.24763837208241224 -0.6693800231725633
Ni 2.009732410019431 6.2905262951378065 4.944409127288457 -1.0216355544464342 0.54392690107236 -1.68671386491985
Ni 5.950050091412982 5.601353993210992 9.087285898938884 -0.17562125831416206 0.5904628398503702 0.23422287000745468
Ni 8.965470695889845 2.491109412666073 10.413488215262674 -1.0221317773565624 0.802857815349456 -0.9655518240789889
Ni 2.122040692019577 5.228270694267362 7.208059073223463 1.8308992733222338 0.07397192350177584 -0.2842179709786589
Ni 0.41186757674135155 9.080494722032169 9.273515101593002 -0.051625437485775603 -0.18118898220992666 0.0897834366127357
Ni 1.2595149028097226 1.0775418797710716 11.407751210534665 1.5366899954588178 -1.4348267448634129 0.9347407522354031
Ni 4.078203005214353 6.662610490885318 1.5863433568755574 -0.24183050715138352 1.60591566252486 -0.2810760829155675
Ni 5.575904109978934 8.033670724163605 8.047359346226072 0.6832120439596492 -0.3127302194857388 -0.42561810332642186
Ni 5.181503581932647 2.705934765344395 5.1812474482041875 -0.41545967473618123 0.17918403596475593 -0.2683570926870023
Ni 0.43639283537918366 7.075894069338261 6.524186559614245 -0.24456898912846914 0.7534193582126701 1.1565485364079564
Ni 5.116961515463336 4.8338065869267774 6.740977420762023 -1.6700472028974462 -0.8699078149204179 1.0320390091679452
Ni 8.138149670208707 7.034685603876501 8.672062243734203 -0.697939579977811 0.742271826236283 0.6032656480419933
Ni 4.83838429611627 0.3895176382441612 10.53287741409641 0.4009362843090256 0.7505286669284363 0.11822369423129962
Ni 8.063044358129515 7.406242999756967 4.5062151813293605 0.15044373060726995 -0.8630907919985845 -0.18652916347591747
Ni 7.110008902107573 6.026826630656592 6.590600582162831 1.295516148054827 -0.5622892056296317 0.9379055231166299
Ni 2.256937789008349 5.288707354876256 2.5778415611211956 0.1298607642495957 1.3145016880183942 0.2209644623356517
Ni 2.2174005507110066 5.560517920758696 11.265789545673698 -0.1571972472810196 -0.36786367012477295 0.13095322598282608
Ni 1.3438119642932127 3.348839506534554 3.8427479880874316 -1.0986686333720368 -0.36336706780600003 -0.2028726378309474
Ni 3.760606264680661 2.6664247753160377 3.004643914093266 -0.14229616179947108 -1.2378373052861198 -0.4996422202223718
Ni 1.3826407475969427 3.35715931133133 8.491403495536265 -0.992948985145019 -0.536218990905141 0.44940363578179376
Ni 3.624573823150844 2.8414858207888085 7.2904787289738815 1.4795842515847617 0.27885670666674556 0.4037367298722982
Ni 3.8512885038629867 7.005257473372621 6.1182155082812635 1.8029876345136304 -0.7504206805956625 -0.21844658100980444
Ni 0.3459621885471536 7.201290603207571 11.229843629228586 0.9392556093866211 0.9163092850030928 -0.6203074340156285
P 9.21799857008718 5.268470973776675 8.086428822572506 0.6771802359432725 0.7935463081405429 -1.3590352516543949
P 8.770563827839613 1.7203285451289623 8.212292210117093 0.014293019583904415 1.063322906882891 -0.4467633699454693
P 1.9434192060660898 3.476615722561893 10.718082990112324 -0.10596698835113365 -1.0777233985789376 -1.2057779628577299
P 4.173299463972261 6.198608801094825 3.849887034561521 -1.0886030216059188 0.1653450731991346 -0.07176437432749576
P 6.883848269531461 4.026049818376921 10.371772931997793 0.23039886827567416 0.051980763942665306 0.4332846187327441
P 6.630666436878483 8.030991311046739 10.020770721964034 0.08073238215406096 -0.9910957339863641 1.4024529565183976
P 2.162922178253516 8.344037590659925 6.0081842732926365 -0.41315750896556586 0.8715903448291634 0.17907707807324644
P 6.934257567153848 3.913923191503343 1.8940226357743153 -0.7924816143214546 0.6728515266609316 -0.7406414897217116
Ni 5.234583209915571 3.029344469928236 0.39347499517642676 0.31117213096999957 -0.9334932529815471 0.08972378701939386
Ni 1.7799114266429903 1.2994517823855125 7.095861600850523 -1.105311078389219 -0.9936892057451532 0.5147477084052425
Ni 6.905674132988505 0.9888578469809847 9.22535196961062 0.8481886780757714 -0.989018282632045 0.42573714540278934
Ni 3.064131426665847 1.7265683987265443 9.456872336696097 -0.7562791962589684 -0.7434403926230874 -0.19827936203331015
Ni 6.335967325048583 1.8472782303304212 2.721465370390254 0.6468679581129763 0.9821446954406634 0.11970979185852285
Ni 4.198685767910021 7.25339837626336 10.05103991570392 0.4019757813171336 -1.5574868775995112 0.7900326385603297
Ni 8.319396072741089 7.080499026796738 0.0208004202675725 -0.9249304510132006 0.00250631136162149 1.5313148471898337
Ni 7.498614631616367 4.016512924232146 8.13233125650476 0.5198582901589306 -1.0019977256108485 0.253214323508293
Ni 3.0731778519688913 8.501995805966397 12.135332672422841 0.00802955517269585 -0.32091969727506664 0.8973628258075771
Ni 9.178942717875243 4.993944663752056 10.239861337014151 -0.754298932604146 -0.9086147445723126 -0.35311016596468214
Ni 8.952918326644054 2.323977613467959 5.709319809410551 -0.4782174746896925 -0.10729727712678296 0.4016345959276309
Ni 3.6150914255440387 2.4692018044020734 11.719737532484332 0.4025589075141131 0.22421947893783964 -0.06930948502909999
Ni 1.316772598703691 3.215713547029812 12.874134063203435 -0.39429332507121123 0.2284448298730969 -0.7650944805577533
Ni 3.04325925262328 8.331040166354043 8.13982907185382 0.8037142498124803 1.2132850698680524 -0.8799909101880328
Ni 5.671972423663975 7.856593306785939 3.7416378363645184 0.07192789648855355 -0.031877308324570905 -0.1305729598252719
Ni 2.96748181657579 8.2660712103373 3.8546191506085954 1.116062146258136 0.24031535605843773 -0.4714991821292525
Ni 3.5309306054054743 4.464447218077774 9.354392505318867 -0.486472258499317 -0.10383220139631795 0.10821644650694266
Ni 7.208920118523391 6.031831229393517 11.424474381486439 -0.43282413415655785 -0.322547976907109 -0.9833106907243067
Ni 0.6335885580241627 8.9625097173268 13.766249655979815 -0.4753334682736781 0.9411158025238113 -0.5801270051420009
Ni 4.5982725498198 0.41511829523127086 1.7944138636724796 -0.09301608461742045 -1.204374397641984 0.09657397717200787
Ni 6.1651115957558416 5.552552343458726 0.24558774008683726 -0.7800662713762371 0.4066143085304094 0.950154515687312
Ni 7.904441267123728 8.92086527956128 11.781100634238717 0.3579793211315254 -0.6228695383158498 -2.2350795184898535
Ni 9.37204211741613 4.852126506441076 5.803849504173568 -1.287786126400421 -1.259402433051405 -0.3624152454156919
Ni 7.890263084495162 8.87722263540352 2.569214759160521 -0.7141331590185378 0.4809860385737652 -0.13622398746346215
P 8.516428305772157 1.7879133349682736 3.509359059125624 -0.006358595228176145 -1.0625358922052217 0.9710863807439727
P 2.10471079294507 3.3492482305693305 1.743938261928896 0.04667940633440993 -1.5007971382169507 -0.5368411978701721
P 4.805168656223465 1.06222835260146 8.129925234353378 -0.3992509261868027 0.19411186091918184 1.3404803714703428
P 8.593223010528424 1.6232974592731144 12.745612152881538 0.27891944158388093 0.8122539118523753 -0.08764633566507485
P 6.067499213494978 7.578724542432485 1.3300579463851803 1.699186543465564 0.14096613013413786 0.9023800765165105
P 2.0478164073042358 3.2485840421821393 6.024868388392197 -2.140998997163661 0.18844823487550127 -0.06820031112532125
P 6.94364913719737 3.8759481872944783 5.966190149408473 0.8304172130249634 -1.2967924436640892 0.334210757957018
P 2.3018883500773923 8.305099814280252 10.168568057765972 -0.9870675866635774 2.799428691972308 1.5892615989079468
