# total energy = -340885.3780374818 ev
CRYSTAL
PRIMVEC
9.11057083271553 0.00000000000000 0.00000000000000
0.00000000000000 9.11057083271553 0.00000000000000
0.00000000000000 0.00000000000000 13.33424132429611
PRIMCOORD
 96 1
Ni 6.407965624054715 2.2186700094961616 11.580361994520045 0.8968246939159199 0.42231346443322104 -0.5000793077597904
Ni 4.646883150630342 0.45885208331836835 6.526311029518398 0.5390605741189942 1.4492231227944008 -0.9992363608156275
Ni 2.579102417055435 1.7823101037163995 5.004954098201764 0.5760762321113949 0.5623650531728895 -1.8867734587820342
Ni 3.5355301544188777 4.549946675820407 4.870185066503132 -0.24461218366157875 0.3272579807882686 0.4503973671536307
Ni 3.824007272687844 3.0589106356517934 2.722132003426076 -0.8651515311823551 -1.4821455845540346 0.09303433944986558
Ni 5.332508277349938 4.508284034908204 3.362482147855449 0.7641071769438195 2.6361294455586086 -0.2769615465265617
Ni 5.393366891234372 2.979839990456734 0.7277815605767894 -0.4998152554651263 1.3837893186706234 0.3628569609388009
Ni 6.083929947403873 8.584353473814701 12.395190505150548 -0.1141001589812293 0.5285769009788509 0.45062748088656585
Ni 2.3271131354043066 5.675484830986671 11.719331910479472 -0.19766126883333698 -0.40592319600065574 0.5077435091732675
Ni 0.4925976380830301 7.427074089490749 11.284235640889197 0.08051383838535166 0.509164043669878 0.8519054648057264
Ni 0.520866828655187 0.431227921168819 4.686905888773204 0.5523632047651713 -0.5606655539832796 0.9991751685603888
Ni 8.755076462674042 2.9504401780308265 1.6230172371593659 -0.7974705828956137 -0.040582549408052684 0.9801230370249442
Ni 1.1982040689899527 1.4476241696357801 2.6989701989233224 1.414412185762803 -0.2755818925702157 -1.0181517096628916
Ni 2.006275269153678 6.753338257848875 0.65056947185365 -1.8596627186081716 -0.6729831671427894 -2.2117639836923653
Ni 7.973052384830017 4.576339999835856 3.8036988990037433 0.1962188799598556 -1.213156771820304 0.12573620055826087
Ni 7.648597621915897 3.8593016245124385 12.79568482630773 0.3322598048782342 0.7673696497451752 0.9131594265202014
Ni 8.309332668825274 -0.11434313164939629 7.001090212955445 0.22015430772953054 0.21603025825882793 2.147367105473534
Ni 6.93644251261674 1.375832870622407 0.9319603880448746 1.3010959561354496 -1.5468507380419039 -1.0452585931820126
Ni 1.8906985661988998 6.834540776644077 9.489592557290258 1.4028134251816098 -0.4895156733113312 -1.2055792165833623
Ni 9.02925909513692 5.267477021974627 1.3646660438202884 0.2008977734927637 0.6695366033550856 1.1826650309893503
Ni 7.018382987658146 2.5334037932164657 7.358807670374365 -0.2716221365915193 -0.5431535132414452 0.5658776943118383
Ni 3.620777766711788 4.515472275380482 0.36674785533542437 -1.0160503470491729 -0.653197756985746 0.6632618260899673
Ni 6.371450455724057 6.0907355438966375 5.050476888021577 -1.6069944974113355 -0.6089822388107964 -0.04999844340531389
Ni 5.6848869401975595 3.4286904889963106 9.221774569686612 -0.4285532746953458 -1.048810572199329 1.2626340526148254
P 0.3072467165211679 5.816798896849162 12.692891165439963 0.24395192436976051 -0.17827052301155105 -0.04707278511808667
P 4.233144792496545 6.3195657542162955 12.924506477296218 -1.1089232212205096 1.1149591430019443 -0.6492678258037206
P 2.668395122846053 9.158492543931933 1.4365912682264914 -0.42795677876192745 0.6686624282802485 -1.368333132016553
P 6.360180679470307 8.250633260253807 6.167526724242313 -0.010976810726477871 -0.19022152472584014 0.6547221640500724
P 4.896221256137702 1.3946370890441837 12.708718960335387 -1.0916955444883134 -0.5733922575213286 1.9459677097540038
P 4.0772538131288 6.571236165884496 8.495258467413498 -0.2451937671966616 -1.1274505906007357 0.5085485215730662
P 4.910570405369436 1.4024630694823166 4.19864579351508 -0.9495999287354224 0.3549973556850661 0.2981230110955253
P 0.027203253772085188 6.568302562041564 3.5665224946452345 1.5860281795723137 -0.8423098506974913 0.2649971750758339
Ni 1.1984864966891169 8.068367178012492 2.425538277505966 -1.4173113616874689 -0.3675075723369348 1.3324014511169504
Ni 2.1858628435384007 6.863977031353748 4.989513502571325 0.054965300492285984 0.30059204146130813 -0.7855874583047825
Ni 6.245214384768561 5.887004956518839 9.557504575197045 -1.29604193865131 0.699327204353957 0.11424002699320326
Ni 8.5817842928094 2.57043826409075 10.481526922781217 1.6318796906887896 -0.28945659366977894 -0.10996119711219125
Ni 2.819758148456229 5.204759851618274 7.248360218859247 -0.48214200655507927 0.9137353536283295 0.4825538972815173
Ni 0.7956361818866501 0.37847953753587116 9.77658556355297 -0.6709733358016121 -1.2666645139304573 -0.27983629697119544
Ni 1.934520412424068 1.5151152791651037 11.671967874272529 -0.69580247903015 -0.0840377923782101 0.20812540158945445
Ni 3.8823058161379165 7.2988792457829845 1.6414051024891492 2.556471527415649 0.21383479326940594 0.8957384028302766
Ni 5.517963059420526 8.169576510593656 8.481630875400276 0.16016095789503385 0.4237874778755863 0.4663847437208226
Ni 7.2644777299105865 1.1540086893562123 5.4309434410796324 -2.052198493289485 -0.3421834917498494 -2.0028065731199187
Ni 1.27062399739824 7.703507032975999 7.095430175047257 -0.7549720474117707 0.10530235818394124 -0.5659625407161608
Ni 5.197498726578469 4.5888123714537885 7.302763993232135 0.3094790595382928 1.2667868984409345 0.038352117415637176
Ni 8.296313662950894 7.461238730518687 9.192853062235097 1.4378683599032138 0.6735840339515818 -0.9304493239489009
Ni 4.600036594852834 0.7875259516351648 10.690168107896097 -0.7305159712519355 -2.306970391092885 -1.1501161505190514
Ni 8.156183971310705 7.695061533713893 5.135123202632395 0.7253336557200476 -0.11762411297408776 -0.9439008214681163
Ni 6.920335023193434 6.492584606952713 7.309497616214468 0.7447799373701174 -0.09639245728882109 -0.26102533491227947
Ni 2.4438559914395053 5.711316706496772 2.7842961621263234 -0.8595699233295198 -1.040036425551125 -0.09702803399029096
Ni 3.486433287618996 4.762405190159476 9.89100704611246 0.3776580305073754 0.35309165402192094 -1.8260578860695325
Ni 1.1092393437532027 3.5436112308433527 3.8743167564799434 0.6521582599776381 0.8708413824782809 -0.2719936609983251
Ni 0.8006032651635653 9.061856717963042 -0.1273521158957409 1.6310533381327523 0.8086931910843105 1.034850253364495
Ni 1.0847774607771992 3.5112960357163936 8.118646596920488 -0.1941933648893946 0.007074390348278139 0.23437379376302214
Ni 5.518992553936834 3.1701051539840552 5.504601496078773 0.15626959326042764 -0.7097180606699777 -0.9673911912805726
Ni 4.280210001976632 7.262254750601036 6.360086840589617 0.13119465256967083 -1.1368520864202936 -0.6109820428496445
Ni 8.345829616014052 7.530916377073798 0.48561347439982555 0.04721573845385417 0.3620889724245248 0.5025709638333925
P 0.31867319459509846 6.102050873005091 8.061775679936837 0.28109665174085785 -2.02142855909648 -0.6060714929219045
P 8.752161079972991 1.5803925199558169 8.458749676482498 -0.094354858033502 0.926848751081836 -1.4820481397442218
P 1.7507055331228218 3.5322139065964326 10.51204915754703 1.6522811371632768 -1.279902866997602 0.7310553886951733
P 4.131880796489737 6.570425325070766 3.854662521789392 0.997445844574108 -0.21045173572978593 0.5535955345103756
P 7.315697359739671 4.221929679668441 10.605082663765932 -1.57349636565389 1.02018802336663 0.13002660040349864
P 6.834385896938084 7.969189502751125 10.447684795964584 -2.281728071586328 0.5562656251433711 1.3986724064300426
P 2.6311146665563676 8.9001805260479 5.728563928344769 -0.7761921331328115 -0.6733102114649049 0.576352111480601
P 6.764972456940255 4.528227074697579 1.704489428854416 0.6442426046749872 0.1069748607903577 -0.4368268275580477
Ni 2.93862376752063 2.0128257696601013 0.514750902382639 0.7229047345635808 -0.7258669025156983 0.28477050104801926
Ni 1.4018435506583435 1.235256761006119 7.065828107946463 -0.1918364346214438 -0.12181346846508699 0.7099738854345257
Ni 6.820401170543981 0.9357831836116273 9.447336818209811 0.46136877856347 0.04082063356078776 -0.03353155609854225
Ni 2.5900988761809605 1.8275714201502116 9.44988322278776 1.4625473507071327 0.6798300148612938 -1.5143113706533016
Ni 6.452097229691871 2.51659478983072 3.2070047884084163 0.04473719500637457 -0.5587837635795344 -1.323750460310172
Ni 4.465163702645476 7.201396136716603 10.919010161957978 -0.04215349343959837 -0.005219082307094238 -0.9836135666767061
Ni 7.41359955506933 6.169806189091697 11.779428880633256 0.5289643662252567 0.3575710299495132 -0.9006764635618423
Ni 7.871533292836867 4.561644648908373 8.433347582585405 0.4128412632767277 -0.3730616693859446 -0.7103418102969057
Ni 3.486916147878857 8.556693780438483 12.805352053132996 -0.21529980785070663 0.4647991444012576 -0.519255366467609
Ni 0.41805039136006983 5.04353007767923 10.171359357216433 -1.3754247487560118 0.7569134874088578 0.3628464194158396
Ni 8.892081228481544 2.777111565882422 5.822436518147319 1.2426740645531307 0.7624336458961385 0.3728043019594999
Ni 3.96235129242364 2.922133634117812 11.36422736480637 -1.3803931485048808 0.18812967519381793 0.6577537517875447
Ni 1.1705443756137344 3.4488430719173233 13.114440016041295 0.5890456477878694 1.966577158474239 -1.0930186341751111
Ni 2.975813118100908 8.745346372909285 8.24122750681454 1.1190849922448598 0.31335731154677643 0.8038047526437576
Ni 5.803670564123493 8.448186880533752 4.014779895016566 -0.41934126917877457 -0.18320806952248445 -0.1499012278402386
Ni 3.423251478144663 8.943027541182405 3.403085229367239 -1.7532177621793548 -0.746564797184682 3.4103755107086426
Ni 3.622472332906774 2.639441728396244 6.821984587773489 -0.005288759202765086 1.1147531976387253 2.141338639891267
Ni 5.221104215886038 4.768800810959906 11.59302933235611 1.1598704016923378 0.6983419576225521 0.8716618214970473
Ni 8.074143279988949 9.221993223389193 2.828699262777514 0.7677141775687876 0.05272766941101886 0.6548874859833431
Ni 4.853219361297205 0.6434932914039435 1.941172040267934 0.8057287091393479 1.1318374068145216 -1.6980174628581275
Ni 6.1581993217131386 6.630700862414989 0.3671195666298083 -0.0998423635106345 -1.2142494906638506 1.6537620925841776
Ni 8.265091736336828 0.33538653698596566 11.597469824632647 -0.4934288923228083 0.15422530913688923 -0.24325952628842623
Ni 0.2240453384615575 5.552747219272437 5.753765589681164 -0.25307059884157707 -0.31343110220750536 0.5486942405540164
Ni 7.1506684777183205 6.505722050249322 2.842567373863574 -0.9340252142256172 0.9650579151617056 -1.7034705155528986
P 8.432598693654073 2.164899419803658 3.727120906018082 1.179785138338394 -0.6528650562366756 0.6314274551881899
P 1.9565771046717046 3.7283462778096177 1.8441790799181654 -0.28148720231105717 -0.13634277242951356 -0.6413156608361793
P 4.731429248960811 1.3601171357495556 8.56941031535763 0.17728913293488824 0.9739732153734645 -0.7501106055544114
P 8.81016808515296 1.9749257945464422 12.983337989146326 -0.6513612179976395 -1.9016100095742348 -0.6139884337761361
P 6.5142950975046 8.377288417472577 1.7506791124670935 -0.5820111095385913 -0.8119502645690274 -1.3243050472620612
P 1.784514861884069 3.8757370944896117 5.938204543091853 -0.07051893195616887 -1.3615017109170164 0.3391560177774352
P 7.335831721518803 4.35647459132193 6.104162703349164 -0.982435744318521 0.6653377347823896 0.4019855515091464
P 2.592139644071696 8.541615785531487 10.596294607036453 0.17377983423004909 0.9961206980047812 1.0159300194212246
