# total energy = -340857.2768533369 ev
CRYSTAL
PRIMVEC
9.30548248591563 0.00000000000000 0.00000000000000
0.00000000000000 9.30548248591563 0.00000000000000
0.00000000000000 0.00000000000000 13.61951423071820
PRIMCOORD
 96 1
Ni 0.9205532067882177 8.319622240972757 11.192230195688833 0.620826282633576 -1.1656687535416699 -0.3765861375994353
Ni 8.21106448501207 6.492434967749998 7.364834164976638 -1.5667171379485276 0.2102164797905283 -0.07570176170868897
Ni 2.544500372676691 1.4360220212457788 8.03139981696515 1.9874925684706672 -2.190211711442886 -3.391281727301985
Ni 1.5912746871508108 8.17622475945774 7.337513269082538 1.323254751620676 1.7464596175199147 0.7950262351201792
Ni 4.591073695490497 8.276649523929516 9.099673832323017 -1.1868692988786849 -0.593007717759411 1.627491588923423
Ni 8.964092025352091 8.6386607000086 13.068454568738954 -2.7815034749524545 -1.9751674712464113 -0.46755716676236897
Ni 2.3117051231594177 3.9846168061136837 5.629871665264524 1.6225417011173153 1.1413319765685184 -1.470637326804119
Ni 1.6960916392458891 8.75163856003935 3.693053713977336 -2.2396517112415686 -0.44240200765298 -0.6986661737311903
Ni 5.193566449427636 3.177273165864307 12.926771157054894 0.9155266412007974 -0.21672239922984612 -0.15568569573249963
Ni 4.975362196082688 5.666722305533676 7.994300720319849 1.1329252405620616 1.9822747717151536 -2.1831918284816276
Ni 7.13693266857609 9.237524315867164 1.036534876490156 -0.7140912500370088 -0.7930788815858213 -0.6945022721614877
Ni 9.02105088222123 1.1428062754613406 0.7310210053604718 1.0804811638297327 2.7386956357583094 0.9929818952654833
Ni 5.164561261245786 8.385719081414106 5.105316047387145 1.1181372836196097 -1.6830078768231724 -2.3153025651076637
Ni 4.67651663353533 5.264595195462945 5.6749790599365495 -0.6022678029050983 0.3906415872512369 -1.708949793499915
Ni 5.286658493884238 1.7738854708789547 6.754652291054046 0.1674891161253309 1.4754815422702976 -0.865121192165052
Ni 7.317263609152309 6.124403144653377 4.976475131760118 -1.7196445542095997 -0.5331742905415462 -0.11166969516286575
Ni 3.2552438016601757 6.230764806802413 1.450096563153077 0.30370487605867696 0.1310226457681808 0.10151435189641873
Ni 2.9877856307513744 2.968541893452669 12.546691526085628 -2.072799457369288 -0.2955418806319104 -0.9741493359400126
Ni 3.16453396066028 7.325322156783199 5.711125275199167 -0.33696209544991 -0.7100476760952545 0.29480963045157615
Ni 0.9343355565527792 2.5081624644796667 5.198609090260406 -1.1572707592859617 -2.0689870256017335 -0.5524529362655002
Ni 8.010978005613245 2.022258097687347 9.502389048872121 -0.780333923215327 -1.0329008429476083 1.2312974472850728
Ni 8.222928974884338 4.407430003232297 8.716992388515877 -2.967937250501089 -1.3392423852981838 0.2755574670901835
Ni 6.611721944748117 5.1772539390385495 12.619419453180292 1.8424391556410333 0.574780653228423 0.25590164053246894
Ni 2.6220987891824485 0.5074809884917925 5.531266122573163 -0.6717732059950883 -0.6038135501256634 0.24956644234306052
P 1.4786318244811625 0.11806888937123228 13.196559420719788 2.833182391383985 1.2954752675145624 -0.3235440222717912
P 0.46781450929295637 1.789239516596007 2.7857487222723707 -0.3893886886807423 -0.34772396195210437 0.7015794907232434
P 8.00840038702923 0.1453153414073108 10.873520220176509 0.43992577819834555 0.7082481609926706 0.002285196489750903
P 6.996280304325637 6.575598062642905 0.6297717751611015 -0.7708403819025951 0.7705277357581827 0.3127497598697646
P 6.52070502283388 2.162501020718679 0.6239865568445612 1.0959070114664997 -1.7046172275628322 1.0818466767186916
P 8.848490019326066 7.384793493860581 4.751630486279603 2.1400057800124563 1.8866593018016733 -0.5861217892728551
P 8.510980178018494 5.733303031052167 10.405226478547537 -0.6136421061803109 0.9056178667275178 -0.7195784984038252
P 3.5930328074353297 1.825316871289954 0.7297080018146075 0.4486320477230919 -0.8645596632346272 0.5716423647097574
Ni 0.4301282367175075 7.19123015752094 9.082213955972163 -1.1520416496765384 0.24155128534806786 1.6659434651417178
Ni 0.4435420893848597 1.4900217347585394 11.408617088349814 0.32670133695385023 -0.1422352266545486 3.0662847746337514
Ni 0.8470110499964376 2.890152510955426 8.353419752514778 -2.8155001436128737 0.2672882851028558 -1.6915976753747126
Ni 8.986025047021844 3.5894129748390062 11.049252391423414 -1.9730843634651374 1.4939510618293947 -3.055127215355035
Ni 3.7064201086851987 4.39182470949442 3.327056999849393 0.41221005745063194 -1.0458334918488763 1.3913859000709585
Ni 7.573638950698074 8.607143031618508 6.034493575127219 -1.316174447735127 -0.05303440201816028 -0.09377970225632237
Ni 7.424862900440962 1.3584329102222736 2.7934164396486443 -0.15607393230985378 1.0498071317846436 -0.4152113061708011
Ni 7.785217700679056 2.647046787102096 12.438062117911594 -2.997789815086147 -2.040529027371357 2.780406385233534
Ni 5.312257875561578 2.6161246695761773 3.8226567486008625 0.39686777066660683 0.4447463395154405 0.009056453775313434
Ni 4.912019778388157 0.5177365604825582 13.018403171346039 -0.6315986906587315 1.0791547317088253 3.611709857518193
Ni 7.760902475552598 3.244337776459942 4.326606306577733 -1.8441106298061853 -1.2214506363979802 1.7268297591041295
Ni 5.005409598276848 6.339303951798595 3.0016042718967215 1.070686289226498 -0.1482294965647705 0.9845180807688464
Ni 2.2544205744114327 6.2671957698219645 3.6483818158747408 -1.6954065075978413 -1.130956546871465 0.7945973751128766
Ni 3.2959459810337437 1.2002769338543804 3.2005722323287653 -3.0679817027202 1.611775720850063 0.7520006234882726
Ni 1.9401093003599899 5.198312245376543 13.425953516473678 0.03051616631098615 -2.751776637311983 0.002778848296717795
Ni 0.8938632225908543 5.1507705365471965 8.325581471807423 2.53282457742067 0.6065962550771231 -0.8087626108696652
Ni 8.72165629622096 5.35402087991196 0.8087897121914551 -0.20773716501210032 -0.6458107204930555 -1.2704067545817088
Ni 6.287211862147649 3.4060856689774 10.693347472798589 0.048796966898045 0.07018725964836299 -1.268195605863003
Ni 6.213586886563821 4.084743795153371 1.6389997139805363 -0.012762184761674795 0.5579116453872262 0.35973667014226435
Ni 8.77046355063668 3.83910698012729 2.4390097036665135 1.2828966595186035 -1.56678604351325 -1.6710892710087153
Ni 0.1700297717224136 4.604036232268591 4.371741617696515 1.6291062417087105 2.3971852588160845 1.7233533705197546
Ni 8.992911103888886 6.467003084753208 2.701117222279978 -0.7532398952120124 -1.9968981780552835 3.975355632906876
Ni 6.957001863736742 8.085542834904603 3.1029884315887566 0.1772881044936237 -0.16818511375109102 0.91334814549224
Ni 5.154408980108026 7.683090032955026 1.1891103551510698 3.690360160332244 0.2048999526736213 1.603054024706349
P 3.6100432289933733 7.8472387398936965 3.5674678560423247 0.8689845317752002 1.6593138756403423 -0.30126207094513924
P 0.13490902060405036 7.941447442220628 1.5903236668645788 -0.49740304647920786 4.201526322033816 -0.9392723215571696
P 0.3640481461442148 3.3392071680268205 13.136906626738474 1.2960871900669484 0.647601236734575 0.7163875022703532
P 2.514248249872971 7.383239478324371 9.329598340565312 0.44428714049083484 -0.03530613150046178 1.0149987658562067
P 1.9076610837446188 4.623307886014055 2.1487233236952434 -2.0576230067391656 0.273386941801426 0.2889331170661411
P 2.7944084040567883 5.370044920351211 6.98787280111027 0.5496851437123759 3.4695116547491667 1.2340662682794619
P 0.7623646612324401 0.7214503168635091 6.576849650005902 -1.4044373339382779 0.27208673493276364 1.07756450440357
P 6.06522027752583 3.400055716477612 8.222209661106199 -0.3067740019023039 -0.5142100907342178 1.2454346580174036
Ni 1.482661098296607 4.509287811970998 11.083464927473907 3.4813004198539783 0.07389273352440823 -1.2224644223744754
Ni 4.459215011968901 1.9003376692116978 9.533959758511056 0.051562959678956355 0.44060429232260895 -0.808476189977498
Ni 1.5084279786544967 7.29011951742101 0.26831427527605484 -0.17218497893910348 -0.18699736136158762 -1.6706562972363552
Ni 3.624476031967402 3.9485394514197365 1.0505573076968389 0.6235377680274681 -0.9892733360656446 -0.39323094524496793
Ni 6.862058028311841 7.690525113274981 10.448795677003178 -0.07267917283228129 -0.41229258986210926 -2.3912465247341466
Ni 6.3354421766637 0.41304151020499125 8.340454424092009 0.20254353662630276 1.1920608703819535 0.961745562959021
Ni 8.602006405414983 8.961505101285825 8.12589233650079 -0.5497442790850854 0.000472825871360476 -0.381964114081897
Ni 8.789735204382145 0.8583330302533696 4.6690554978650685 -0.38170366133165873 -1.1282728293917148 -0.1627279472912617
Ni 2.958408223279414 8.581069070346276 1.446991323725331 -0.7178340049088928 2.882658643737242 2.6001486565886247
Ni 6.089619251992564 5.479226143622833 9.813077698682564 1.296248655345477 0.7841990625976882 1.00306421920215
Ni 3.8211660103439704 3.7216904050619766 7.691784145023779 0.7632371156340403 -3.276222803951913 -0.2926067092629864
Ni 0.9157590223315963 6.426198545074859 6.178438218998699 0.04375580492971174 -1.4682387446649552 -1.4827071134844594
Ni 6.66525638414824 4.316664329338885 6.344023692397195 1.1605332320873174 -0.979294884696694 0.7534990624106701
Ni 2.772354411117749 0.47055776546106975 10.779735847840303 0.9424270651360672 0.09620990896436979 0.4727572229060697
Ni 4.281042943275324 9.042025439218948 6.924038123404568 -0.3025807897565627 0.02285222200782516 2.417194612058476
Ni 9.33218898682448 5.86289117690409 12.35386611448863 -0.5885023736898897 1.3342755282112118 -1.651783114480936
Ni 0.809234514243137 0.715261240617199 9.441265058146648 -0.024617027217731798 -1.535729945538394 -1.6916249290682221
Ni 3.7853585146353534 7.759004157173035 13.289309023429487 -1.2260565106011079 -0.9158953373941259 -5.583334862828985
Ni 3.2606502868490286 5.182185844632511 9.351825415474254 -1.186902980330098 0.5490133144563318 1.3862336664460575
Ni 6.788926243287408 8.133670789115872 12.586813973914849 -1.4210793133703332 -0.47442226931331843 0.8109771020224807
Ni 5.042026670941454 0.5762447801467808 2.2853138449423676 2.659546538930968 -0.7649551267664115 -1.610666546946284
Ni 5.932142575829122 1.2998455939589024 11.313485282183409 1.9487576137943148 -1.364185942617399 -1.720474763420379
Ni 2.7598943703813053 6.33318094447628 11.425805244618886 1.0643652321044765 1.2374246432287335 0.29887660143209815
Ni 8.030705627989093 1.857374257650709 7.2533851956800195 0.15522238294283588 0.737777280800039 -2.1130667895297672
P 2.2086655181746164 2.4403161933748003 9.733907586224316 2.1292282297809786 1.1546042681973923 4.351504682968892
P 6.223515836127514 4.7577069661906535 3.769200475251663 -0.4892855595783961 -1.380011853906062 0.5817306021836949
P 3.6112157197572206 2.2861429634110886 5.176355029452933 0.5433278340357804 1.352849434558657 0.022559630468070826
P 4.647725471445295 8.625456220691936 11.327894821451805 0.27690601069827797 -0.9431490309037563 -0.6433329483765242
P 9.030719278281847 3.92828141655548 6.550891076713606 -0.22712945349578303 0.712763532364521 -0.3734079969817698
P 6.22788941278631 0.8086352411860592 4.606132757420138 1.6147574291862064 0.19205549261078536 -0.1445844436130155
P 4.883684584928506 4.908883830868978 11.551662822635677 -2.6610627184651783 0.19583552847850788 -0.7151713704750651
P 6.266963132765646 7.7226569434937575 7.843764072820515 0.6957659693652598 -1.6254046244874072 -0.8533532529958465
