# total energy = -381162.3905820375 ev
CRYSTAL
PRIMVEC
9.36892731046492 0.00000000000000 0.00000000000000

0.00000000000000 9.36892731046492 0.00000000000000

0.00000000000000 0.00000000000000 13.71237214455130

PRIMCOORD
 96 1
Ni 4.621017335966753 5.953250709016265 10.344627201762139 0.7971653929503689 -1.2049356694620927 0.5006727183694152
Ni 5.52008771844986 0.19185408513045973 3.581177882030619 -0.4238000762810766 0.1913687509564059 -0.4631811491818604
Ni 4.239374077310298 5.79782020303589 12.959960481766354 0.6714677589395275 -0.20561857600720074 -0.7949814979251728
Ni 0.8831572592517821 6.644827455818397 1.2218973885510374 1.0073029398738458 0.11755032231335884 0.5176358285863151
Ni 2.506356726875104 6.715750236425475 10.397310554458272 -1.0044911814566635 2.5961292510165865 -1.1560811098532346
Ni 5.280280652080138 0.6773893800024885 8.312591163631366 -1.101376262111187 -0.5708923739176104 0.4255206585166091
Ni 4.235551554920908 7.615054842094207 8.819181249105545 0.22493373139604486 0.36090857896317846 -1.6506168620869766
Ni 3.0443580153270062 2.6878328510969163 3.9792205112517536 -0.5875783192137235 0.39681172061769077 -0.8441510176712881
Ni 6.695429032840699 0.5420711505253124 1.2002917050162971 0.2892835584270244 -0.4277168948369795 -0.2722965369507246
Ni 7.610454698728542 1.416534982019458 10.971749475451395 -0.0385169251282756 1.6887897736122721 0.7015861755914627
Ni 2.006056002381311 1.82204089882733 9.883699394771813 0.058506737986641175 -0.437217378128247 0.8576320828768583
Ni 1.8482645266898416 2.305739883924063 7.762326886072911 -0.4698184519927199 1.8104057813545726 0.10759398243159535
Ni 4.254711011504987 3.568052951600968 7.394451266267461 0.3789885763933408 -1.5464211067036528 1.3866195890305668
Ni 1.7807239288831795 1.660736075351494 5.717593140603065 -0.0482619203301814 -0.7648196296298119 -0.5676612685748224
Ni 7.092137526796518 2.012173911989821 8.708590429781113 -0.5425387624755817 1.4133220380224176 -0.0062148705614602645
Ni 0.506572284512073 3.612630308289011 4.530691506662546 2.4888651411205847 -0.005124979931391174 -0.44455067856486663
Ni 1.3479263264863486 2.954191457789024 1.770432162106842 -0.32961491105621943 -0.8567774481860471 -0.0530966227146634
Ni 0.3149842769204827 3.079257269985047 11.014957094949908 -0.27238549712010507 1.6204621928804672 -0.8940838979459892
Ni 9.035899530729154 2.3348959860705927 13.060403815796793 -0.05304777175459897 0.08536396738880137 0.5803794874724392
Ni 3.2668419348879447 3.8829800780641586 12.020073430063588 -0.6374636340799408 0.037649949142289994 -0.807644695215138
Ni 5.62338951223766 4.636363639088866 0.7163397588790895 -0.14717945803370136 -0.4357775603579269 0.5638670916397127
Ni 5.407707433987256 2.418419974064266 1.8572858669073522 0.2640450955752098 -0.21684529796095556 -0.2559594903535979
Ni 5.636000088551679 3.968949356115751 11.296526155316466 -0.6035307287779218 -1.0496068428483794 0.4619151379852432
Ni 2.048778311439208 5.998184084946456 12.485512375609042 -1.5400812805285542 0.2533310515918153 0.37247571497548754
P 2.156642772882973 4.666231779719694 2.9499698190913293 -0.31624774572069403 -0.3681220659924821 -0.3430226998216931
Ni 8.503941200466361 8.226536628340206 1.5186038249581317 -1.544654244611217 -3.238221385007475 2.3920844472544096
P 9.175187374756293 0.7909239163238497 9.553381931227614 0.277995901328347 1.0733885186490095 0.3523072104474126
Ni 7.667370932835279 4.626601216712039 4.8067759969145225 2.0799142140371987 -0.8453779480998538 2.1926617156452752
P 7.737872111708234 8.437524873950697 13.347499606451345 -0.7918725199825459 -0.17616890328751597 -1.7928286917027576
P 6.582139962417872 3.0718932930290146 6.437382538560032 -0.19907614690299263 -0.9133975106729367 0.027404103044565704
P 2.554053936395664 8.389705868373612 0.95456722408496 -0.9132103343627949 0.11138121738816946 0.2835330290964923
Ni 0.6305484904485715 4.722342286067884 8.374598472900836 4.195321735885001 -1.6422363513327654 1.2351494740413116
Ni 3.3864269245403564 1.2636059796615517 1.6931075933902757 -1.5978573109967578 -0.074692089497252 0.7715317515426647
Ni 7.876785198638375 2.923564434036773 1.1484206383279096 -0.9552190746944129 1.1717612395926529 1.1744524132715708
Ni 9.296805421659924 4.839369558533277 2.6943985954363403 0.44797641641696395 -0.11358285302517859 -1.0111871054196004
Ni 1.2238348827425227 1.2956008668178496 3.5062124092396627 -1.124665828766747 -0.8380891277479243 -0.35587307342179997
Ni 8.441768998074211 8.498085620825751 8.312385047228016 -2.7024615931269396 1.0098838132271446 -0.728099905611275
Ni 0.6291440882275673 8.76854781773 0.001668605974388475 1.3771095926576025 0.21651953919042063 -0.80709267936641
Ni 2.7942732355720845 0.14927137309119495 7.982424539818707 1.2152679046260362 1.2603542554417133 -0.8789804666456474
Ni 4.345730141438643 4.2392897569634735 2.8383512284283756 0.6167919646632023 1.577283343500148 0.8427014297089551
Ni 0.5040445478928142 6.989866315025464 7.421369131652163 -0.10051007900162044 -0.9377427722865205 -1.786120940665279
Ni 6.465019000678231 0.7508024215191265 6.049158545280273 -0.3772422831261955 0.7281094186929719 0.07973248013463688
Ni 1.5629244730347298 8.241948513954293 5.191531613261554 -1.0081125802593347 0.9198180694872996 0.4740420031557642
Ni 9.025846671602153 3.595569491448127 6.618289968887148 -0.8701142745042691 0.2853369150744505 1.040484825942453
Ni 4.2378937867771524 7.450255408688854 3.6362746704314257 1.106362916692501 0.5488719037824612 0.10730164800215715
Ni 2.1033804204719764 4.515167193919359 6.574739446644883 0.46035987768298137 0.4604262121445425 -0.6333033320546642
Ni 4.223381318195862 1.8529489904023304 5.675098496481595 -0.08846240380846701 -0.669427331470731 1.8417081910122797
Ni 6.108746797488615 7.670921756329346 5.001889531896132 -0.09440036655945677 1.4463599423139928 -0.29442910718370585
Ni 7.702841692066245 8.572456166725221 11.007607171385011 1.9687150307528483 -1.372827677452797 0.7892361108009633
Ni 1.212095616679026 8.50926275124375 9.10412406023784 1.1528520613929758 0.6947275007984164 1.14732161849305
Ni 3.823937097431951 6.711609170503635 1.4962392583019681 -0.5604431535598284 -2.14579076212535 -0.5180749730062626
Ni 8.998255180335594 0.9152149182218273 1.4319281297786959 1.5761515438885503 2.469851319022243 0.8126238935972845
Ni 1.05082826891289 0.9939401415884275 11.960191930426847 0.0521946797256843 -0.19383341044681457 -1.1646824783690006
Ni 2.7516633536432873 6.068591574545161 4.403371530528073 0.0017738040709711388 -0.6168845243770086 0.9242079710248794
Ni 4.666784546437768 8.726069100785152 1.1377306921360106 0.8906198506567887 0.7594799625844533 0.46977859989371995
Ni 8.638638270055262 1.7692376238601573 5.13108704108657 -0.599232101402568 -1.6530771507020112 0.09757773584617388
P 8.257257341366707 2.646122386200917 3.307451550811509 0.39621599601522084 -0.4073190479069178 -1.3631449029473943
Ni 3.0667122761630026 4.436777378154573 0.8461190784626189 -0.2552534654255088 -0.028127097253519303 -0.3105067294718588
P 8.234912449458136 5.32709718242275 8.215589973536863 -4.2413118294618695 1.9379880339826363 -2.071889286850193
Ni 5.627689849925725 8.38228567785303 10.535860127004323 -1.7117903482725036 -0.4877866064353664 -1.2453382416488552
P 4.80045103400992 2.80028808697892 9.581725747366399 0.5745801071818427 -0.2696935521102387 -0.3047335744335074
P -0.0969215542113912 5.4685492486850595 11.742412149325991 -0.23327079050683053 -0.4531019105689874 -0.17025330913402936
P 6.375676908753646 2.1123464840176793 13.36198022067939 0.7104379695551377 0.4496951988802836 -0.7594426815886146
Ni 4.231410488999068 2.3627872830147503 13.470088274236204 1.371693306738038 -0.024348861158009678 0.049444884894689047
Ni 8.79755401703773 1.3469613269615759 7.356715100385137 1.2192551714085584 -0.7907939422063865 0.6487757166586504
Ni 2.741507436314612 7.470042583410406 6.956862394385496 0.2752034261848744 -2.058916271629293 0.2990015570457367
Ni 3.2892805160707654 9.183132225212672 10.524218297786044 -1.0985639894733725 -0.6035204443652767 -0.6052711085077963
Ni 4.952227658294555 1.2727968974654547 11.183289550887219 0.1622461225588367 1.996862439721342 -0.673702047586685
Ni 6.6777686046446165 6.702052864530159 9.103547871201203 0.1824670775914019 0.5370276028493655 -1.1154965035626532
Ni 0.5809287770204062 6.090683505413257 4.986230306598024 -0.8769243554475672 -0.5620575492347998 0.8367105022328429
Ni 7.760460595729856 5.78699909186004 1.1778718616883261 0.8393489682969544 0.3555753396757231 0.3932954799343162
Ni 6.762079582541988 6.160247791543715 11.48075205973751 0.4959346894637975 1.134297695429556 0.31960997732470764
Ni 5.757355805487411 2.525122688507334 4.207682743402571 0.7930207746543761 -0.01976407000080467 0.40049199768275545
Ni 2.3461574368354157 8.630637206034331 3.113736796694449 0.18234109353649885 0.37057746951151016 -0.9604155312936878
Ni 5.679678028206925 9.093855715780062 12.67219293901543 0.6456808797834106 0.23784066926570008 1.5837321844492853
Ni 3.041650395301188 0.32353248630303205 12.889753487214541 0.6746685252650122 -0.8930148332515265 0.8439440438668045
Ni 0.6932491003474903 4.59737016314611 13.807261918870003 -1.372672125711539 -0.8355794739521931 -0.5272322140254985
Ni 8.240515068058272 8.632998175745426 5.73788717429831 1.0344489041610183 -0.8364279379954175 0.5346642448235115
Ni 9.179525188154058 6.855244196855963 9.681881455324891 -0.7542835059851783 -2.747485209025481 1.8084203754934274
Ni 8.205222318448381 6.703083446546906 3.5301134799935223 0.06745726231170962 0.8346099109500723 0.5995709727992254
Ni 3.946220338182756 8.884675673162594 5.54014097071028 -0.06500417278552675 0.15479917936248824 0.0026148119150277553
Ni 0.6222241984314791 8.02523585368714 11.54343112110335 0.6207581483998018 -0.48338693470577393 -0.33004402817383804
Ni 7.558466520447342 4.5603722687448744 10.029777837396576 1.0694189924783 -1.1161256525062198 0.5437762344271087
Ni 2.1487635049185667 4.588123031777657 10.097036430487746 0.4260672750486985 -1.2486397952182624 -0.37229213820977175
Ni 4.592563903377097 5.4685867243947595 6.25259449849349 -0.7288779214278802 1.2967942434363022 -0.018101337586401086
Ni 7.049799343763044 6.133593193019654 6.2858335792118245 0.8913916958258067 0.2753129551795452 3.018657145453459
Ni 7.938104828634852 0.014203293976265739 3.486699744091662 -0.28004712743042093 0.2762272394636984 0.29941061955869724
Ni 7.501175529243606 4.468641100326921 13.033376333961218 0.9648779379404157 -0.8145082551041908 -1.5363747782112442
P 3.427584622718282 5.453202945562946 8.325686113493257 -0.5462586345293302 0.48100275074431353 0.2435660017852515
Ni 6.094384231746124 6.866786715443536 13.637091279371912 0.6734287393206403 0.9212946540328263 0.893535481641687
P 6.246563719910032 8.284979997617215 7.409754472323419 0.21741351175959978 -0.4686015488664833 -0.4654414059709468
Ni 6.822518533360518 4.189906140506419 2.9372721117522573 -1.5740003018735023 1.007017290312627 -3.1831193018270083
P 5.72522038441974 5.528435432785514 4.497274416323137 -0.43849341662719316 0.6385167579348036 -1.6611378162229584
P 2.0999139173247348 2.5882130457871315 13.336378689597897 -1.6152605940748697 -0.2811606722095738 0.26062655681196406
P 3.973362120932915 7.674763016573587 11.99077023575649 0.05611612626727755 0.2707788147546175 -0.4944537340428968
Ni 6.275298220322438 7.208462129705037 2.4569140861752707 -0.7089590710167661 0.46972049296227486 -0.41898208606714293
