# total energy = -340868.5454731169 ev
CRYSTAL
PRIMVEC
9.24557866353994 0.00000000000000 0.00000000000000

0.00000000000000 9.24557866353994 0.00000000000000

0.00000000000000 0.00000000000000 13.53183893150426

PRIMCOORD
 96 1
Ni 5.473992895453967 6.1588221674594035 6.843510906666113 1.7966655489503447 -0.5049368929624078 -0.219303529693461
Ni 2.5407682819260176 2.2501057736122787 11.194985128480454 0.8806745665186188 -0.9185446020915148 0.9296353126880377
Ni 3.324543738929661 1.8104692530694142 2.4365835519436967 -0.2951454165244401 -0.28972578817076555 -2.218012278594922
Ni 6.2641015739791746 5.3244086750198445 10.648813651808142 -1.9927414755744322 2.2856001529472247 1.6092447268980932
Ni 4.435871563912792 4.562767133815649 0.7468800499905763 0.17136274014812425 1.439755292513282 1.7460436130284187
Ni 0.8731349012781874 9.05023827336617 12.32750566933472 1.4109357971784282 0.3962535341213756 0.21900810994022923
Ni 6.611522690936529 0.5417280514704668 5.17783666417948 -0.6711759387307216 1.0058782916121773 0.7889959697656992
Ni 6.617005319202643 7.441183955840201 12.232944662391516 -0.1953364773549023 -0.5680312503197315 -0.8642999818153373
Ni 1.6721738844277418 7.656319330417222 8.780837822765045 -1.8391442869398456 0.19771474777909173 0.10752739085971803
Ni 9.254269707728012 2.9142064578055322 4.179105196828769 -2.1570881894160396 -0.9519699716294959 -0.49426784328433576
Ni 3.255543983870642 5.277025083343913 12.227992730352174 0.42948144293657003 0.2923889368252255 0.4613530948341861
Ni 3.4551652771145482 8.54109349092679 3.4725950423882 0.8631954358972489 1.0286852622043638 0.8257072091438038
Ni 6.932020682243094 2.0866162025673067 7.206814078995355 0.7666525690734926 -1.5290656461443408 -0.47275825134733424
Ni 4.316474158468309 0.3533549294720117 11.239424003288327 -0.2961378623446964 0.869312090317948 -0.565903148233135
Ni 5.705761066406597 0.8475172513629349 2.3457309466826817 1.0130308434965587 -0.6290625545004392 -0.26821722467502845
Ni 8.770448565796022 7.523765466249842 10.266403566199394 -0.015049695244270855 -0.5412884350082484 0.05021313051928126
Ni 8.77725331183963 3.9339753153024697 0.9823529243938497 1.3078702987448056 0.024929416251828034 -0.11474936252945399
Ni 0.6668567912524919 1.6840636988463267 1.0880354381520727 -0.6202446990984932 -0.8854840720921201 -0.06564694857584823
Ni 5.017252054013449 6.484728822401171 4.354640832575122 0.19413525795794953 0.35514853655094963 -1.0729943685343843
Ni 4.271623855401004 7.24162738164834 10.828516269948317 -0.060487001641463575 -0.1717939141482719 0.8193871804630469
Ni 6.016726865904793 5.280085369947763 2.5258265019245596 0.26607652418294175 -0.3794038095538885 -0.49063616006901956
Ni 0.7458972449573761 4.894738888491936 3.9386988815438815 1.2046286797446353 1.9696822797621236 -1.1424136396684712
Ni 8.024838858341305 0.12245029558524122 11.41418763319957 -1.1505558091596313 1.4658599600201336 -0.6253588803966069
Ni 8.000957528136635 6.064822367153221 8.523746011305025 -0.8857910618095778 0.016432948745042666 -0.3555498857544263
P 6.316745900028491 7.439075963859302 10.076862727590465 0.4166066438564309 0.06801596302865706 -1.164227393109453
P 2.990149642591112 0.47310644058696916 5.0970247575643315 -2.354449667620771 -0.36300299959836196 -0.5529887541643121
P 4.467870512359698 3.4862581588328223 12.56452902731342 0.19346008626779584 -1.7690763264781662 -2.5567705467133064
P 3.8680173556895743 5.241965848293156 5.740273887746516 0.38046438960791895 -2.2083295040895194 0.20340485618533358
P 5.319203414119639 2.939899921467467 1.9927929928174184 -0.31278729797591937 0.3779948450215038 1.3953644251027324
P 5.8494466075257465 8.014067758965215 3.037748656254564 0.7020096362821265 0.09353030524967762 0.12115218073200423
P 2.8242654666204685 0.7758889782329959 -0.11092937976331396 -0.1887994475673329 -0.898496168081072 0.0075888680908514465
P 1.2314556311578366 4.552153209280242 12.350550274652234 -0.10473697259877446 1.2652763753336789 0.9730190789903114
Ni 6.223837078028213 2.4060879346200106 11.302576854274008 -0.3811961255676209 0.5442603731523789 -0.5476876536663728
Ni 4.067213352305755 7.811127302909277 5.93630974550712 0.44961395202038695 2.3368936610148787 -0.01941080042644399
Ni 7.8919059254405175 4.532312197038964 12.290482673333335 0.8170544185648122 0.45513668161082904 -0.9929299589816254
Ni 0.5961687934929805 1.2465166791266349 7.325975722178815 0.3002657684701409 0.7107254188885694 -0.13092262985520678
Ni 2.83568375651701 7.5561342378512935 13.254571881240036 0.8767014408034836 0.0008170965846566573 -0.4419957733534968
Ni 8.685047153832985 3.2565609975456375 8.284516658209473 -0.47948888520294836 0.40817368259772924 0.8613504122687102
Ni 8.084260193697636 0.24969997115857526 3.4702808739986413 -1.2939516317811843 -0.2135565999073548 -1.1272667567247037
Ni 2.3764835910987756 2.908455707752376 0.12040979633004555 1.0452783906763548 1.0526237752978322 -0.3344694109350433
Ni 2.5954096530098707 6.4622065922894505 4.645222904352747 -1.657144378792849 0.6641632548583142 -1.0328039123584278
Ni 3.0973798662511007 6.37098971122121 7.507044836875028 -0.4545023904609399 -0.8907990565471303 -2.9408414227255606
Ni 1.8234130634784491 6.897922987394151 11.224809516778642 -0.8904473296346664 -0.3731375169292025 -0.7946050884223607
Ni 6.818854796952675 5.164626581099173 4.814290333126126 1.4126018720269413 -1.2533174031995897 0.8563856120642671
Ni 4.777652877763353 5.754929054803203 8.952665056829208 0.43615628385358435 1.0282908549794225 0.7898094668059301
Ni 4.032616396198178 4.335982329870498 3.479076193171581 -0.36502568645534555 -0.44694823226276575 0.3534608644358816
Ni 2.507197585072299 0.7132779181687221 8.477481134671589 0.9342920947337586 0.7444366950980856 0.8371151938704293
Ni 0.9826016304652804 6.206113303346698 0.34306182652317 -1.3865511976864766 0.4873806292461993 -0.6284766000899821
Ni 6.033045312599041 0.567946664011853 12.816302781811096 -0.24152840252993243 -0.502857898946192 1.172249234972665
Ni 6.994696461359412 7.423534145789596 5.417728925279553 1.4789497033245562 0.5285139089513995 -0.17208907679118748
Ni 4.162156201656025 3.9687386918295915 10.268866588408654 -0.5794508050105827 -1.049384185314612 1.9101357876570588
Ni 1.5975065895253386 3.172102634626686 9.289052499970749 1.5159800166049762 -1.7886403646530227 -1.1369145642271128
Ni 6.152451963622386 3.5833829647949007 8.833111401101933 -1.5676522481682873 0.6207005556889891 -1.7789784160832265
Ni 0.7045972441736917 0.8779213374558712 9.864507498577728 -0.5861099621983131 -0.021330386046660037 1.1396152509877275
Ni 7.397738980760162 5.855641145364356 0.6747109104971168 0.289160916806231 -0.589334896893514 -1.0193171907259024
Ni 1.1997248044979743 1.0801239963184934 3.6493880768600007 1.097532977105697 -1.588996003951386 -0.6133993940418856
P 8.719597882046243 1.3771936907847042 5.473033204367926 -1.0013238394722757 -1.6142198115151813 0.16414719623629148
P 1.6760940098659067 3.071094685541897 2.6310226982345575 -0.7927801193984798 0.7126529749285855 -0.2449333144464233
P 1.8951587554599558 3.239687816119574 6.939776798351764 -1.5669120275681532 -0.3887189163072273 1.1530317815039497
P 4.735400582356719 2.0290254918259656 9.170310606067696 -1.3162600654703978 -0.9102054860982002 0.30542622962515786
P 7.122525834727494 4.593018667857336 7.061265553735191 0.16726131638524097 -0.7290730681578217 -1.3290371626304078
P 2.4499674519066383 8.87350903338853 10.326417543160881 0.5609591739642985 -0.029528091366103987 1.834625316023569
P 2.5422105922287384 5.72520451875674 9.365412660363075 1.858050379815729 -0.6114898357239985 3.6747741329685297
P 0.01077942039706685 6.976159075737901 6.628504045635297 -0.019739901631088585 0.2717908009588997 0.2155258078185837
Ni 3.7775031386149673 1.265017082432691 6.769817171218047 1.9324776456873687 1.2741628791900315 0.4646690465812965
Ni 4.18504825492229 8.174423078775428 8.453217962059853 0.30312740628865215 0.30006985040925094 0.016362243408107303
Ni 2.3643533916297375 2.818708873723447 4.903573039096103 0.8472222003974442 0.3484739527442514 -0.08816492717270623
Ni 3.6532148219516434 3.892508894099241 8.004218443801825 -0.15456186654070156 -0.6216040413398649 -1.4076951787539433
Ni 2.2352943562727976 4.995201348423772 1.7810331790834968 0.15448087679112105 -0.7536345595472698 0.6425528756773901
Ni 8.112440718073879 6.778950878577394 2.822876780675156 0.3360238999063568 0.22926501178154707 0.5420695361486471
Ni 9.250294108816666 4.262757345270815 6.068907988453044 -0.45636181226718175 0.6503780281487638 1.0202502440631331
Ni 0.3316453857424014 8.31719330758708 4.454992345560594 1.3345673484200178 -2.5511323745909227 1.1957396047851214
Ni 6.07052688931206 0.17722850123627618 9.124302756526667 0.41311097199834657 0.552438538087797 0.4086102559145156
Ni 6.527868693378712 3.2597877045690327 0.22952426896243558 -0.33749020003923813 -0.6506117414261247 -0.3870258448755205
Ni 1.0150628578553669 5.175628819946853 8.179577488991884 -0.9311836310117639 0.51397483479496 -4.229420220230606
Ni 5.313360208277846 3.2448376035465976 6.10394226044087 -0.9622433285310462 1.3908806782997658 -0.7620649497028101
Ni 4.559799303000435 1.538418095008095 4.198631859388684 0.8341039178479313 0.7953082851369723 2.3874240656642627
Ni 0.2700846234370322 2.804932961216689 11.94521762536697 -0.8312098841295877 -2.2560232106210565 -0.2113012282142748
Ni 1.8655174296232664 8.274756100603174 6.475594190483938 -0.8543508410224254 0.6085942593437583 0.13042383584191733
Ni 6.513454835930364 2.9600552833901066 3.9391454430029933 -0.898770504788381 0.2055789810185169 0.9422182915593708
Ni 2.0916550430479663 8.652964995176305 1.6671498368732636 -1.262121117534149 0.10174035186429575 -0.32635038137233474
Ni 8.006199771352295 9.04617021866619 7.416977181259534 -0.1523815710599311 -1.3950173261759589 -0.33360089228716094
Ni 6.711827976027685 7.955552490337514 0.9769082030010778 -0.452795177961846 1.8133777194987029 1.551231897828735
Ni 8.924174805561037 8.592184559727023 0.9827948630635296 0.4011437723341414 -0.18062513928665666 -0.11837641775907999
Ni 3.882690089346102 6.798246401665719 2.2194113763430257 0.18721256269618727 -2.067758809621587 -1.6236614165440555
Ni 7.749006258524774 2.134332635082327 2.3191406618709793 1.0077505689342259 0.35336959027365594 -2.6011297895549723
Ni 4.473195965785129 8.752281003329056 0.8821271512809211 -0.853866188076523 0.8518980086065586 0.1760974266196322
Ni 0.48066562586584544 4.803494270687105 10.258108432842974 -1.9084077492223586 0.9324023339102135 2.9550056300410854
P 5.870868613752699 8.580747778672755 6.928206880961859 -0.13095168332092932 0.41010329552027436 0.3499957887054166
P 7.851798604330237 1.5779706813865597 13.049402316120085 1.3650989413499717 0.7265860400699099 0.9650139492976477
P 8.760528059675384 7.171961944911143 12.462891454308018 0.5593861730502238 0.47702988213949454 0.7481352269955954
P 5.039006901079492 6.767329185945853 13.567157506155134 -1.3872106856473463 -0.8541785771106193 0.18343381238004539
P 8.010804069626365 1.2372526091053115 9.162435221991684 -0.009032285405597347 -0.03970143235468001 -0.4115721667563169
P 8.036543761182617 4.436056475490063 2.9714430628763977 -0.5465291145818976 0.39237759610573714 -0.048611076139484025
P 7.576613195034159 3.997030163152196 10.141395943500482 4.94651169054652 -1.3020292665829964 1.618137915622665
P 1.2198246929474326 6.716765115140846 2.859927513413132 -0.010121661815034181 1.6350364911502164 -0.7435172686076098
