# total energy = -340897.0764671926 ev
CRYSTAL
PRIMVEC
9.01429742536762 0.00000000000000 0.00000000000000

0.00000000000000 9.01429742536762 0.00000000000000

0.00000000000000 0.00000000000000 13.19333546117898

PRIMCOORD
 96 1
Ni 6.3603168341481755 1.7502339733522843 11.232884310882579 0.04283123623291333 0.6069456679967419 0.9547187380192268
Ni 4.747830336341035 0.3422972033658197 6.038642539921298 -1.229322325836573 -0.23107918217215043 -0.5292546437721659
Ni 2.8078093496959386 1.4612716622420732 4.6514557806643255 -0.2190209654560357 0.20845270302188618 1.2714696486285844
Ni 3.7229588302465646 4.3864922329952405 5.118644268905668 -1.2894228906728955 0.1776891965867843 -0.3248629981935308
Ni 5.0136980180194906 4.535552651529008 2.7148187611888943 0.17861376528358272 -0.7617921556573977 -0.8814217290972886
Ni 7.266848646573602 6.023443533408853 2.5638743545398897 0.4692664361439918 0.0823254376727937 0.11933081125254932
Ni 5.0915905601427545 4.564470516953314 11.475259832622665 -0.0787120092899225 -0.2072975063715204 -0.44832120135089243
Ni 5.413121527044119 7.906701490572387 12.426828876729177 0.5583063097224837 -0.21035120559617967 0.2387752652648275
Ni 1.6161192595795826 6.525738202103738 0.4404638013263048 1.8599923340334483 0.32113464149935017 -0.7476510882703253
Ni 2.8762909655402202 1.6202928791841504 0.34977816861383454 -0.504773113691034 -0.852894568191873 0.4792983664586971
Ni 0.4990936917584212 9.318439589688973 4.826939808586581 0.9373861602780502 -0.28350500407203433 0.5320872281249546
Ni 8.609176657234093 2.2845834828978013 1.3042984936243105 -0.14458932870902197 0.505931138554877 0.14994107993923855
Ni 6.795238645554635 0.5618746660521003 4.837481127734706 0.4444594044026409 1.2356528960402913 -1.1955298027671604
Ni 0.8783035407370811 7.363490926877215 2.602055311769064 -0.3440665677051752 0.11049495812847421 0.3909444632036364
Ni 7.619073295448085 3.9340376135307142 3.809060692831772 0.37357409024598887 -0.35906021290053003 0.18851739755053984
Ni 7.655112455662042 3.866304184354207 12.660483065926242 -0.01814041835445263 -0.4106159734906347 -0.9897523325845923
Ni 7.951268175939521 8.824753574822086 6.79245683343807 -0.2907102635712219 -0.19981791016502362 0.7654945442096494
Ni 6.835947211719276 0.6727460144892118 0.43987066057040725 0.34605685866232655 -0.22123159995410932 -0.6506937596169697
Ni 1.8790302517757524 6.4967662508962185 9.13688623546055 -0.02625610548305156 -0.7737585839906546 -0.2964165699273798
Ni 0.2031876675134398 4.827417566338292 1.2713674630856338 -1.3059607404269187 -0.9567676501284554 0.4853072916569383
Ni 6.437217803579209 1.9883195910538969 6.879360968474264 -0.034845132703643214 0.5264544553192094 0.617035448132576
Ni 3.52833113935623 4.182282344179083 0.30846834882581464 -1.841983041940221 1.4880202981672568 0.6825988358556825
Ni 5.92580066611581 5.675293346869717 4.620305975252782 0.17253104942461256 0.4014412489699022 1.232667331049406
Ni 5.394570103402216 2.8972762494266866 9.187429399872672 -0.4292425874528865 -0.012694821858849107 0.05543915480491097
P 0.1455971255487244 5.555835880347614 12.35930548067748 0.4573522012049091 -0.5165647070093232 -0.2521750836105012
P 3.939527320526788 6.174658368973921 12.68103836783617 -0.36433097438116613 -0.2053046443112077 -0.1490172825733885
P 2.3120951179585814 8.422806062580872 1.347580641640148 0.9284546621163753 1.1187672038941248 0.1473352668852753
P 6.304716649005681 7.656085999759869 5.686974073184185 -0.4592789859139768 -0.5653025385346586 0.598260481517918
P 4.7942449526346 1.0695373487308288 12.61161475793427 -0.26253148714416075 -0.17355254871059142 -0.9263003347775337
P 3.9355069439746555 6.042797229501741 8.398072633917778 0.06721275040107133 1.0298278604492395 -1.480849234340114
P 4.7849692408136475 1.0282608818424568 3.723119284736762 0.12961085302231873 -0.8138138001403273 0.32123234341947904
P 0.2430047196847935 5.647403111326449 3.6882628003157185 -0.4699063837208359 -1.2075227134629785 -0.5138233968187603
Ni 1.300591814614811 1.113229647269361 2.569296454306947 0.6156946178339654 -0.5202766086432717 -0.3425097647410166
Ni 2.013532580328144 6.22523759057485 4.942882600629589 -0.0413281693248256 0.8468933563031158 -1.3127913901955068
Ni 5.998203501243 5.664449147335602 9.244385335314359 0.10357509108018938 0.15836349967497887 0.10416053127001415
Ni 8.415946182410082 2.2270452238568583 10.102532907507568 0.8328042251999012 0.3811318479885888 0.14631608159214157
Ni 2.254439673054011 5.152698480875725 7.055201962565722 0.12001523891408364 -0.6400337087999624 0.6566093537704563
Ni 0.6447331845039955 0.11363783624843295 9.11363926440608 -0.35963434023644514 0.23472757755801513 -0.5371708132954491
Ni 1.3869487818108375 0.9092811730720649 11.351506152054046 -0.13701177347208016 1.15209667128419 -0.3230375149490179
Ni 4.15350870751001 6.898785877515048 1.6571622561704207 -0.3868211850638822 -0.2182743170979983 -0.7284650022601776
Ni 5.48798526530748 7.83659730123173 7.8718161604002965 -0.09815443428525031 -0.13036572891047227 0.7717790916667805
Ni 5.281143201708312 2.8222592681108902 4.855463749223156 0.7383393239510961 -0.5362935528968182 -0.37430582620569086
Ni 0.8393167053380399 7.450650166524227 6.867988531124106 -0.47001874092898405 -0.6768737604464472 0.5649227865977366
Ni 4.966174643170071 4.561243398554966 7.223667458686429 1.0204708447143718 -0.03011841665193523 -0.37173935103009526
Ni 8.07221300149997 7.4341630169416035 8.972443820181136 -0.3466037323047321 -1.0110680633432327 0.25265150902628747
Ni 4.458381253181911 0.2721596611255146 10.357150746277814 0.010020874571111773 0.11536257063342067 -0.3063484843291111
Ni 8.34613045057989 7.364653771216284 4.787888070247686 -0.914980024668708 -1.2546219809436263 -0.31966525604267526
Ni 7.184728399062559 6.137294107071256 7.04514831689623 -0.07212587143197256 -0.5389132499078525 -0.7464439553361015
Ni 2.1785302763152075 5.144513499016228 2.497142413782534 1.2932731176569212 0.3467909086148737 0.5574506465904077
Ni 2.3509647674939953 5.145640286166488 11.48545770704739 -0.7386118608861925 -0.16215819083072075 -0.03436125108868921
Ni 1.1115620022869745 3.297465973713492 3.7487280016581805 -0.4127451040184957 0.1017704337712828 0.2524075113362814
Ni 3.6009413033190687 2.526238762291442 2.6364502641733605 0.23788823467418385 0.8470674199871346 -0.26782744543577747
Ni 0.9336558327065174 3.2815917963406105 8.465860148877496 0.47629043287030876 0.39342274954079987 -1.2049269277113444
Ni 3.6274523513904167 2.6264777471786878 7.091285292835969 -0.21847923401995276 0.30203314478320886 -0.7444068703014148
Ni 4.06230204841926 6.836884698628293 6.089238888686912 0.4247411000381073 -0.0007762160443922115 -0.03638110973219541
Ni 0.8344426748408696 7.246034634333976 11.107336785170745 -0.18655461739721418 -0.18948387522886723 1.060642788947567
P 0.13525862808764685 5.583491744163627 8.024120824497096 0.4289003736221194 0.3621126265736086 -0.22752514627230497
P 8.443556974740085 1.5980365793921891 7.855839220039312 0.2892804731032308 0.4973503388644015 1.1915209387180834
P 1.6702951857641462 3.1206234912028816 10.510048551130511 -0.2268746571724996 0.4462751174551411 -0.257807085085298
P 3.861688864186737 6.070741550828222 3.7254017047883314 0.3031664870567036 0.681162103409156 0.14897434515059507
P 6.9502845574305905 3.9624596926089057 10.434397864721406 -0.478374311982531 0.05230549427193572 -0.30211490586373774
P 6.1973653836259865 7.741739851774131 10.29982522465084 0.38125757493317564 0.4930049174115122 -1.13540121290638
P 2.3745281403802596 8.313192208603454 5.663780286483206 0.6009346859159715 1.3263210492508255 0.04679536308698392
P 6.880054167929104 3.9952176486413027 1.5513515341825628 0.5971736762116425 -0.18796255348833435 0.7045234038429158
Ni 5.256561213238212 2.9197128351626898 0.42852887183073707 1.7289041251346549 -0.9409414817294762 0.15483671746864303
Ni 1.5770242526141163 1.1459335175185452 7.038090122186993 -0.5240748993434393 0.3607946790931335 -0.8930035203976169
Ni 6.774686047933869 0.6189622102329392 9.050588762626058 -0.2928154828396828 -0.11872068847237617 0.21120815427983625
Ni 2.7577078858467203 1.8085204190610011 9.190846719941984 0.4813421363616033 -1.6706079604969226 0.13073879597917484
Ni 6.423173528538353 2.03667228124591 2.5532266666847803 0.17365513572672672 -0.03363414311467756 0.4854098786730737
Ni 4.090760184686259 6.769376626881837 10.45950448528867 0.01358905153834434 0.4030096218982866 0.3859246413915418
Ni 8.114120469192487 6.989929436525385 0.43287466451186485 0.35766590365616463 0.8956926371940057 -0.07311600325938375
Ni 7.62931353706966 3.9002700562116837 8.22275897621264 -0.5631512965196108 -0.049025795079399435 -0.47963055298713525
Ni 3.0382869005589876 8.452742543589014 12.372538468970149 0.031287240149055796 -0.686108648781154 0.22595600201297217
Ni 0.02756391798455215 5.025047018196923 10.163274847774133 -0.13637054034365545 -0.865279057899155 0.32968458795189026
Ni 8.741353297108345 2.4640040544082096 5.881535959704944 -0.20983209986791604 0.7367377837919312 -0.5733837728808965
Ni 3.584967968676964 2.6937424329006863 11.437473701610942 0.4795616474224128 -0.4802920978305342 -0.1918765438307599
Ni 1.1357022901941725 3.0484550278029454 12.624781941857362 -0.6622110162279499 0.739920552395287 -0.17774010442937774
Ni 2.878391296788307 8.3802315368954 7.958457077958189 1.5103744974927407 0.2305683039740029 -0.048437783786413356
Ni 5.773450029103279 7.890043069342923 3.4337233859311307 -1.1485958572197832 0.17049884948593216 0.3743379649952069
Ni 3.0632114323227673 8.350989156771819 3.4618128374425643 0.5227368972583061 -0.43409940132455566 0.397268091428819
Ni 3.229984944858643 4.238252115506863 9.298359341241596 0.3593453482411166 -0.2982605651146541 0.15251655397589864
Ni 7.153385687690891 6.177533929781388 11.408751446435922 0.49894982214103745 -0.6548941708515625 -0.03083498310298561
Ni 0.556457073433644 -0.09850914125416455 0.2092660081168094 -0.5764523845038911 0.4339147961175753 0.1943417175418008
Ni 4.6647816162181766 0.4331306705524043 1.5683705273001096 -0.35659195386569553 -0.9452992444775398 0.25328811416902186
Ni 6.063773499091006 5.589801752205091 0.3230688060040406 -1.3103853518571755 0.534587368838989 0.5212042626638638
Ni 8.071122271538517 8.623536432677023 11.21486292791616 -1.153326687036549 1.295574512096588 0.4216292938820029
Ni 0.12100612278142166 5.0032414332650665 5.80932873482704 -0.9171798605335044 -0.9918385256896597 0.12543023928206787
Ni 8.042042148764573 8.75465839977863 2.5436615959236426 -0.6748433602799797 0.7138212842050738 -0.13121907804970304
P 8.377770633759228 1.686818392535578 3.702234960978959 -0.17666306931511508 0.6971067996638703 -1.2088429749362986
P 1.8540876914175684 3.188221705921358 1.5291736587762599 -0.7634744284558271 -0.04457161596278776 0.22838132362501315
P 4.705228767763956 1.034291446670655 8.100364651662098 0.27268040265270455 -0.3030070786607039 0.8960441069961536
P 8.38579335826909 1.6216991095476767 12.30795643809549 0.03934199213273225 -0.7979503507455097 0.3869957629685335
P 6.283271635961909 7.679442043810484 1.3452711786969722 0.3972549788026965 0.2473177555181999 0.08484023367484743
P 1.8578105961620317 3.258515195503259 5.855069983119608 0.27690241115385217 -0.2826444558439519 0.42444979404993355
P 6.827906458615011 4.076499566512552 5.971857414810451 0.14492100101682784 -0.015661360686340768 0.20875017965764694
P 2.372608095076215 8.382620325653953 10.13394593039741 1.1393925934539602 0.662111514535608 0.48493936679455835
