# total energy = -340895.4217908318 ev
CRYSTAL
PRIMVEC
9.05224728548486 0.00000000000000 0.00000000000000
0.00000000000000 9.05224728548486 0.00000000000000
0.00000000000000 0.00000000000000 13.24887891749127
PRIMCOORD
 96 1
Ni 6.3613942635844625 2.0291879291434802 11.383105736981273 -0.1991774483675473 0.12663968620913674 0.7280112025522107
Ni 4.4625224843488605 0.21091283236861635 5.937683920991519 0.8839596650277937 0.22560813175525016 -0.1515063675438294
Ni 2.56953466575789 1.4753623965292901 4.870977074827345 0.2293064065424438 -0.7791273045017356 0.7764942377542626
Ni 3.453377972558764 4.428802863731547 4.8157420731944 -0.5024344382555282 -0.33100510653552667 0.03735967159538082
Ni 4.919461815763827 4.412228199207976 2.6223509069535353 0.3100408455790338 0.15960997048757028 -0.312088729246998
Ni 7.323648135160416 6.137975751784217 2.70671966079984 -0.11390475514097156 -0.4897460441545824 -0.9486121109008566
Ni 5.070860649273778 4.696332975872241 11.482949307322961 -0.4131819344455981 -0.23175743918609765 -0.230594529226248
Ni 5.524984731826467 7.961424207802784 12.344430848000089 0.31606648294782336 0.13460239269963914 0.08036599995357772
Ni 1.8327360615899397 6.510819707216676 0.3069861417741657 -0.21176017012856432 -0.022540861414993438 0.2984639393747118
Ni 2.7812124130103086 1.4007899845439402 0.3674605840549777 -0.3068202817592071 1.015450765791961 0.17568605011382646
Ni 0.6862318463879838 -0.3433698387264257 4.57086339908611 -0.01725055955033158 1.7895870448370084 0.3272960331150557
Ni 8.730539334280483 2.3864348627440912 1.5678727414583364 -0.6307443130782363 0.7218420976270213 -0.8677072077246734
Ni 6.959376657774828 0.5946330627464984 4.959147772474798 0.15673753403578167 0.8466110491760065 -0.3544291418864219
Ni 0.65774442462082 7.446387554207437 2.4157080195634926 0.46185060329589495 -0.7637197116974137 -0.19925869522744394
Ni 7.622444708941968 3.85445588683831 3.852879890610263 0.7865135696634777 -0.3685488691172556 -0.045332405388212246
Ni 7.690517607476787 3.904324716363352 12.486829937397898 -0.10796833505187858 -0.7190334245336326 1.0094099589145196
Ni 8.118281546341525 8.725234717453167 7.200871601900097 -0.6892227689301034 0.9058639213000529 -0.39745166819453487
Ni 6.788334447958952 0.803577936585664 0.47843932361045155 0.2595001565170047 -0.5509534689018382 -0.5849185129933733
Ni 1.655275808547842 6.701650129292807 9.175762342214915 0.9955571121918274 -0.06915187640531317 -0.34321321856594444
Ni 9.280454296127777 4.892223604102754 1.2879066521890348 -0.9417992017440814 -0.420803712656914 0.4066132800891449
Ni 6.340863767058271 1.8730728748706778 7.055637348696292 1.3864113296745026 0.4992503841005918 -0.7677298612980713
Ni 3.4908723802357873 4.524503220554698 0.30465428290946245 0.06380912403616107 -0.20465955452804108 0.08055291915340321
Ni 5.8419582178763605 5.449498042879413 4.7627864273927125 0.9005131985111008 0.4311171787677801 0.3923086905410147
Ni 5.361428730399992 2.7834030568195405 9.268584084445768 0.13626795332752015 0.1762208395713739 -0.1042939715240849
P 0.17700039888710184 5.587046938256615 12.420585592786487 0.7891124407389055 -0.6543730082407698 -0.3528389145811665
P 3.9815584890095046 6.3643271916596325 12.514757930291463 -0.35656367173092135 -0.2708844870945464 0.036682443022698116
P 2.3835562481517947 8.464104544044405 1.3895552406115517 -0.2227837749325776 0.2605741063074738 0.364260783264863
P 6.535966849787117 7.734095125235645 5.859687949135707 -1.7386933433109346 0.32678978290259847 0.038161084450753634
P 4.658141545165007 0.9665174799815248 12.475528206836632 0.22558859137122442 1.1452601079783309 1.2068526839791471
P 3.927534678044638 6.258696519717772 8.173219634268095 0.271673558654745 -0.8442872861388362 -0.09860566289005598
P 4.727427444817334 0.9312861340908981 3.76341019549742 0.8632391446509907 -0.4152177339287043 0.9993626019808465
P 0.345377627143317 5.572355141139327 3.5778201192938703 -0.20776904669130025 -0.14226119479647756 -0.9556924147864057
Ni 1.384314894738971 1.0600181407482983 2.5202153076345857 0.9320884022142206 -0.6349614364833774 -0.07478876297611635
Ni 1.9855832546431849 6.531105793069937 4.861781802176858 0.4887713389461389 -0.553052260412396 -1.2609710630901056
Ni 5.967015012192651 5.522540625097158 8.993881876891626 -0.6864153813882952 1.6311775224154423 1.2628461686256316
Ni 8.67129237671261 2.4468224034523054 10.386723083217026 -0.20022748689861647 0.48716259969812237 -0.33233282420801474
Ni 2.4760702139796993 5.148112526414222 6.955316724930032 -1.1425833324771162 0.1904377545017043 0.7470535638956425
Ni 0.22645191981873186 -0.024919931167087874 9.450001074715203 1.371306355712264 0.343444360740144 -0.21561631064986092
Ni 1.5159526727301047 1.1648703194356382 11.324943238621444 -0.03295845720389162 0.15583250572300902 0.43601358762813297
Ni 3.882490696248195 6.839977517924529 1.642277686871493 1.076456873161688 0.5570361847608083 -0.3293446881139683
Ni 5.5588310839038195 8.012623717658228 7.932765698564569 1.2488339135069395 -1.3048183992923592 -0.27991445850729857
Ni 5.116818908031926 2.8639318474266875 4.794716418749344 1.3158815990850563 -0.8998015171560567 0.5230567424915702
Ni 0.7700185407428274 7.309780092533375 6.6699889896763995 -0.25003849688347257 -0.8418357392745502 1.5926264016151217
Ni 5.134516051201549 4.539928249690779 7.007159849557526 -0.0627076634418662 -0.5379151476606413 -0.4704128910436092
Ni 8.064140056163765 7.063052044333242 9.08488864356979 -0.055798337916542616 0.1613899452061285 0.9604124459698944
Ni 4.734877444218152 0.3594927961174316 10.391029237184183 -0.8189086981647316 -0.043348799299280184 -0.5457973786221955
Ni 8.209519145321902 7.074801861128215 4.770099737861633 -0.38280640747753425 -0.3039907827302119 -0.2986148631302793
Ni 7.330292484565278 6.149082859031853 7.015069703113341 -0.0817291988496915 -1.2103373000936382 -0.6821512067953026
Ni 2.285556620553664 5.202254016591981 2.546090250875533 0.28235649228988785 0.2192423374382224 0.2936248661148556
Ni 2.2866700469525716 5.363221075334818 11.343371803360432 0.4245163856218108 -0.24837550735875288 0.14566584960265236
Ni 1.3641917493343299 3.206767603571523 3.777613171268847 -1.1696423934774371 1.070684232343969 -0.20943537865012965
Ni 3.5134305801225914 2.383311837478864 2.883684755923074 0.1021499285978886 1.2122733407740864 -1.1335723872277574
Ni 1.2507218313643904 3.3399352113302614 8.306901409664702 -1.0795576235741988 0.43773288431208485 -0.49946327144234626
Ni 3.639700375556392 2.498085279037768 7.028874380010362 0.8931845260601715 0.43785604015351043 -0.08858890208400226
Ni 4.1024240928973885 6.769442408166111 6.067469609216665 0.9353177077847956 0.7758920853938895 -0.4889464310714225
Ni 0.704645927531538 7.507942834797432 11.351732458824097 -0.20636342459302526 -0.44079892483191824 0.46357967017185964
P 0.21357600347884817 5.493845001645647 8.092693559335093 0.6047548309930101 0.29055754004344153 -1.816853593862445
P 8.66787062729158 1.6856551499684338 8.232137995264582 -0.3671373334817096 0.03313689176328487 -0.8197695035031302
P 1.7948252505442193 3.3345853332672193 10.495125553234868 0.19185777477768248 0.04170123639352818 -0.46560621368358523
P 4.052383270676581 6.148141425328712 3.7132363052435724 -0.3644831836883142 1.0619777057089064 0.11301052546147633
P 6.807452793930433 4.051550463939187 10.391042815554902 0.8500897517532262 -0.48091173369240403 0.47264358014634084
P 6.235423192306468 7.768901015510429 10.105569339122223 0.9059415686155237 -0.9031125838071608 0.8491955220737311
P 2.408105942410628 8.505219850579664 5.943844880398805 0.1667280695895903 -0.09812255260605036 -0.12331807803507147
P 6.927259284902283 4.051776770117827 1.6876158667001682 -0.14325801149210812 -0.0971812717387036 -0.9654896033824856
Ni 5.080311195293771 2.784670371419923 0.762917052857114 0.1700494206533394 -0.06940384451511918 -1.145844776837207
Ni 1.5164143373345296 1.0030342449668248 7.248726306435246 -0.334928609959649 0.18572672217928013 -0.12578556573895755
Ni 6.937787048332602 0.6344683815353708 9.168515113150157 -0.48925779166425415 0.681454180728278 0.321930140817452
Ni 2.9615422283975574 1.9370360532013993 9.255057311536119 0.14859202211051184 -1.7146787255638922 0.43221015472164276
Ni 6.403460056070008 1.9702849569671421 2.5825644702992485 0.3153982532362052 0.1342388387126333 1.1122522855937425
Ni 4.12755313097354 6.926661836590674 10.258156732682389 -0.2447785340361139 0.28712588865407324 0.4182958586333958
Ni 8.078786592045326 7.10954438567298 0.09929047804109124 0.18017108246837357 1.4912604023711091 1.2334132080764952
Ni 7.640974658848986 4.0287750101208895 8.34716489974356 0.6077375677704178 -1.6106686038288132 -0.8836459904421169
Ni 2.8531687255705838 8.349439729451248 12.442048470768677 1.360828596109392 -0.1587908170203846 -1.0377124054036386
Ni 0.2069941145792915 4.986330765428281 10.199517180897988 -0.6579175310589186 -0.9960708186034523 0.41732321030748126
Ni 8.931381541699633 2.442513533811006 5.839641747831804 -0.6701243575377557 -0.43377441388496907 0.42124080019433263
Ni 3.5897410235598946 2.811066724096456 11.579744986050727 0.5073107925112231 -0.25268364781580355 0.3932342876790776
Ni 1.066870691837508 3.283720756556163 12.659608368216297 0.1863694979696016 0.10431274057716228 0.026539183941109133
Ni 3.2378349157751796 8.357206557502161 8.16880847423405 -0.7896225476061047 0.6771758650678982 -0.07958746991634036
Ni 5.62817129703902 7.949095047190494 3.6515895969574066 -0.11223610918929704 -0.5692754071394777 -0.03798702076673458
Ni 2.961641803116159 8.394329823046217 3.6392414266261106 1.3306703273584568 -0.24330426348343262 -0.6742144684467292
Ni 3.644706268227902 4.350555239405089 9.146151536576983 -0.912478341292777 0.3599518714768639 0.6611990300236678
Ni 7.309617152084755 6.025990402346154 11.41507465300063 -0.9792982271308037 0.8038464045149704 -1.4490588293023947
Ni 0.5066587988621061 0.0739858263703159 0.2924464224089231 -0.07029036088513056 -0.45047527157941775 0.19419850709571718
Ni 4.6359906963997535 0.39196592230279775 1.5995375019736016 0.058460458129738026 -1.2082241104053772 0.09565635045374495
Ni 5.933594115731142 5.813896251725039 0.2860799769914314 0.10381394656387281 -0.6044357570906945 1.1853063252669394
Ni 7.802946517024984 8.938170727058823 11.432974566506314 -0.42003392437042497 -0.8551584245253852 -0.10826375480511032
Ni 0.244234154111524 4.992975114833143 5.605812246589418 -0.42234277500925976 -1.0637227134244713 1.4103873808741259
Ni 7.9439262140703635 8.916934155255275 2.7495132539558904 -0.6103022431738006 -0.07085111848460701 -0.6799315734361645
P 8.746742856671084 1.647708129934131 3.7208546764412986 -1.2066022585312381 0.01974787205088857 0.5153519176481447
P 2.079056758668522 3.283548763860397 1.4664386912931702 -1.0683995500748502 -0.43659311428068676 -0.0905434547072118
P 4.814292808426392 0.9618555727015472 8.18857586632587 -0.9334042928121666 0.5095216841196127 0.21936369350743512
P 8.47513018106773 1.6011705273586656 12.472057575281013 -0.11078009346906083 1.4623884565317653 0.5007539652293118
P 6.417518195887105 7.756236921753752 1.3955840372105128 -0.6502834115524284 0.5121773765749049 0.45815669938407544
P 1.9538460761507552 3.2595150476888617 5.997264001254346 -0.9381780600517261 0.016146784963191548 -0.08663563501237338
P 6.986234675055787 3.6941496421371007 6.0146859561107435 -0.527675215100188 1.1289104629757138 -0.43175558368272743
P 2.3270611737161833 8.550616870014785 10.206499179121382 0.05783799405439071 0.3681981706460562 -0.1881960096553791
