# total energy = -340870.9282099174 ev
CRYSTAL
PRIMVEC
9.29126604656085 0.00000000000000 0.00000000000000

0.00000000000000 9.29126604656085 0.00000000000000

0.00000000000000 0.00000000000000 13.59870703470794

PRIMCOORD
 96 1
Ni 5.537241412501292 4.351034785413277 5.382857738189639 -1.1219815970663645 -0.8794846599755758 1.0282216923043839
Ni 6.362584563025133 0.5242856943502109 2.6215046601314924 -0.17767402707813268 0.29727608971419767 1.645295449874063
Ni 3.9139736371453324 6.077640020187521 6.1703724286994905 1.0982521146599087 0.31679796179720926 2.8332651809057787
Ni 8.530812957627687 8.697080161034465 8.227503298598185 0.6597710393278895 0.4647058133565029 -0.9170037399669562
Ni 0.16632945488835593 4.371141084836148 7.9518435177814935 -0.7251577922638157 0.06711042049525216 -1.02958540542113
Ni 5.470455793161369 1.947356421460002 12.651352805798474 0.20148887010954333 -0.6166104447800155 0.32722712755033323
Ni 7.776120593061103 6.499955929460966 8.45729395788492 -0.8110200394452742 -0.5076576343276805 -0.0350410507645332
Ni 4.405583807553606 3.7563473110321164 9.34590133796991 -0.10863373655001936 -0.19646339187049391 -0.12412334754518624
Ni 4.372256036744995 7.348629448677427 2.43365198776944 0.29570231746917464 -1.157183341778478 -0.2810927950861159
Ni 4.206156076124543 3.5111229299471702 11.778233965980547 -1.745594184195826 1.329238994228569 0.006153421195905532
Ni 3.0842728829110815 7.495775226847483 10.69201065131837 -0.32220293486286444 0.9942018837155137 -0.9817047796897672
Ni 0.6809410831761394 6.172996282191642 5.114623537085867 0.6238776678653901 -1.6116219688810178 0.8520191075654552
Ni 8.744539947287711 7.049720133181507 1.1025759426585977 2.0547279445795583 -1.3518855279834912 0.16120585421978045
Ni 1.149673369541468 3.2583540409456946 1.6894894148553241 -0.685625281386832 0.5228029746095512 -0.7492883667634321
Ni 2.915450581379862 1.5920212481105278 12.432631760713408 0.2671975251612624 -0.40565837237504326 0.7618528336920041
Ni 2.4263676352983077 6.618233744457798 0.7334107200064698 0.30507553115395847 0.558800989970715 0.7964164305994865
Ni 2.6798519517746264 4.69172692369323 5.227872918973799 -1.681644935037375 -2.4553055599975844 -1.5395364637686775
Ni 4.588277969084062 5.7866189894466915 10.884078771022454 1.0414052808741936 -0.2000410819194232 -0.1668543107548094
Ni 0.5061928122493995 7.053445930810238 9.867806609994732 0.5265935520002349 -0.8288735226869273 0.03291037757477558
Ni 9.183580135193857 1.807597199686056 8.288371310681903 -0.407789045564801 0.33457662593686893 -0.671654935249669
Ni 3.820577832247599 4.79138504181232 1.4636289610472748 1.0230393767724961 0.17057392569824173 -0.7050178269808309
Ni 8.196383132569089 6.892985768595369 3.611735261074915 0.11456398599152529 -0.9060577824784138 -0.4967121910597704
Ni 6.841744437117952 4.522978952289267 3.37239782606868 0.6762860062637772 -0.17199780262896186 0.07443446496049116
Ni 7.479060239480688 6.142846124323244 10.708478491012036 -1.1569491142804849 0.919808556405603 -0.06472160854810144
P 5.991630771685896 6.556028719210053 6.736541291505531 0.4795313084051096 -0.8865186840042216 0.02186234729073009
P 9.083448162513507 6.677400525753933 11.88643911960754 1.1198174995355101 -0.15709286049267138 1.2249115983633871
P 5.365808265250189 5.1667986407869435 12.823335995991274 -0.484104786708405 -2.10391160539306 0.37340979675398267
P 1.227599216703952 7.972119847370463 2.5841481964255806 0.6700518524286073 -1.7105994132881956 -1.0346355662505278
P 7.079238484968227 1.1060880411714653 7.777902657862076 1.0806300307027714 0.9241943441781245 2.7461415505133933
P 6.893153011381696 7.973671488776941 0.9594096136765341 -0.7385241862683926 2.233863900915198 0.3250784566384466
P 7.139817538682236 8.446977865348314 4.546809191087687 -0.6265873534870692 1.5857798110069334 -1.2368196626548829
P 1.5331332047916026 1.4444759455064682 10.865652332475578 -0.20150712494198844 0.5969980698657266 -0.7778633501876475
Ni 7.287009773181827 5.953443668807894 13.097295475146975 0.959012480298574 -1.3161824181549269 0.07527007348790908
Ni 1.2886521249792213 0.0929563280203296 6.70920731633356 0.4449468855620208 0.6999602099522655 0.576848077280413
Ni 1.4928462758186052 7.788849627353771 12.555223510470883 -0.5104246555498564 -0.28065802154154246 -0.8706889160608166
Ni 2.462789397653969 4.925160688342121 7.764957137073774 0.8623068626447086 -0.9671394802810828 0.688146248036473
Ni 4.818088140029201 1.5234238319187285 7.797185751125582 -0.6701593245407491 0.14950476373276833 0.9319413351133949
Ni 1.7117113355252314 3.2018166879012546 9.435204340235584 0.2163706723173822 -1.0474419739865768 -0.3229045889155794
Ni 5.383117893635036 9.015686960253344 11.723459166078674 0.002096477517712518 -0.7070199450125243 -0.23962784307310991
Ni 1.5057239703657856 3.9293785560192322 11.544472219645137 0.48794910015515963 0.03188476452373864 2.4525652782482856
Ni 8.667691886970445 2.98806182444351 13.191901931992396 0.8859682108173902 -0.12935399981650628 0.8358142156708186
Ni 6.5774450871258185 2.1213167930378236 9.932903077192751 -2.7298435846843176 2.2713112471283785 -3.5579789436536404
Ni 7.9196985251228496 4.930038602943326 5.767374919499996 0.07367547530727955 0.11097755419184759 -0.09450115380337917
Ni 7.1509577665047965 2.7044923889601407 6.2530934981966055 1.1041281138247114 -0.360937632428901 0.5414380732122352
Ni 3.153576435311817 1.9744311703131652 1.275221600110571 0.7287205699144095 0.8568918622767243 -0.20712164291528845
Ni 0.75093590576036 8.423675370453415 4.632807290070221 -0.2627880832396571 0.9342219036174556 -0.5255746238174175
Ni 4.329683456358861 2.0117541854618115 5.1152757839525425 0.6001366154947084 0.41476470555168565 0.6530753724752688
Ni 0.06107427818685544 0.423864763300152 12.226746599478938 0.7583543336204424 1.9978787968009981 0.1999796325538685
Ni 6.393115662795721 6.071879435325145 1.7187949966527714 -0.2537185168382211 -0.36349433741248366 0.62035448520348
Ni 0.5005186361599601 3.248040735788862 4.285727406479166 0.40031664844715575 1.0840316001851524 -0.1340730025587304
Ni 1.0583773907387293 9.228094590154566 9.342298185051153 2.504422115018577 0.7515833334451959 0.6818377893199419
Ni 6.3020519656406595 8.322316950673335 7.998664064940334 -1.3064999007598403 -0.3944568472322691 0.7472152862844873
Ni 5.481716807440721 6.5649297519490135 4.581418227464882 1.2863185407159587 1.1079459449089046 -1.6973482047052448
Ni 4.637075697627923 6.63984522895761 8.590534427498474 -0.3648338821595136 -0.21825837625839833 -0.0798980591782237
Ni 6.649684679553184 3.6174986333170622 0.9100200314943931 -0.5352764244862136 1.7271979410768254 -1.0540137136668235
Ni 8.129021454742928 7.294693650086963 6.058169243352692 -1.954406070329344 1.1737931824210173 -0.3184802345956386
P 0.3178532775538171 2.1434300058966187 6.079505706381657 -0.4915054500478503 -0.34733058316842763 0.6036019483354895
P 3.2504657561906036 8.80028754273005 8.61813970763493 0.8958263345583927 1.8724153902881495 0.8254801807346622
P 0.12870168621795794 1.2477240986586366 1.0314540895198514 0.5316534830216456 1.5991500616662524 -1.90079676964432
P 5.341762469082727 2.0186575960307547 1.232387935152449 -0.9121572105079323 0.4825266435880077 0.9250993724908971
P 4.251636822739584 4.857418068613771 3.55063589647011 0.1382577300640393 1.3761135472929205 0.8861898399098932
P 3.599947432018632 8.502000742049903 12.929432961383954 -2.121819853132049 -0.0035380950602455197 -1.467736608217556
P 7.414318698640318 1.9816040275934128 11.819125756364095 -0.4747716822329372 -2.083981442128037 2.031974452933126
P 0.2237838558778221 6.630600419380089 7.399559522746959 3.662417411175389 -0.5363233776934893 -0.04795981570873031
Ni 2.359359025576615 7.0888828189797515 7.910122946479036 -2.2350322101916866 1.0904411032559218 -0.37508872711830243
Ni 3.0676972645328924 3.090925429300534 3.293906140812456 -0.6163430500512417 -0.11689057724217289 0.5247115044861738
Ni 1.281246986051297 1.1508905253752924 2.913481762134157 -1.393830247846393 1.4153182425168398 1.1024725804991593
Ni 4.004563479739135 1.017142752643212 10.30082977409947 -0.8000036337301125 0.44758278052297107 -1.1370366916272743
Ni 4.643189350594766 9.295818627351103 0.985932461334818 0.3964918753844269 -0.09360846678578072 0.0012151033540237137
Ni 4.111347998808937 8.341122472869218 6.4825989156199935 -0.8158673402352465 0.9124318043255576 0.6206280505798409
Ni 8.893506813575549 2.8011865932548794 10.67915990144232 0.9138225140254971 0.3077811030105796 -1.1198555518622972
Ni 5.175774003653161 7.173405464936246 13.444470129650279 -0.48068264840073344 -0.29760879046326805 0.1907984802752327
Ni 0.4808044281583672 5.268630915128284 13.432217737298645 0.702082655611907 -0.8981902068048788 0.3189294063179152
Ni 3.0665637300922315 9.20418816297571 2.9705561503480244 0.7974093906403751 -1.025702525426956 -0.6440333168776586
Ni 8.635070252370769 9.053418791101901 2.264035283003167 -0.7790321736847681 -0.37728907720373084 1.1524075176563895
Ni 2.853607915502493 7.0072869217839795 4.4318325628676325 -0.2713015200273069 0.8378420447341247 -1.1628734501847198
Ni 7.336597259327788 0.22640678024338418 10.2440554937744 1.505614357099936 -3.4966283084603007 0.45489474080335207
Ni 6.108710013380718 0.3005315705232914 6.214214196008527 0.6275422612011708 0.8996130552943346 -3.2552739696143873
Ni 1.3833301245721283 5.469638161761548 2.805331426976017 -0.341078945831761 0.5042776621118541 0.12604730404077646
Ni 8.318897764819537 1.2015557983664722 4.351531868139305 -0.3491342120360697 -0.7178897978474926 1.5439947566503476
Ni 7.668890093227762 8.252493087381804 12.493050075527224 -1.088167476730397 -0.12200398720933826 -0.0224182197942001
Ni 7.181972012102552 1.0515111452334145 0.6075781767006109 1.3957639745339963 -0.849985364964878 -2.7228404138936075
Ni 8.107818785943024 2.4169555829344587 2.407583483014011 0.23821964987167363 0.9684337736124741 0.2924946091651543
Ni 5.038439802280956 9.052136596406728 4.291425739859965 -1.382179293871026 -1.073645371854822 -0.08617566465681933
Ni 1.9617021360204974 0.11238529415857576 0.6270991263713369 -0.3960897548500017 -0.8431004649195866 0.3813820163261819
Ni 6.540549470208896 3.9845965493048703 11.15376798436727 -0.10460456078596825 1.0301477056825032 1.161746021448496
Ni 6.433030941132437 4.657832385664287 7.971630197657161 -1.3390922328735648 -1.1846368100037405 -0.8033144432709004
Ni 2.2185498907551713 2.5841240391342217 7.311711532722328 -0.22842426104780658 -1.0130848366629455 -1.5998789694124769
P 4.169455575791669 3.591520253840932 7.191485339264787 0.8138449104885791 -0.020995371304744485 -1.0477098829359828
P 2.570252179134987 5.0882131137450575 10.06540953679965 0.875938337385214 1.334701817115353 -0.0234101513938242
P 2.5525151525184158 3.863865840108576 13.578132422736017 -1.025958093081188 -0.17416267149076456 -0.6009753093459199
P 8.554607889615658 4.618734738727393 1.8211113459478698 0.1880080620142891 0.5295521204079268 -0.15890831643485534
P 7.981364656947984 4.476429710094914 9.460403182502112 -0.32249964016767685 -1.062290608963635 0.532930035741224
P 2.6817752438173876 0.5705125296175898 4.973509648742671 0.2173528337249934 -0.5507439239941935 0.6178461169593294
P 5.98272044768103 7.66574035408527 9.9949678043253 -0.10951433938275977 -0.0941118887847605 1.682797046363947
P 6.41221850550063 2.5929135766822977 4.230217667444047 0.20905511249257544 -1.3213577917082793 -0.10237875677924303
