# total energy = -340860.6649846475 ev
CRYSTAL
PRIMVEC
9.31797491082350 0.00000000000000 0.00000000000000

0.00000000000000 9.31797491082350 0.00000000000000

0.00000000000000 0.00000000000000 13.63779815732707

PRIMCOORD
 96 1
Ni 8.652131205863729 3.2140584582816736 6.236619483744812 -0.5875466946448398 2.2077890582050173 -1.15825112092136
Ni 6.341888375281356 5.926418502936269 4.689847735775619 0.8997423817833471 -0.8400321104069082 1.1041687372546596
Ni 7.472764419444842 0.7705061537897407 7.491774952179175 -0.5717835182733121 -0.8844417468705349 0.08034903067271323
Ni 6.411968865769994 1.1083917703236927 2.8960275830232427 -1.8506160350248706 1.3945131328460305 1.0548423802157059
Ni 2.7451965887952627 6.989189467325595 3.844113842069514 0.2835278868901697 0.7241571189134431 1.8815926859120433
Ni 5.917333477244682 1.3495502830662063 5.414696743528226 -1.9876242089525253 -1.5341528308592611 0.5284030944051481
Ni 4.788628521272108 6.932405727259412 8.959269368267325 0.2077194244002874 0.749797959409999 0.09430163619806341
Ni 2.9090345444210737 6.079512833308337 6.559794813038449 -0.3108044632179357 0.45259103237083986 0.22300771801792563
Ni 6.43536630116648 3.474384045739668 5.290988511129037 -0.062408387033892516 2.64405435683264 -0.13548993751091504
Ni 3.7239194180685775 0.44730752955843367 6.275269512530588 -0.535311134378891 -0.42831184810850104 0.09018684269874144
Ni 1.8619830039719596 3.7742923912877746 5.739222247409258 0.8575732046144651 -0.26143079788081425 -0.035189146306623266
Ni 3.3529615126247303 7.69543606965186 0.22378421643017296 0.33257219391233045 -2.6994796276804798 0.1387308130457159
Ni 4.718510758883197 8.101802280355225 11.199728019968232 -2.105515973765703 1.0142343768863566 -1.5398761064962834
Ni 4.744871310351401 1.6284186409101054 0.8319684491377141 1.031674683849991 1.0800366200931464 0.26364580325426207
Ni 0.4467559054343907 9.088603794012752 0.7133934892036472 0.05394045877219742 -1.0060544121787252 -0.5226055138867645
Ni 4.400982122480947 6.061873906504057 1.6987106494327937 0.8657081750167737 -1.5999373334542382 -1.0032189996124592
Ni 2.9106465541078888 0.3868916428106299 13.274282920970686 -0.669681356463066 2.4172820295659596 -1.679026780688237
Ni 6.3303527221468086 6.1618091891115085 10.606102191507391 -1.285131205276077 0.048726775781741886 -1.4781421198215963
Ni 2.010474254660291 3.436180347959663 2.2871267980329497 -0.20948654360303923 -0.6988312385541449 -0.7541469804073141
Ni 7.180301135976302 8.750827197787098 5.61342678859477 0.33761695542508957 -0.378069149902865 -1.4889921751622226
Ni 9.473026173430283 8.123764747591194 6.1681034812701405 -0.6025218278974334 1.4412987257410017 0.6652963400214928
Ni 5.078305730195228 7.628579598536851 5.715737223047131 -1.6410898964331477 0.30222443485840855 -0.5838119101927559
Ni 1.8736491087574636 2.4853555360408195 8.146006754079211 -0.46003848978782064 0.16827047437604567 -4.295288797898958
Ni 7.1333385416321 2.5678289333702886 0.20140989469618573 -1.857290361721253 -0.6630705360147677 1.2769162735654525
P 8.791677200486498 3.889919143910233 12.630687587611108 -1.3932949441682132 -0.4278616479449599 0.8600054682050415
P 7.665441507907023 1.9074174504049606 4.39684028256309 1.6879163698683832 -0.35402033648377745 0.415657135458968
P 3.490150059555221 0.6680419727487541 10.991697703986024 0.5509706952930189 0.28503840999742525 -1.5593750957611596
P 5.871899030811681 8.250554434345469 7.536956881487825 1.0160786291839468 1.1343696863180721 0.4888240465609453
P 6.846950577908089 2.104017406370893 9.659762120988919 0.4534662358869417 -0.23034256111644202 -0.34160036555286977
P 2.4095724448103857 4.7581960146990605 3.761332019765285 -2.108009429611518 0.9996279398270912 0.7218271852286858
P 3.516585154823971 0.13758735626341367 1.682167516496545 0.2890002228586507 -0.9002632872838238 2.004822832218999
P 8.59800308869201 5.73296802254342 10.134616380241749 -2.194395153396614 -1.986403963392179 -0.8984018085950527
Ni 6.538506967197425 8.177333786258815 2.8041225313296465 0.14054678320853214 -0.8055016807302063 1.085950157364104
Ni 7.352637084864398 3.353082646300618 2.7221047829810163 -0.478224416668228 0.3360434402903825 -0.47453205541830534
Ni 5.144556532930799 1.40971644808218 7.825109669689772 -0.1975766795393307 0.6185390292612961 -0.5595342685923138
Ni 2.160335247683661 0.5812385124050489 4.466188380211361 -0.21240757390457612 -0.16258190863170063 0.5075383351409969
Ni 0.44800824128356936 7.142432885298756 10.89934166229912 -1.4322168180443917 2.696140536004918 1.235889694641446
Ni 6.76731916297445 3.3299274782559083 7.723930437410703 -0.8566031273917118 -0.3283725540086861 0.5302470895924223
Ni 8.524568127178785 7.262150228976195 4.08730274157941 0.05261196976876101 -0.7392893465691913 -0.3944090247134691
Ni 1.5538468864385495 0.9727220533293339 2.3172667201888526 0.5194399716745892 0.1807056148156049 -0.23395316128583576
Ni 5.378186121818131 5.637374916317793 7.025184805014415 0.6562175176486763 -0.2708070968893917 -1.1080333624163885
Ni 4.378609664341973 9.20062449028378 3.8172743466828005 0.20915230019207207 -0.6477148794943038 -0.5348938443358142
Ni 7.802275971784917 5.9625629282261805 12.18501815806968 -0.4790533403274265 -0.6040837730679145 -0.9399516070123812
Ni 0.6409462330476623 6.656053222683952 8.632903564310304 0.6316007475412606 1.0304523814071156 -1.8322321332010445
Ni 4.688767782465203 2.0297717810267275 12.074429634566648 0.5642478720178992 0.704485865736761 0.21985323154934394
Ni 9.055059083766892 0.35238997652525816 3.6537299072716403 -0.7744327272395437 -0.45980220540729844 0.43307507382509935
Ni -0.12121753766343499 4.7845472481921965 2.330795488190509 0.8861677284227061 -0.06516872338784906 1.0872508784533985
Ni 8.414178076544708 0.2853387597313223 10.24895538870977 1.0692161324388747 -0.04409673320889825 -2.7834688262089418
Ni 4.124508484229599 2.3442534395816454 3.355198758438628 0.30428208871838563 -0.09761475973169641 -1.031912768002726
Ni 2.0195965522521506 6.030053021645833 1.9715623907750957 -0.20321947964740486 -1.341014132486626 -2.4011427008019357
Ni 7.568208438069377 0.2563710388390103 1.3335615696465208 0.8867202584920665 0.18889766370809402 -2.5510706681150515
Ni 2.369924460894795 4.357672174363517 9.432106285917872 -0.634676815363423 1.5206583959172522 0.276852017531891
Ni 0.11384888297942819 3.5117491257635267 10.402462505377365 -2.033923863350013 -0.2677009471602422 -1.180817179147334
Ni 8.57036597463945 4.831584386336943 8.146334746801616 -2.5134999089501293 -0.2924766114430253 0.7474047765874741
Ni 5.89364718462108 0.08457553250487616 9.535002821002024 0.12237602583677631 -0.5792780268781443 0.33628486687722725
Ni 7.043764847300592 8.29952971130442 11.605098139136794 0.34369298641584034 -0.10895563866581234 1.103265765824416
P 2.101930179955595 2.1113040628742987 0.5790841965692592 -0.7049288668114504 1.2134645328687101 -0.6936478945809924
P 4.0087605979312535 2.644348144631118 5.512179535097704 0.09169530892346789 -1.073069958967326 0.9054931682241953
P 9.171440592369883 9.289844101562693 12.223572211712252 0.1383124945613747 -1.5872599950968858 0.04416049656729814
P 2.8432962303142606 3.3134812522603694 11.46600592989985 0.22015610750174341 1.5403360768518375 -0.04591270337171447
P 1.178509532712604 4.700051850272907 7.590539897118049 2.653366121151869 -1.3915645917406678 -0.14615590186519345
P 6.218583611202623 0.5403773281355666 13.027697619548398 0.5450874970393644 0.581252891216328 0.5900069832598741
P 0.22800712273112375 0.053200046854917034 8.0294314315948 0.4161482161627736 0.3662706146060402 0.5677124335277319
P 5.533721761658091 4.753751340591485 8.928012220900733 -0.5575876863889043 0.7867447118376774 -1.7923414676536937
Ni 3.8778244122715875 3.885157658650335 7.414584846713429 -0.14188349974208467 -0.5685840374994079 -0.3602814869021408
Ni 3.7779450375145456 4.5482340824851955 13.408383490963544 -0.9977065544346626 -0.2648364811282536 0.11261303291274154
Ni 1.6536889892953184 1.7950240351312 10.172338338710723 0.13220895276679812 -1.9444381604833545 1.2644052855826353
Ni 7.082080360781416 5.9022383576340465 2.537625648983921 -0.4673753897688661 -0.8507189006967928 -1.5084140313322603
Ni 8.947893052506444 2.268954883054763 8.275102639662888 -0.3974534679667478 0.07198986007474054 2.051954752709795
Ni 3.085489038289355 5.8310490281122815 11.255411307178848 2.0702684634173183 1.192609800906888 -0.4872852413189157
Ni 7.713699300785716 1.829873261886619 11.789017262832285 -2.5487610461452688 0.7988746623319919 -0.8903650543335052
Ni 9.166716379010257 2.6616516243329396 0.8986366971563431 1.8815361216424953 -0.23997802732367704 1.0342817824555348
Ni 1.0497817071441242 5.07005000428472 11.646079525284657 -0.21689440603133614 -0.8129794771644901 -0.05154933283220155
Ni 7.503131700192411 6.672462176779217 6.705309902489967 -0.5700025151134893 -0.338987610520371 -0.7313886036648759
Ni 2.8071424870492803 8.868429361124035 8.82185532634018 0.00671674989854327 0.9024759786644263 0.22606270279416552
Ni 7.586807116305691 7.390132616539211 8.847371669267197 0.09525988634627465 1.1007674248825945 1.1732403952413406
Ni 5.926399866986132 4.239389798846595 13.02213385663512 0.9045323469728227 1.743890314130842 -0.1584228921580046
Ni 7.150222712455849 7.329891907722692 0.5799349276929946 -1.3712413068022835 0.7466275321018173 -0.9603232286901978
Ni 2.1481007464189914 8.440417494337023 11.314586039647557 0.5649122450747754 0.6045599413733846 0.2566781136871773
Ni 1.365866057410789 4.519907438277582 0.17710954751558214 0.9237148334385447 -1.115614517197756 0.8916740029529159
Ni 5.649264652504936 3.88157955622411 10.688351957435223 -0.050696497913603006 -2.302801090206544 1.5284254414571805
Ni 3.6919680815593985 2.5023515225653874 9.329112843893004 2.9568128584531532 -1.192561464167456 2.16804031755217
Ni 0.6248904302074851 1.4447986242143063 6.076580466554344 0.4182269530686733 -2.221509236004587 0.9214751454747485
Ni 0.2073007185343611 5.829138843223281 6.074002182852948 0.9066637914935288 -0.35592166727154834 -0.745265104536652
Ni 0.3878355536850481 2.7858881859185023 4.131639530549365 -0.18734214629551604 0.46652486884311267 -1.5683161070045313
Ni 0.5450847691400686 1.9520225970568834 12.152546878551691 2.859909522966184 0.4084657599168514 1.9930451228577803
Ni 8.808533417385043 5.820035181581558 0.3354116941533199 2.0470832835501067 0.523162414831499 2.4078486520672016
Ni 4.265824894115345 4.526439338800456 4.454568865301198 1.857750846297439 1.0937053758294906 1.0557911172822203
P 2.7126209479565073 6.728388663139118 9.051188396923523 0.018261774423665323 -0.604892642122455 1.008166830536038
P 4.89205804453017 6.898478980035754 3.4851668064886976 0.7755362447163676 1.2676649301705134 0.6601513054854437
P 2.1801266267287174 8.052603371994634 5.769334215639957 1.8257583525512426 0.7924201649558997 -0.2664434206040573
P 5.343923927492014 3.8015381503874655 1.7276634615649966 -0.11292465061588937 -0.29407095251333865 -0.5315742930442782
P 5.41406964380613 6.854144054660812 12.574609218257596 1.1233838767305298 -2.4074874120730407 2.6876782641701777
P 0.7842585531930357 7.566792105858996 2.573589305557508 -1.2115999688561454 1.762957358064622 0.4697179218591136
P 8.438358221846931 4.972108768341883 4.431534830932376 -1.2048153418341445 -0.43358903734704035 -0.4999456103954035
P 1.6051609751396438 6.843810420310073 12.752950602077204 0.30251496951563384 -0.5966717968745595 1.4621876533748688
