# total energy = -381170.7524513164 ev
CRYSTAL
PRIMVEC
9.18944786615586 0.00000000000000 0.00000000000000
0.00000000000000 9.18944786615586 0.00000000000000
0.00000000000000 0.00000000000000 13.44968583574063
PRIMCOORD
 96 1
Ni 2.6616684703575735 -0.04973880612979175 8.264536472303975 0.4095980737490817 0.5363316052236053 0.14839070473298316
Ni 9.092251187480498 1.7775149225299518 6.89841108110759 -0.6674434682714827 -0.07282932525690039 -1.7180918650104993
Ni 2.341508102777862 7.2799817726949065 5.8848296721680375 -1.4052965966147797 -2.4139696773632746 0.6469404632221246
Ni 5.141505333559586 3.1379024224084042 4.81673645781853 -0.5001289300508032 -0.22816535095946514 2.2078618204244815
Ni 5.818905491313271 5.229080772797089 6.843307475247803 0.5561622667962873 -1.5508035520420647 -0.524058187172891
Ni 0.2822511378329665 7.686284025627436 7.197262956714172 -0.06517386559417163 0.642866550263067 0.03622375821872471
Ni 4.8801022963560134 6.615079264192324 1.327129049753754 0.9931096790925992 -0.12738093525053545 -1.039294662289094
Ni 3.8620584914779785 4.344798572697766 7.715721503282571 -0.7588531276337318 -0.6402864482407167 0.09185034644409341
Ni 1.5507193464143587 5.5027884808442105 4.263214653542407 0.3564538856259345 0.8256637575003781 0.4341315401140717
Ni 8.185445650385253 1.9575545873296563 9.050979538718328 -0.8364837309340175 0.16700420606911237 -0.06689393360907188
Ni 1.8978047965718126 7.365737701232618 9.670377738719727 1.2727436302450015 -0.8813978178378885 -0.9777835902584902
Ni 7.651097629316796 8.155341018806862 1.2221947432843876 0.3070372828660196 0.40027551079657514 1.922125355918767
Ni 5.35474647390652 4.10528480057958 1.3566694492262492 -0.6646250249860811 -0.19165157230414734 -1.7325985432671063
Ni 7.635677735608451 4.000129947358724 7.459585857660418 2.5829441197848806 -0.18347495003062594 -0.566734900105811
Ni 1.6543211829268059 4.718809105432963 11.66153721836288 -0.9597832970263277 1.7073477391201175 0.9518275325143609
Ni 0.7778683925053785 7.2263245859469745 2.1810143938289626 -0.0405385835439947 0.028741076688434376 1.3638884659816382
Ni 4.792205226439252 3.08551337948154 12.661413484586923 0.691971535319834 0.713031955534559 -0.172466000514632
Ni 0.6497288920000683 3.5421186706497574 0.4781499519544007 -1.5950730633834012 -0.6517831360264065 -1.9252340767510778
Ni 7.7576492786304225 7.754047015022752 9.675018409948997 -1.722074503807331 -0.9826920833037012 0.9189405519783528
Ni 7.534097577651329 6.347749033042455 7.856620552306377 1.8061989423620766 -0.14152354529950464 0.4585297664527781
Ni 7.919567352016029 5.624401635395011 12.004261356509618 -0.1392082669027667 -0.4926033110977194 -0.9702140054413486
Ni 5.732901447680133 0.5254535543698232 4.599859971851202 -0.18043976274872794 -0.617217482236395 -1.5595553300927656
Ni 1.2614630923871897 2.080656432453015 9.582739811235967 0.34665823969175136 -0.6835231474421648 2.321499180836679
Ni 4.033074118362549 5.384217033574377 5.555876840762258 -0.8638734358008799 1.4539092154161606 -1.8377795453818346
P 0.6040159830297678 2.1619279103770954 12.155879896600641 1.3841199625371645 0.6042514089940304 0.8092647473170642
Ni 3.330329463083466 6.1357392787246745 2.8019196632988783 0.0584997960081057 1.458372907614469 1.2593034455796956
P 0.8274583295779144 7.25838656994484 11.395448481634944 -0.7960503055093194 -0.0017738040709711388 2.0983690783082762
Ni 6.49554292488472 1.7566640650661642 6.305468382892219 1.0272860678639921 0.3161397593879201 1.5147507721835654
P 4.52639125420588 7.841714348740044 4.118468901594695 1.4523462418044149 -0.80206591557578 -0.12614706284343438
P 4.404649447383377 2.164942049314126 6.70959089876419 -0.8290709834097141 0.18723056041831626 -0.2722286598272667
P 1.2712222861406242 4.906218707511625 1.9377632732178187 -0.157923841034399 1.1128752638897224 1.9916289592365441
Ni 3.163540982269122 1.465707763162926 4.6501078733990155 0.7137004423564934 0.4117236047325167 0.4246254003958494
Ni 2.7519364178528516 2.7993999166631047 11.372126581609669 0.5836013368438465 0.5805975170205162 0.5242152815760456
Ni 3.060545649323272 7.737708176516532 12.251924331095362 -0.17872483694015026 -0.18609721814482144 -0.3423495850140685
Ni -0.3558650487563532 5.890629132787428 0.5604552427760908 2.5886154591380452 0.08116766991926667 -0.6378891516531336
Ni 6.021330651389215 0.934621996126926 8.775866764075255 -0.6023950725115819 0.685531179011129 1.1152116253323827
Ni 7.575725776995074 3.017833095118034 2.155298642605224 -1.7583381141250558 0.42031340328405675 -1.7085124488521803
Ni 6.6890635098692535 2.47978172651414 10.679709946913906 -2.0470699138136683 0.9163928458558348 1.0806521421899582
Ni 5.956526664243057 6.712220918775708 11.337789290292266 -0.9842604562320855 0.18764965023360586 -0.2742811714809212
Ni 6.564059449014294 1.3668476818075148 13.143490087662645 -0.09383652363618677 -0.6705398478086194 0.09932505755458378
Ni 4.503831159418044 3.777414486145696 10.308336785748612 0.579661378359492 0.4073519580273823 -0.7775149657092931
Ni 1.3533116249348136 5.611591544912631 7.491986013343901 -0.6111193397584571 -1.227600715159776 -0.44858113988049836
Ni 3.2676022911805065 8.666384599801205 1.108723439642761 0.053996251710797326 -0.3354315177379965 0.11983037659678716
Ni 1.1652220037057224 0.49190379874419843 2.5534765045797396 -1.3844750318837382 -1.114168785890165 -0.5538876118294978
Ni 6.031108224038607 8.20320885332818 7.687329784807418 0.12881046860821044 1.4291032121160743 -1.3020022699998026
Ni 6.853030830154121 4.913129172391647 9.85406010069821 0.08247687564899343 -0.30617981996173077 0.24310011789242647
Ni 6.0173332415184575 7.091579710234537 5.716883320908371 -1.2923752884330002 1.1405326205956745 -1.0360195910822478
Ni 3.8791876225103716 5.231424082031671 12.77808914873874 2.065825854264933 0.7306077596347934 -2.102474872946534
Ni 8.222396420707813 2.3704181061190153 4.202112176042092 -0.7854897563846536 0.29501351893226613 3.4246147942364766
Ni 0.19106148870541925 4.035187691397661 5.607631811778587 -0.10870392766632246 -0.7189339228412909 0.5886715522779024
Ni 7.879188917597393 8.92092311936465 5.455999487515599 0.8061143746135409 -0.2512787970484769 0.08944276544386531
Ni 5.579731728770299 8.73922935392877 2.216965352211435 -0.4262189701352143 1.0674963215342907 0.566104979831296
Ni 3.9938443649412574 8.671806374108668 6.1761360920392665 1.3254396750871367 1.3983376487984434 0.4031698016252347
Ni 5.825981366256911 3.3052514595494524 8.381360086568252 -1.2050318287203245 -1.2350556287759247 0.5178906249095984
Ni 8.69844658379907 4.961189985320519 3.356530417160483 -0.6530218935295141 -0.43118711277376703 0.4061630799256037
Ni 2.513929715203181 8.364253929155804 3.917530594201714 -0.26215302075881947 0.722113349010537 -1.423038751089549
P 7.115334433259611 4.120769020423777 5.148257739934372 0.17431359524633208 0.6351558118823707 0.18027418370514114
Ni 3.4556643440656614 6.690065159698937 7.88435430630625 -0.46719386988567935 0.7712867254113942 0.027486378345726856
P 1.0730702193747998 2.0763465813509803 4.7226420241849 1.1040265552498405 0.08212000653020697 0.9915423346054794
Ni 7.478069513324879 3.5489739988419067 13.111170799121375 -0.44972810900074806 0.04075558465080723 0.377511220516866
P 7.500271219641544 0.8841259794836851 3.0368047104701668 -1.5703184821465406 -2.1116639956449696 -2.10217431098698
P 6.029123303275196 5.2933609614084585 13.325625865546302 1.255486385826451 1.4045147241434326 -2.199885229976908
P 0.4768285093350562 7.577719887206463 4.507366340055469 -0.2880697406245813 -0.09014647637910927 0.43296400216853176
Ni 2.179259209265021 2.3178544636805554 7.5811576596953145 2.195471674290245 -0.2416489872681967 -1.2134959003272778
Ni 1.5298776783985495 9.490034822136725 6.135397431259865 0.06269455081574364 0.0156688168855085 -1.0400701070025378
Ni 8.728505268137567 3.7201734146860517 10.998332919846773 0.3523915426311028 -1.6216017058015493 -0.43417704864002643
Ni 2.2891190598509983 4.607635163786023 9.416542211926657 -0.8278746491087677 -0.9927903480799675 -0.38363815935021023
Ni 5.492404404628222 6.45571585734481 8.715100620370961 -1.2586077050642517 -1.6298544327286446 3.1762788818664074
Ni 0.354857885257882 -0.307668231997396 9.251756111826884 1.0622021630148868 2.8340545095762932 0.15045555768181185
Ni 5.511270341328599 4.8053828948407835 3.37883045057052 0.9660755577929427 2.2817386131092894 1.5772974845675352
Ni 2.424736933121417 6.183607113245992 0.6182724926240032 -1.2539398672749371 2.4381938400179624 -0.09700078029678133
Ni 4.3655759145777235 8.420300372378211 9.908666557422347 0.28115604422388357 -0.31859310602441904 0.15882732668527488
Ni 3.2521548291282247 3.9775330947789733 3.387558588260738 -0.3174685055016726 -1.5865215742689647 -0.05124851376233109
Ni 7.203029335320839 5.749442454041887 1.8507713639269652 -2.347172674343384 -0.45474253149620397 -0.8504299087014644
Ni 8.700394746770565 1.2041852631356298 0.7193509067214853 0.4306888329811099 0.4235694483275092 -0.13752110900833092
Ni 2.1832106718958846 0.6982859351197925 11.168565605763552 -0.5251213383300827 -3.0014986313963017 0.04770553360607913
Ni 0.5887054437523694 2.690569284250748 2.6078137104780987 2.283347609467622 0.7806594248755457 0.22476301014613548
Ni 3.055096306671872 1.6337460089023808 2.260287166817665 0.6447583679691411 0.5688897416652848 0.6103541794576586
Ni 4.6728342971952666 0.9813962863387724 11.649123193088386 -0.1687615550798513 -0.7285544766501904 -0.2367831745354632
Ni 2.5456516896258323 3.710184484733148 5.697421907978971 -0.1548104922163979 -0.663960909039521 -0.22306119696368035
Ni 6.892848708246053 7.071225082961603 3.583372859460768 0.1764093014330962 0.7701708666393962 0.3490650493610311
Ni 8.253723248867379 6.1692807638471185 5.707805065250162 0.3681845437993014 -0.02387834927949436 -1.5952337573309816
Ni 8.350056232028633 0.983739595573354 11.248335527887905 0.6745991054796576 -1.2163228282531116 0.16966349806883038
Ni 2.8589015923255223 3.9744178719141763 0.8488881222643636 0.9133046938488142 -2.0770554044321647 0.902293173229659
Ni 0.014233535974288593 5.703219530708766 9.876372999335418 0.4784421891059889 0.49127662186649584 -0.6010539851026552
Ni 3.5812473401432823 6.06119447672104 10.564392483173348 1.4151074120576144 0.0943815975063794 -0.14571547189366518
Ni 8.021864286915493 7.829804824159582 12.556371661576208 0.49002706573011096 1.1463870224939223 -2.0727896871772757
Ni 5.199472371409551 2.4650510414042004 2.6980743064149943 0.43641570816255804 -2.907144287583432 0.3384865025142364
P 6.595092214838538 -0.24372070140285831 11.022340352691261 -2.2008465654489124 -0.13767717497022094 1.3509216214083248
Ni 1.012833387874082 8.578643750500083 0.07672362011939628 0.045519324588037736 -0.46740675722743374 -0.4164099544645926
P 4.5844318076396755 1.5414380039558193 0.6528652505952163 -0.2730588690380458 -1.1433657191690954 0.7468077664334235
Ni 2.2930705224818615 1.6132535399097643 13.552575824387938 -0.14669300531558607 -0.3279112981015514 -0.604892642122455
P 4.051030299713029 1.5195946861103264 9.597453955339546 -1.3463689690406362 0.10035658414289168 0.3074633146598447
P 7.922195534137951 9.328300537710692 7.8474752136779236 0.23558169802819426 -0.5936862318836743 -1.2657792831120265
P 0.43006157068159273 3.370083015039546 8.257811634273125 -0.05040467770479706 3.432652062718656 -0.9358486405876012
Ni 5.45943266528046 8.287163650062055 13.174101976769464 0.002118589004899577 0.535835125203161 -0.19586483905454657
