# total energy = -340860.00876647903 ev
CRYSTAL
PRIMVEC
9.34802192464818 0.00000000000000 0.00000000000000

0.00000000000000 9.34802192464818 0.00000000000000

0.00000000000000 0.00000000000000 13.68177499926042

PRIMCOORD
 96 1
Ni 7.750846798012966 7.940630335585206 8.797367180967836 0.9616072376089438 1.3069927812358588 -0.41708255505158487
Ni 3.336589403293242 3.8906466524266583 5.757003499707481 -0.050872875590467215 1.2263568154503461 0.37582226285021725
Ni 6.898045469787164 4.6464622549943 7.779744337649311 -1.868429409057208 -0.4506889302521206 -4.3063818224883255
Ni 3.1035525690829 1.7983350322134328 6.601292519327567 0.559932532471997 0.24583757142824758 0.3675389397955025
Ni 6.204740088663003 0.6680339391247124 1.827324182462929 -0.40394987432436885 1.8912970576840005 -0.454264820528837
Ni 4.563190077243659 8.002140318701418 6.70907707971154 -1.388119827725177 -0.5535664810446531 0.5393045718090003
Ni 3.4821941900741105 8.261790970834534 9.492688930383512 0.7719102179280061 -0.5317583840306261 -0.28086448112539375
Ni 3.4434746839848476 0.2490612130945073 0.8752711681067207 0.07892669640388987 1.6709905406473224 -0.9783824001847536
Ni 0.5688392759269829 1.4695838033029553 6.160574425102083 1.4834344785687872 -0.3514052674584335 -0.09577050743410603
Ni 4.480310516406527 5.572374461328294 7.446798651379527 0.0766471563410938 -0.03164745170195194 1.8005756826380281
Ni 3.5810214760170576 6.247628812452848 5.463802797512955 -0.3169190607561058 0.476834735409553 -3.1063394765627925
Ni 4.43685156328992 2.846463274909335 10.44273772887648 0.4218025862350736 -0.951624158254303 -0.47904228458383313
Ni 5.823191232907485 9.528532050180242 9.623650975894892 -0.4857916874925247 -0.04144618295992862 0.14951067727003928
Ni 0.7539674986676306 6.342053180151459 0.361464631025247 -1.6332215494286646 2.0354454422008623 0.647277277736253
Ni 1.3003191734723705 2.6804143645608125 1.574348017859445 2.4613723350169545 1.0389138819109074 1.571300386443836
Ni 5.1815804120618445 5.195265915904113 10.358608337531347 -0.15649996410367886 0.6058007557590211 0.2985827243407632
Ni 2.1123257347803697 7.884383288714347 12.167995535860024 -0.39105450641893946 0.24887532981330687 0.1300829075627308
Ni 6.801171920390004 7.119238360440021 6.69460166803138 1.234884907526015 0.12081510910755967 1.478419541852699
Ni 4.232859032657401 0.1987202463654154 11.572591986525543 3.042236732545612 -1.320010019431133 -0.037139585164774745
Ni 8.128030127611149 5.725812890335816 4.237751787241447 -1.4499633433945351 -1.5566795512068674 0.6565191080494952
Ni 6.756310764010871 7.542984186375872 10.822789966349795 -1.1985045691247682 0.048782054499709536 1.7614409214200957
Ni 6.6782547823968335 8.408040771116164 13.410232645791975 1.0662040850854282 0.303752955687793 -0.16600970336632698
Ni 0.032069323416181864 2.812801048586921 7.972247214748679 1.909684301941937 0.38535051405562665 -0.23645355911018628
Ni 8.632299812903085 4.651771931348405 2.143167662940752 -1.9410705295627022 0.6601749596345275 1.2469228125271556
P 5.5848914624517905 4.999770737042511 5.647467120047523 -0.13839117031811005 -0.4005886711616197 -0.10687021689169336
P 2.083767528333557 8.186735704202304 5.367825723401639 -0.652227936873309 0.05082248196850603 0.7253292848446734
P 8.013834693910898 4.202487309991052 5.923948885341845 1.0523959755577423 -0.23631369109821235 -0.3785178074045094
P 7.002612441084724 0.15212970596249745 11.67427509311317 0.07083312076247801 1.5131718577322197 -1.046458527027385
P 3.101729704841614 6.582549735718448 10.863082744499613 0.31880599336617355 -0.15317732748834909 -2.569407004530394
P 4.525330589155414 0.5755829388175658 4.850599679963947 0.3069195263412327 0.6778669775976519 1.5573737490604147
P 2.435589674923489 0.688872549210223 12.039249906305612 -3.2904723718923914 2.9781414447276 0.9928080886917805
P 5.296364771132355 2.9713341494482948 2.231210136190512 -1.315551212328831 -1.3691520283734226 0.7017399275605075
Ni 9.190741284237337 3.9878567306068238 13.794923371657731 -0.028335356609583456 -0.923899438645525 -2.509716787758613
Ni 3.057027464832233 2.5566465565883743 13.689026176865116 0.829066869644656 0.49017567549283325 -0.4004585733416587
Ni 9.282417333541394 2.7536467669517557 4.125574591437062 -0.1624939769035847 0.30687813158033606 -0.29178189936884585
Ni 1.1038704963922497 5.2923825138667775 4.713850274187028 0.11194043232574914 0.13365725517755045 1.4665361601515519
Ni 8.739325313920942 1.2618614119921128 10.988750070491689 1.1549068870394754 0.8469733176114317 1.0763756263017914
Ni 2.6625315989527105 4.53786628632241 10.38308519768203 2.197562495381003 0.7632121759333759 -1.421120965241546
Ni 3.4094852769011776 1.6244711756817571 2.9225225190775332 1.0126896581070561 4.485206675341449 -1.9786484878164763
Ni 3.558745140186369 5.63714690403532 12.638347793835766 -1.8633116282146682 -1.3252180459946339 0.11101380674642172
Ni 7.923392583477867 1.0488760844359162 8.888186951479575 -1.3418109173563084 -0.11179773610029778 -0.5841142719245231
Ni 0.8956442467090721 5.374542277029145 11.944860126287479 0.039186697501790574 0.46328245064641504 -1.0448441313524135
Ni 6.8803216205488145 1.3343740167082916 4.501481916066344 1.098734453612966 -3.6203875877978486 -0.18993099006861483
Ni 0.8292957275349648 4.731547948964477 9.154078342933115 -2.1224500305168803 -1.3041586542211734 0.10585823068741124
Ni 4.379660366222293 4.638983837594153 1.0882144295650413 -0.6550049853978138 0.1352042879496962 -1.3952867777872615
Ni 2.2195008041462314 0.8954301770109929 4.528051798286892 -0.37220420648165575 -0.5785241794312552 2.204170230505507
Ni 1.4764826433545915 0.25738843086957136 2.3622675315237442 1.9879219426986021 2.1803813556160256 2.930413542524018
Ni 0.14358374447847905 7.000135215320925 2.804052235030924 -0.8029560314902171 1.6206367707851186 -1.4353203966703798
Ni 8.609481291810884 0.23126912329738172 1.6952815056372277 -0.8663753762871272 0.1837891388369351 -0.11182344713191063
Ni 1.4631991044475796 5.216719625820786 2.4281047139081164 3.016635744148056 -0.6432506730753632 0.1883505329553724
Ni 6.565807428763868 3.418487421846605 0.6985972962369396 1.4880984597033597 0.4969165937610926 -0.8710313870019
Ni 9.173970933217506 8.651584781773714 12.619781687837726 -0.4588971770945259 -0.4090473434519342 -0.03682693902036238
Ni 2.13570513717758 6.8497161973387115 7.130599011273021 -0.22298483519979018 0.1388753090433802 -0.4141085600249256
Ni 7.648364435565697 3.421619009132917 9.323390647674625 1.6433678938340472 0.10234096156277213 3.987952238624964
Ni 2.2987346365007926 2.0396448656726873 9.445459920095056 -0.06683634089825909 -0.047203140048363866 -0.7499637955639019
Ni 5.311274865823899 1.5338888449224726 13.365137788869086 0.03777901852098655 0.3650639958924487 -0.4915332179619922
P 7.565148345945558 6.578875963170624 1.0346839178147866 -0.2887258861513415 -0.4798956337230638 1.4270841248035162
P 5.627845622393886 7.302515674874132 8.702237972429263 -0.47181851314188417 -0.5124249738093368 0.27393021589940564
P 6.0599672758179 2.4131731187665473 8.524867672939092 -1.0527487309114707 -1.0195226218684892 -0.5220990065639911
P 7.677689179796025 8.824233395477865 5.343649869551313 -0.5071207879876041 -0.5119225802516215 1.928563655344943
P 3.4449329753778763 6.638189161175544 3.2121934082591905 0.5722175204869371 -0.2642297007821901 -0.5199449363354658
P 2.013582581033174 3.4944774906538525 4.120608922283364 0.5866884604096025 -1.4184848131702796 -1.1819006420195
P 2.0569480539322784 4.752263165162885 0.3892189076015439 0.9623094058822909 -1.9876296082691642 -0.269771970756658
P 4.0614910979330245 0.7217317804642954 8.378924487770867 -0.852430484071261 0.7555230348192343 0.36276054457025264
Ni 9.115854281996612 6.035466110810669 7.385148447937062 -0.5585875884083283 -0.34412673151914924 -0.6550209262374139
Ni 5.389340195459687 2.5649662959460384 5.4721627333641445 -1.633801847412167 1.8996631702605091 0.8403311297045657
Ni 5.6226107302137835 7.731898357925343 1.5952950649972575 -0.27448660262350794 -2.1289587781696753 1.9651136865548349
Ni 7.115274799217944 8.51738458152807 3.285952104274669 0.975625663375223 -0.8303454792467635 -0.06487304652430118
Ni 7.778675858763265 1.447213987254765 13.380830312981121 -0.5388919097516138 0.33142085391670667 -0.008766947559352645
Ni 0.769412300203285 1.270807468807039 13.476493293561632 1.348220420427078 -0.0064933210338275265 -0.5324124726748574
Ni 5.6451301146099775 5.999747319703213 13.14706339827209 2.2296318651117213 0.5217940737290626 0.3647158685244106
Ni 7.412149273960293 5.846009753999685 9.440273637628053 -0.10976990703699159 -1.5902424747639772 0.593595729052397
Ni 4.030698714287918 4.396580285590127 3.3115638142658232 -1.281182247930658 -0.2618349752977684 2.137528265006241
Ni 8.041794626965698 6.46036174342179 12.652029558469335 0.20221649230418726 -0.7457772682863801 -0.3049372058038813
Ni 1.46980815582496 6.845219798876873 9.283083847492183 -0.6979143831668303 1.9546636948661047 1.5694900727079744
Ni 2.9217989821940686 7.38866704332383 0.7099270985981628 -1.4508156640925014 -2.7178244487362546 2.287910803358273
Ni 6.810519942140189 3.292663049089126 3.7490119704830924 0.6765963384153445 3.0385294588973544 -1.1034305735370544
Ni 0.03095223481703486 7.3446752529674635 5.05653753392268 0.8102307107747594 1.1628060872818944 1.3861066539498903
Ni 4.2976221273426765 9.062720126368564 2.9872510260823333 0.6595856627899609 -3.364376161160393 0.48574669318720215
Ni -0.10511196096559605 8.576062114053975 7.1472768168775245 -0.06139897193277168 0.2585352215005741 -0.4605079732250714
Ni 1.7786574464292952 3.135074098424521 11.757528574820311 -1.0801296940275849 -2.5927899022307086 0.6794471776005783
Ni 5.6060740797377075 0.6153868154298502 6.850013464430368 0.8890327086753269 1.4497607404654258 0.2609960243362408
Ni 9.332868606927137 0.2214163083726876 4.143156350744809 -0.7125565585600373 0.17438198659042226 -0.239921977274761
Ni 7.820872828943596 1.6979840187252058 6.755404005901103 -1.798410042445277 0.6015962307593704 -1.7723100029241154
Ni 2.1020709549204177 0.0944664337964863 7.66904506408363 -0.8908612772436334 -1.5216603548192051 0.44375003704044225
Ni 7.2088671929807875 4.275102742946483 12.054122608910154 -0.4308384711850967 -0.48475424736694583 -0.2919503066259101
Ni 6.001196263074492 6.999817382581418 4.67336586159133 -1.609356826995925 -0.4292626420575446 -1.1818736454363066
Ni 6.081224677277819 5.55543584591696 2.8237401036389866 0.5836640717609819 0.010368230608201499 -1.2267684490664679
P 4.83628318465354 3.7222233445535897 12.373687536846727 1.1038779454871182 0.18540970515949362 0.8427484808968067
P 2.313429726692082 4.008824343392487 7.7546794869305415 0.06981727790345395 -0.524446166639929 0.25215708588837216
P 4.587924942794647 8.010291793667578 13.493978768245348 0.5377601101400158 0.7820712176214079 -2.555843921133979
P 0.4358533837066877 0.22180799048402033 9.17467016524442 1.5674007942791135 -0.19251546296633942 -0.07203408304911464
P 9.080827244498671 3.57657181766397 11.083660535321307 0.02517727059657599 -0.19974874748998503 0.22158049865309581
P 1.0451836158445935 8.578427163556773 0.8486171536904205 -0.8390316941668517 -3.107925332992673 -3.8689147902431174
P 8.683050222984834 2.4487890816347493 1.7868668791303068 -2.9330764340681617 -0.24659990351556885 -0.22807536234882012
P 8.899999111763108 6.640385946286837 10.625225135472702 1.4831128335633101 1.069996462248325 0.25207841013163684
