# total energy = -340872.7507991565 ev
CRYSTAL
PRIMVEC
9.24857150805376 0.00000000000000 0.00000000000000
0.00000000000000 9.24857150805376 0.00000000000000
0.00000000000000 0.00000000000000 13.53621926197006
PRIMCOORD
 96 1
Ni 4.3597210480102815 6.87914286952387 6.133761659564579 -0.1952446889720444 1.3734982211572604 0.37100530107754814
Ni 6.2333891199764135 1.2350912137945858 5.40478186605637 -0.36331641707372264 0.4608992951262191 0.00013781112944492396
Ni 8.868464326355674 7.488475745052853 10.789950286828082 1.515759415953738 0.9969496216639798 1.125581912823113
Ni 3.2619526217795096 7.7928092342483595 3.846831349773641 -1.4604261905990719 0.799026614528824 -0.1064297869201651
Ni 3.845426491783949 3.6506515789274077 9.736236505416915 0.3262691345124381 0.8438018618619855 0.3779189974782459
Ni 6.368085313273787 6.9018573607857725 7.977042625467964 0.11790539165993243 0.5903828785420542 -1.2916962600881043
Ni 5.319417552397022 1.8859224290190724 9.094282068984437 -1.385528669959233 0.18005358305390282 2.515606156659855
Ni 8.304467947636889 7.894996699212838 1.5815445466810347 -0.162060746020908 -0.1088617934004254 0.5825237875089516
Ni 5.39593098326417 8.205064302651984 3.9983016769479325 1.583369658903544 -0.6458171482509588 -0.5641941359618283
Ni 1.3978105783149082 6.107913752325668 2.3011573871151176 -0.839000069597968 0.479240259527252 -0.18546498387746124
Ni 5.479723039792198 5.878317968296056 0.042407474260261147 0.10882476951490291 1.1071262772210868 0.9216854617133418
Ni 8.475659003523623 3.1642044710681714 0.4296423825617586 -0.3824012016193156 -1.4325675165155907 -1.0805791228601775
Ni 7.990589932797131 9.12832143587753 6.653823624891449 0.8729581717109675 0.43432385863053585 1.5671467692867787
Ni 3.893768774286378 8.08248373783714 8.516515492366691 -0.5343659968568023 -1.3961779221429633 0.29642942544318623
Ni 6.68021534812637 0.7085783699436202 3.0984138338366285 -0.08148083028431129 -0.6090786551793447 -1.213282498764891
Ni 8.981759325524365 7.148646238974945 8.535520381655815 -2.427736906350696 -0.8046277627656853 -2.0302741824125676
Ni 1.4124418182075507 4.764891710751602 6.956438729528136 -1.5617304833672134 -0.7899159104768073 -0.44784786125889975
Ni 3.3723990609691024 5.578349804782804 7.828428257129859 0.5581196476329744 -0.7334069196464853 1.2237944540398085
Ni 3.471821203096729 4.284298948563696 5.665598052428329 -1.5611573844725628 -0.7925674891670416 0.772635783240121
Ni 7.453691868165225 5.917578153722267 10.097694720478978 -0.9338845748826948 0.30270291715672387 0.3283447860945442
Ni 7.67183792085028 4.02924184757805 5.768080546819215 0.8807614698054703 -1.0118905592445282 0.5293595447811463
Ni 5.981790984679673 8.194946365583368 1.395827684615172 -0.8162977429044458 0.007176720254097317 -1.0329795187043436
Ni 3.100167362966619 9.199849886781255 5.914502078887695 0.6675244580210633 1.3721669039403463 0.686674805697269
Ni 4.223563580437917 0.39385873511003755 11.240395480951484 -2.3681086531651023 0.2421889189320668 -1.3678428226436958
P 4.22256473473096 9.2184117695022 2.2189792062895335 -0.4660314741464619 0.06167176597818411 0.32772720711520337
P 0.7810732965545414 4.0763078272327 4.574863164717377 0.44072847660529907 0.38379705352557775 -0.028612778640686207
P 1.0081867640309397 8.498909911924445 0.8099371629141795 0.012358778675669037 0.017065697233035124 -1.8827813069035055
P 7.217085667044194 8.445823112313972 9.160081029930204 1.2187579200571657 1.0585578813940804 0.5797567662867757
P 2.175800401177789 8.63011014524747 10.147737815254642 0.6977182079956241 0.7245589823375521 -1.2091880169805431
P 5.1960786047306 2.4841940132006464 11.18859238304588 -1.3949450781771267 -0.6522477343676508 0.3528132035495537
P 1.701191464660261 5.67788292976676 11.21110248088071 -1.942979830770273 -0.7287977030092481 0.9227910360726945
P 1.4220695809940493 8.292685267723346 4.964259464145872 -0.7520808419069047 -1.0414533605033096 0.3411545362647028
Ni 1.1037337547584292 2.0837586189960087 12.591255686753751 -0.38714514406220424 0.08569615391723952 0.04935232518088275
Ni 1.250369853682478 8.759645635725565 12.110963503135068 -0.04018839929342755 0.6059120845259048 0.4567801307515231
Ni 3.647581053235652 6.141560054935929 10.360851720262334 0.00592767833834463 0.4117148629817683 1.5930827724262497
Ni 5.358280049254722 0.47130719654175474 7.435458309727586 0.656744850907056 -2.8555872414417465 -0.7013203235245856
Ni 4.593913372006167 3.754374306737764 0.31589512825352883 -0.832056034179967 -0.5831398238263957 -0.17335328821559176
Ni 2.2136455551858125 2.0864407046906144 3.206554604185996 -0.21001850484710924 -0.6318511729891698 -0.4241410045602631
Ni 3.361180543908562 4.2225184918741565 3.0332363768863004 0.005020336032726838 0.054047673774023045 0.3131559941692478
Ni 6.986925720161579 3.285665958748369 2.3383819619848367 1.2288425579866773 -0.4074961969147305 -0.6082103936417783
Ni 3.110645994318303 0.9239443020776452 8.45816070650916 -1.2941411220841712 1.0629866065893951 -0.14486109431316985
Ni 5.423334500205953 7.846691410995852 10.329556404491965 1.267769831179494 -0.7871707436315024 0.23899612302638198
Ni 0.12609409707477687 6.672178339613914 13.30047220812126 0.4736262557745843 0.6497043991205069 -1.1222456493610284
Ni 7.494320842152821 0.2820065130736172 11.15568504128734 0.05482363270809914 -0.9022036988396462 -1.0333852387831943
Ni 3.4710720688165115 1.7522435785713775 13.25787421329097 0.14245351331294176 -0.3811596159027306 -0.29143197222859485
Ni 0.14437667294062737 0.8053165766623692 4.515303290011544 -0.587431252112898 0.8545727272252444 1.685148834425575
Ni 0.2947454952658584 0.10340642666982047 8.862812524397144 1.2312123437704343 0.978074896246664 0.3875709187457132
Ni 5.581374087617757 4.855481467229752 2.0595763794591617 -0.9248067809511428 2.0300836636683166 2.148027364765352
Ni 3.1616518653726158 8.467492515012115 0.11582170886443688 0.4164040409273216 2.1212035597042886 0.7740244360575315
Ni 0.7216965435616505 4.38955693921993 9.48083535757665 1.0546901709085579 -0.6297611232293606 -0.6066240229912649
Ni 5.609018067414916 4.559952617969642 11.689648534226492 -0.3820908694677484 -0.24444120530135321 -1.4723607372531287
Ni 3.1209119085286905 6.330082933552632 12.783428976486524 -0.3415242608992957 -0.8341789940602407 0.418038491206951
Ni 8.239903670967777 5.216295981725111 1.381722688432954 -1.164338978986653 1.8322619579977153 -0.29001632282799084
Ni 1.7883500011635873 2.3290122343393023 5.65127663967627 0.8749181236508159 1.3570308196298564 -0.18140932575084887
Ni 8.353383641563681 0.5856167639887156 13.389175256041826 0.30032644650474727 -0.464678045442361 0.32295369698595994
Ni 9.068686647743673 2.6549041433766223 7.6368644482497565 0.330929773212901 1.1500158774957612 -0.003858454514141742
P 6.828479195609904 6.6611910368373906 2.7169898029210646 0.35421856853751255 -0.11886569869067272 0.2783193461060368
P 4.33220654821217 5.633240075808615 4.409044603934081 0.03871978516770106 1.1842984528277152 -1.7205284994764498
P 4.90812433541491 7.659426338084207 12.55037607648228 -0.09489401836642368 1.284377100718872 -1.2535380038508281
P 5.15280453933384 5.616897850214242 9.157657904233698 2.07412691793146 -1.1949554183209292 -0.4192427959276973
P 1.8927848689687188 2.430894496448878 1.0010672137974654 -0.5103346669392114 0.3163613884804229 1.1170769606758955
P 3.000708226553549 5.246085630077955 1.2129057408145159 -0.5885756501299864 -2.6757856264976496 -2.420594124658328
P 8.925620497364859 1.8277489151602095 10.79673226420689 0.5000659380233518 0.25298035312061595 -0.4872065655621802
P 7.384827005813382 5.160147904994243 12.85736390565831 1.375503167402431 -0.46257308328421626 -0.573652967381883
Ni 7.9476303188266355 8.082844432120208 4.486918499648391 0.021021082336357345 -0.5295552057317203 -1.3869103807981082
Ni 4.835809755945522 2.1159713930453594 2.4831516992082947 -1.1367315016820294 0.09935873900599662 -0.03692875470554931
Ni 1.8051916496114393 1.9729514855233483 10.296352183592747 0.058221088425422306 -0.030556018409986084 -0.6188318779113665
Ni 5.526483816591946 4.715291622544117 7.03531424552081 0.5299868939525002 -0.13778207597920142 0.7254560402305249
Ni 8.790952049781568 1.3316462988003928 2.3000475585518325 0.5271684506670985 0.8492639134178213 -1.0269479677982831
Ni 7.079448428054117 7.421312619831381 12.479094562433884 0.26132538265120153 0.14942737352761362 -0.1256007034216611
Ni 1.657908150692141 6.594185137329051 9.27179544825335 0.9562943100364628 0.7928940192685248 0.5377020032085706
Ni 4.396585853454069 2.5727860782648824 6.987180055873998 -1.6200109642756617 -0.4351563818341603 -0.8518195899601395
Ni 5.549522007851474 3.7157800184495238 4.578977854115757 -0.16423924172946555 -1.4502927017094958 -0.8114049335885186
Ni 1.9727202712393306 6.094734538136657 4.695254592691141 -1.155879792475706 -1.2065510935783286 0.7663381231568672
Ni 1.8561882720943912 7.285340123686231 7.028695042997951 -0.49793757882643924 0.7634114364283755 -1.051101425116035
Ni 3.8041038749442992 6.934976494828474 1.8441605050397887 1.5037276816001846 0.9962703362087679 0.09759393379609
Ni 9.003299248223458 3.931262482582693 11.470957740688291 -0.18862101300793968 1.3800388504892556 1.00114489069225
Ni 1.0796134806496989 4.578542246404667 0.05638853958624566 1.4315624722898443 -0.21021519423894766 -0.16976582797464956
Ni 6.374281856085462 5.896611642447539 5.129170740078684 0.11018565441817153 2.0204289141873724 -0.9416680754828557
Ni 8.324148907492479 5.431269774433441 3.7776612845668947 0.7645362940614381 -0.21282794927144638 0.4735892318890618
Ni 5.781180223294524 0.7158218510333278 12.739382655381146 0.38267399566472804 -0.1862139462283438 1.8432331122972383
Ni 7.549932501744768 1.4874847262283475 8.93697774299581 0.6341044877997208 -1.3450163116674836 0.412837920842618
Ni 2.847394659107068 4.001042953499247 11.997733243965902 0.26337403765011413 -0.8659583433543667 -0.31984420482270076
Ni 6.987249420159204 3.8689548573255936 9.414237320065318 -0.328228572231654 -1.1127834755068644 -0.6666258574661938
Ni 0.5388476634747439 3.752256383896162 2.270849818766073 1.1258081699013065 -0.5557370063334106 1.7820130891444923
Ni 7.1704173759580545 2.590284375279345 12.006192912189542 -0.2368237979654115 -0.05278834744562522 0.3030782982182716
Ni 8.483390809181175 6.4313270442383175 6.303804042888311 0.4637563049590401 -0.47355760732017804 0.11474961963977011
Ni 0.9582629758258299 8.723372738848864 2.848643216240764 0.9002386046934755 -0.7564710005548004 0.7260283677942271
P 6.723036233526455 1.757672489960114 0.8539353914484827 0.16697798081686727 -0.5101176658323989 0.1508389091631596
P 3.94881627102532 1.8639848177514693 4.706976232033704 0.0358648322174092 0.7416010254215034 0.2533220527307508
P 2.4601384790914413 3.218900522095407 8.19572047100626 -0.45455381252416555 -0.20412167974670004 -0.500486313390222
P 0.8759349681442024 0.9695739785999776 6.903634011344165 -0.38170366133165873 -2.300778146239244 0.3045610534113852
P 6.468756012535109 2.698363180200596 7.453597532737346 1.228996567066038 0.14266280111027044 -1.0378764417853288
P 6.269218085427801 8.090594734920483 5.920458158843991 -0.21594746873703455 0.034099255676554176 1.2607278367310482
P 7.5203648191045795 2.4138123851456474 4.081711767478763 1.3211860420171053 -0.4239723401928827 2.1375082104015832
P 8.556463771502141 4.8559993872259515 7.95857970246058 -0.707389155426485 1.2857420993871986 -0.5813711619617471
