# total energy = -340897.38252410333 ev
CRYSTAL
PRIMVEC
9.02652564823348 0.00000000000000 0.00000000000000

0.00000000000000 9.02652564823348 0.00000000000000

0.00000000000000 0.00000000000000 13.21123270139112

PRIMCOORD
 96 1
Ni 6.365225910257363 2.016904894911327 11.43755821169738 0.6186819825970635 -0.43056387736747137 -0.0156832150632117
Ni 4.509715290016933 0.248613076628813 5.933428526571996 -0.3856798723705874 0.06565620454722886 -0.588308769621845
Ni 2.5352350646220043 1.664301732077477 4.641647888340048 0.31639764103499707 -0.6230320320356432 0.9188032550695401
Ni 3.4363801777774654 4.243559161216817 4.917867690340978 -0.2573460862884794 0.7218703797617956 -0.45517293416540316
Ni 5.210173663308969 4.607319109480938 2.7474206952294598 -0.8382444223788661 0.0735795731593636 0.3652187763027581
Ni 7.201434199476446 6.21846363330691 2.5585532877627943 0.4042707479988973 -0.8736780805961275 0.6991310291827508
Ni 5.085038941286449 4.541705296137383 11.510920394469206 0.23690710170783716 0.5550263534196312 -0.38011600512956467
Ni 5.707417869617452 7.986669699597848 12.337811504140452 -0.7788928198934263 -0.19206577702343053 0.16878906588367704
Ni 1.9811418011615458 6.489331608380973 0.3555205358525099 -0.011928890227102036 -0.10658302466857775 -0.11917088863591734
Ni 3.0151032094796233 1.6359042830777768 0.5602827519471385 -1.8276239450050717 1.1190700798465243 -0.3706324911191617
Ni 0.4178929239145026 0.06907819380321249 4.564626352159297 0.6470363653700405 -0.37915184144408254 0.7353367896793465
Ni 8.614229853525108 2.340216982728004 1.4013021792198903 0.020508918586629198 1.1194259205240462 0.22168308566923112
Ni 6.971348066290699 0.5746972104047423 4.7006226922305565 -1.4971875664888215 -0.6603649641581465 1.2947887829704992
Ni 0.778240845566453 7.398140241625674 2.5459766298825395 0.4952484620300503 -0.2845678981189099 -0.36075097033939163
Ni 7.4125285231595335 3.9998971337858222 3.9666064053510497 0.5031844290476754 -0.5995956553895738 -0.9576523667262539
Ni 7.5718918296089 3.8453088592884077 12.725019657511542 0.7321563350688358 -0.4376729776084269 0.09025703381504456
Ni 7.848780497144122 8.577537027656138 7.185166595348265 0.07777304241542089 -0.4984767391593609 -1.1085254715614588
Ni 7.021797316913498 0.7131334202994668 0.4265520697585626 -0.7617553888821913 -0.22081662390387777 -0.2438963885414767
Ni 1.8100710912307385 6.445895968016525 9.208017262559688 0.0009088849675145637 0.5727957615879102 0.11307917391588268
Ni 9.350487426668643 4.9504805267160314 1.4174993764497257 -0.6706552903405611 -0.9875692088903444 0.39208629011756346
Ni 6.467315912859592 1.641211880030041 6.9286309373504 -0.22576676882030147 0.9797939358202998 0.05112150126616357
Ni 3.4060781319122415 4.288448072175339 0.20076888124482967 -0.2651856369375562 -0.6166137872141252 0.6771038741793823
Ni 5.956026432983551 5.667872661712911 4.902754578815168 -0.6404260591423745 -0.22086238954014864 -0.20528124727244002
Ni 5.362072033228535 2.8809239089772247 9.258749043428415 -0.13347213574993785 -0.4501297153145409 -0.41431630516035745
P 0.25711786888803667 5.385676397225425 12.469316245158232 0.03805824032430219 1.1305253728713174 -0.424388858905011
P 3.977809226061008 6.1975582004132965 12.603833137711677 0.3102786726214527 0.33328078994358085 -0.6491251295782692
P 2.4397976112609645 8.415438684001778 1.2658790235133728 -0.16408034755409803 0.495901779343333 1.62103117801006
P 6.228176174668536 7.825780910350976 5.7933368519135895 -0.1353133027237347 -1.1553532305482748 0.775786927274593
P 4.86178588785047 1.1603778969515173 12.760306150718671 0.2694068741077554 -0.3018426260389576 -1.6726792412036549
P 3.9081425027998233 6.238791368573065 8.060291846302029 0.5861125333014745 0.29415708446924177 1.1352934836839224
P 4.685804748086276 0.9301292863080477 3.797066594133004 -0.3596561946133161 0.30566071423346713 0.09008914077861259
P 0.09737274041302196 5.5635982399568595 3.5689220665670396 -0.17113082664297624 0.18448770756585645 0.30042851930025033
Ni 1.286983942618967 0.9342363553782522 2.4627060301472774 0.2838245921949822 0.8371213645180163 -0.05192625655564605
Ni 1.7503515989923348 6.473932355999064 4.6310128360795755 0.6989893613985639 0.14694445920475982 0.6127260221239447
Ni 5.960259873409762 5.750799350829327 9.154696674197918 -0.26508202148015636 -0.6379269468696045 0.8219575122933844
Ni 8.563997239512608 2.409477512344883 10.07681491918771 0.1114696633369177 -1.3660042267730603 0.31451225108682607
Ni 2.31332696347495 5.2763290681782635 6.948461311065417 -0.9434357089062397 -0.7200166143825084 -0.2796866587672086
Ni 0.5766144444058664 8.967871066783298 9.03572977700105 0.6390443483034994 -0.11701553285581139 0.8114491565628928
Ni 1.6376734820618648 1.275402910493533 11.41167735798729 -1.0261331852064715 -0.3898949388931995 -0.14558100319832992
Ni 4.196395565850182 6.8176534178107575 1.5664686388675748 -0.05498612642789239 0.5666927340139659 0.038219191382198696
Ni 5.526697804003021 7.924828973883624 8.007684353449152 -0.5284041228464126 -0.09973026341280243 -0.6043100301461076
Ni 5.282638609453149 2.7991526151157227 4.876371850291226 0.20262941147188976 -0.2980088541151642 0.5303247369078932
Ni 0.8602134309450221 7.301646684789438 6.989098728546869 -0.2821983694454688 0.34966334506666236 -0.24603451793040207
Ni 4.924727849667034 4.579968737431003 7.059184282587961 1.102138337088192 0.1759526735116518 -0.1802713554916637
Ni 8.20722382193055 6.999447639951241 9.162372831422756 -0.15310867903394276 0.12017953240608978 0.342902629304061
Ni 4.5760331723439505 0.44869864989866576 10.394135199424603 0.921288483385239 -0.8366593372799332 0.31810253954124573
Ni 8.094202697033776 7.080018405930684 5.00454670607824 0.8033404114128294 0.12352196651576149 -0.9207269544548143
Ni 7.0629853524461215 6.079337796869408 7.01515108624011 0.7007551950497352 -0.18518087697813915 0.4620421504814107
Ni 2.6110578782257816 5.010100727174716 2.4650439002333937 -0.6161052230088228 0.3024890013737049 0.14807780147825467
Ni 2.4323868338837387 5.198764135166686 11.303266079627118 -0.6703020207662004 0.07570818946659219 0.1478073214256874
Ni 1.008614924913386 3.4047241530978885 3.628531435195209 -1.135125076426858 0.17997233619400618 0.9382004286492294
Ni 3.7974141153620216 2.7261189978695133 2.819540828102253 -0.41123072425649826 -0.415897019383916 -0.6904820952585011
Ni 1.1230532143025151 3.326951610001443 8.114933015334065 -0.8076873755276153 0.5029915963105789 0.6354509745252863
Ni 3.4536298678723245 2.870832253547579 7.138795528914298 -0.39925915371691884 -0.6499049451670872 -0.262002097003252
Ni 3.9754171968223173 6.745937673277185 5.902052324180719 0.12716856212941327 1.210190747213445 -0.3643559140818306
Ni 0.6635985567026279 7.296808467159484 11.501738612802804 1.0733648644999256 -0.3021115634296281 -0.5668927658399141
P 0.20402474896707756 5.443310762089724 7.944574498259608 -0.1712580962494599 0.13220663877395294 0.38328720376869474
P 8.457998751399613 1.4559785517010995 7.934600187660539 0.3315553226120419 1.2919875660762783 0.4161924391371477
P 1.866875015755568 3.2726299799695946 10.281113171875287 -0.06295731755882707 -0.10436467686102026 0.18512945491491342
P 3.879004878714943 6.145457095636988 3.720574012342394 0.3798457821873136 0.36234042631369856 0.8994600746562381
P 6.915428741257914 3.938941007563643 10.508544603932359 0.20405251707166147 0.842025486687853 -1.0805063606407135
P 6.263208119858567 7.753478441664518 10.22311594068874 0.20989509189536756 -0.9786595651055404 -0.036445130200911426
P 2.2503579220820993 8.504810312274516 5.7525667445083295 0.10633594165477817 0.2523733156642363 -0.31809842577618763
P 6.9446927366988 4.065501920603947 1.7067724368735642 1.172875298592438 -0.6023385082420336 -0.5112908602048936
Ni 5.335822897280941 2.967542446994111 0.6381581974334749 0.12491524731886229 0.017940643638820714 -0.05328714145891467
Ni 1.4768930111201415 1.2250710047013114 7.044242675045302 -0.014127440540317606 -0.8486784732279964 -0.855027812484792
Ni 6.796693825764571 0.5098614835531697 9.174725631472372 0.4461622460263606 1.5946958825496405 0.5655359947017035
Ni 2.8064821537640876 1.5467673444661936 9.289134133327586 -0.5222213910744684 0.4189931418107365 -1.5825381641411842
Ni 6.28402328749789 1.8494899277792733 2.71272814739556 0.637795820608379 0.9318166366100726 -0.9196586610913
Ni 3.9926307808154604 6.875558578437928 10.398032853104853 0.7207563207620102 0.6581242477530859 0.07447508839043947
Ni 8.255217857636653 7.094722615854559 0.5120188231307057 0.11740351232284942 0.19706477289991867 -0.80822833563275
Ni 7.555174704514354 3.8478633659848205 8.184596127985078 0.2983814069632345 -0.2528191449524033 0.2588779495519735
Ni 3.1291533582753046 8.624962392260215 12.456157376387806 0.6600422907114052 -0.9991828818698728 -0.7177602142481638
Ni 0.10104924422026224 4.715339539290033 10.177392076128035 0.07006513224820192 0.6902488962017725 0.12622213905574392
Ni 8.59919166216036 2.374328222324275 5.682877454933572 0.1476373715067264 -0.43435059810341325 0.3319970381351508
Ni 3.7735028495005443 2.6230992631480956 11.316477302245032 -0.2553506531250054 0.09359689682155493 0.5473346412023283
Ni 1.19105905688476 3.405491407759355 12.47444150629683 -0.597494549886171 -0.18561899295682224 0.8141056203491334
Ni 3.116660647081539 8.285853884942751 7.978210039965769 -0.6319288203046407 0.735985736117255 -0.04280166854655854
Ni 5.512869167045761 7.742420948013966 3.629284247415989 -0.35425867774682857 0.806474843276753 -0.29114529422611146
Ni 3.0374709394927373 8.46882155538901 3.4988229727378046 0.01616221158215926 -0.6102166254385296 0.2801602559695175
Ni 3.5037090309525336 4.450140222185393 9.173192927454526 -0.13113140343190322 -0.444029515954074 0.3952531178813193
Ni 7.357466718042505 6.055570955414796 11.455248396233173 -0.33861840010641037 -0.026265618564748315 -0.29387991954845516
Ni 0.6255734156803338 9.086551823124067 0.21690199014411904 -0.04411036005565307 -0.5403402121623662 -0.07030141662872409
Ni 4.632178160512462 0.3565053297768161 1.556058347090285 0.5784786709053006 -1.3961205865424666 0.9276090262866282
Ni 5.9778796510472105 5.549543939863874 0.40958220195200296 -0.12714696486285845 0.8608768150664011 -0.4630322823088219
Ni 7.99467622765339 8.805980333213803 11.294243164808268 -0.34753215765627243 0.7081913396128061 0.06595805205836383
Ni -0.043947444356274915 4.779292471954648 5.717464392419953 0.2414381568089713 0.5401175546285988 0.7401707207328801
Ni 7.932781342786592 8.781455263623153 2.52553877100615 -0.6264166322371598 -0.12591746333113152 -0.31724199131316333
P 8.27950823756615 1.7040635765923149 3.5398972740500225 1.6828759792309986 0.5787491509578677 -0.32111304423279535
P 1.8340726223465054 3.112481365807902 1.714778062276563 0.6294307364731354 -0.5038783697909065 -1.8223593541720227
P 4.529979839605085 1.1753619291636923 7.939039432866532 0.8445677934937327 -0.5479085114279273 1.1545266208819214
P 8.613715341575654 1.6632095225005654 12.420658759833094 -0.29384263855261655 0.4171699725590686 -0.9000889664894886
P 6.2672249236744815 7.713427748335951 1.2653933964452915 0.526139495181952 0.3595618351272969 0.7783726857238982
P 1.6666576552144514 3.308140331007363 5.897348601779656 0.3373153650242707 -0.5768203093662712 -0.3415872529267472
P 6.815297494673783 3.897355804912143 6.1447683717467525 -0.20210619197856808 0.0230450547449216 -0.727191791974709
P 2.5088776103692627 8.591230266731964 10.242734191056174 -1.2671669074881724 -0.8214445772127079 0.035084502407958934
