# total energy = -381168.0332981363 ev
CRYSTAL
PRIMVEC
9.28040011140708 0.00000000000000 0.00000000000000
0.00000000000000 9.28040011140708 0.00000000000000
0.00000000000000 0.00000000000000 13.58280364026152
PRIMCOORD
 96 1
Ni 6.348944582661883 4.821956795818264 11.612088825165795 -0.05675504540285709 -1.1540167711250384 -1.7026418490040163
Ni 7.59160874516399 2.4198551008070224 9.988576522722946 -0.2752260518926937 -0.021935880841142865 0.39204978045267314
Ni 8.998693759983835 3.6078577054747623 1.900547100379757 0.0754654773281668 -1.0807153913277256 0.6648582240428098
Ni 3.4383419133860444 4.649536238432066 8.37879735666096 -0.7655359389705462 0.7849644800088029 0.9341632824653783
Ni 4.752576523089958 2.8569619554757293 7.354042561711593 0.44685978631401746 2.2166447088234342 -0.6368753656766386
Ni 3.9979593325660385 2.86058131159719 0.9831943782346565 -0.21229341692421502 0.21066976527786296 -0.19949523671828226
Ni 4.770181442480754 4.909201839146088 1.7411385922702258 -0.9438591695969034 0.29332378993466907 2.104898394786362
Ni 6.997830172437594 0.7623412677031287 5.032985674580105 -0.25265613701197775 -0.3895498968489549 -0.8758234090739045
Ni 8.955168682523194 8.138057276302055 3.171258488703091 -0.14069822118473188 0.05841366405220263 -0.5738062051302956
Ni 4.581742914157016 1.6919283415787973 11.890305018062348 -0.13490501154172252 1.0180637779347756 0.8243928612077543
Ni 8.572398571677953 8.591738925926988 10.930964980788211 1.2024468416019678 -0.8372020971572807 -0.10581426482335325
Ni 0.7008864568407893 4.06271796593925 11.066929341630988 -2.5483892646281467 -0.2800808088818338 1.2328498793738576
Ni 8.425666162353814 5.616479707681365 3.41941639303093 0.42859955455224896 0.21610224914734397 0.43299048453109296
Ni 0.7026822143010525 9.21305244637742 12.670039612029171 1.5627545537563539 0.03504876407401706 1.8509155685431606
Ni 1.2538563252777006 5.792102003175009 5.1562089738353105 -0.7847721614923387 -0.9981482699577713 2.3655383213347645
Ni 3.8041660132626003 8.056584641967945 3.3152503958152617 3.3707830931280016 1.1830892630109626 0.4033117265197376
Ni 6.1839205043239005 8.579590881919318 2.230147013720679 -0.3457223581410433 -0.5659879946374575 0.011274544472554774
Ni 4.151577798921264 3.461644998568064 3.4837991701915274 -0.10212601733848864 -1.193857300160744 0.6793289068551591
Ni 9.493014282572554 1.5849624475891684 10.985893814151547 0.5013435191841946 -0.33165790962817715 0.6791041924388628
Ni 8.980680502979336 6.8928966861161705 12.859627981951498 0.12576808223746083 0.7056729440663267 -0.6046738412434295
Ni 5.902872861292327 7.652525292808266 5.984433659429396 -0.49337541337705354 0.355979002872045 -0.6993266901333247
Ni 0.567875119377111 0.323392253572601 8.977174367741675 0.17241072179666436 0.4612006284167219 0.1603995562684012
Ni 2.536695340728021 6.551795572669284 12.875696995090752 -1.9380014037190751 0.11104594553593779 -0.25453895585698744
Ni 5.374957289576204 5.387383745593219 7.509117122875684 1.1030351378708487 1.8793540263895119 1.1124147793135357
P 8.130753601256952 2.8911602306233766 12.052117149852542 -2.157324730906878 0.13066243421528465 -0.5336679423485132
Ni 4.13909566050238 7.466295499758649 0.6349241555471848 1.630259124366231 -1.1867605412149627 1.7847636553064357
P 4.5073141036592865 3.571654863859844 10.737627329140064 2.743709286922817 0.9943031851800682 -1.3241181280622356
Ni 2.6312719003018805 3.0093461285895335 11.118122813868972 -1.718605057201492 -0.859242879007404 1.4495835914576132
P 2.8013073948080387 5.621704573056705 1.3008810416957857 0.17546442102132362 0.8634209216444936 -0.5684871069102274
P 1.0114337083423297 2.6143258893331955 9.237515581598368 -0.04745150861374408 0.21864224196037832 -0.1007857012605103
P 7.083330500506868 4.70372449585055 1.8114710340704865 0.561428143180917 -0.37830620561433553 0.6115312304848952
Ni 0.5241486572297109 5.679020325380142 1.2479177971184119 0.01050835573049158 2.1496684999132007 -0.3651439572007647
Ni 2.2659953440436995 8.287648048922115 1.7495874687137587 -1.980985363479769 -0.5284892263610511 -1.2955302891222138
Ni 4.7715456613265355 7.940718844079646 8.071187351857992 0.3272099011591526 -1.2659129804764133 0.7054376881270689
Ni 4.043210564484608 4.238098971024796 12.766477819905507 1.2882417258806007 1.0943430094134894 -0.8550326975807984
Ni 9.199289612715557 5.541048613950001 7.331277739747638 -0.8536998377019878 0.14101215288072488 -2.0966055586499506
Ni 1.8777590774150221 7.515889959022971 4.023090656609411 -1.1728824976812897 0.9506198853595049 0.4697274349408104
Ni 1.1692005136367674 8.439837333629379 6.989697757644682 0.620516207592325 -0.980358292964202 -0.7141167039583056
Ni 1.892069454695259 4.148246135209457 13.52651662029137 -0.28607147924762993 0.2821330634251722 -0.45137361502397105
Ni 6.13278549860788 8.270061690331941 13.21397686684296 0.5677921377257318 -0.2731475720971102 -0.3153889972648246
Ni 1.6531177074763657 3.6813306347404127 7.331916231289065 -1.01276576276063 -0.36197378700289917 0.36198767095997014
Ni 6.632906271391247 2.9280312610607178 5.961682758065907 0.6026498688348653 -0.021096158548666893 0.7775851568255963
Ni 3.6286272413717593 8.581920262397487 5.945424424760299 -0.723562679862554 1.7591451834073832 -0.4816419269902092
Ni 7.365677399582043 1.2968524199205906 2.0765935101676334 0.7297662375701045 0.8191575809507441 0.1428551196267346
Ni 2.685209586911955 5.368748701767852 10.857332428637203 1.172858843532206 0.7545470440592101 0.24736917758142557
Ni 5.3006305634819 1.2429332941111386 9.371143137642726 -0.014481481445626672 0.7144460622732663 0.8418452523562469
Ni 0.593478815796336 0.9878058091494099 1.7227615435735175 0.13616768030423002 -0.3452675299918118 -0.21138890283207465
Ni 8.486211493985632 3.323116463119236 8.013215475232535 0.1761082252529096 -0.05158481405582729 -0.42586210101642785
Ni 9.088695082204156 3.571320769448633 5.645815053065819 -0.43363891674836935 1.3455976380922503 -0.18665026243481406
Ni 3.0015784335288602 1.6777014879013636 6.828156613543582 -1.181091001634011 -1.1433680331619405 -2.617629072761576
Ni 6.952773828925565 8.78845557132853 9.311623290245322 -0.4146652038593439 1.0499212887650047 -0.8078766087202861
Ni 6.742851173880848 3.902306246556052 3.8859449008069875 -0.2722134903186151 -0.075255932420522 -0.8510935104273923
Ni 0.483793764515456 1.4487354514175772 6.716153318264905 -0.056965104531134146 0.633143152327716 -0.5606179885747957
Ni 1.0950037131468247 5.3206298261530485 9.277979054996267 -0.05749115223793324 0.12071586452553403 -0.47800844400268006
Ni 7.9080982369849435 8.968810870981006 6.874528917819774 0.1274930353483675 0.6949573574210355 1.6652623799142934
Ni 6.848499251026253 0.703666864774096 11.51814982909333 0.31711600725826034 1.5685799021888793 -0.025109393473118045
P 1.4434177820391234 7.86061970899163 11.047994540875562 -0.11176945396552364 -0.2231992652034414 0.38173117213548446
Ni 8.125463773079433 7.325558229035699 5.243437312442573 1.360808541504734 0.08330554219787588 -0.9429230309358793
P -0.04342856129740302 9.301095604132026 5.012081572878592 0.19199301480396613 0.4128505192481084 0.3836394449017909
Ni 6.052240904304914 3.7565668400652372 8.967081932402985 -0.5348442220448014 0.32461231563530546 1.5486137434795975
P 8.997041848728399 8.30046428175221 1.0034850454755835 0.0405313844551431 0.175499130914001 -0.8601180825235057
P 1.5797839842153862 2.6157643513814683 2.880057159690773 -0.19449958327590375 1.4926930210525777 0.6447755943603218
P 4.414463698543354 1.237402175525522 4.891506899872271 -1.6187778631995091 -0.6141223882508392 2.701006348737651
Ni 4.960141956455569 0.7612944385479984 0.854571742078257 0.7448588702371688 -0.4725543628666442 -1.175899944351375
Ni 7.8681461136442055 0.811988625249226 13.494311775130617 0.17985149434542572 -0.8095953911836058 0.5848766040118444
Ni 3.645313401131724 6.342327657239828 6.083248577825489 -1.5903586886268675 -0.4485420591124469 1.4585932511553914
Ni 4.005365092014565 5.777633859089478 3.9377230382645907 -0.16199492577997907 -0.43578398811583013 -0.43465861626213526
Ni 6.014525357439232 5.447808432020988 13.722027741692452 0.3515250808657494 1.0104291442076534 -2.38846690510648
Ni 1.97923097442028 1.2134030603201444 4.474093982704465 -0.019332124669708642 -1.63426387465025 0.8110879165687321
Ni 3.382167650300913 8.844574152011793 12.58418291658794 -0.7671145963115756 -0.04777006829542741 1.2176747142953157
Ni 7.046524432871707 5.508771381666821 5.930061650084746 0.5103755474794758 -1.6130970107646476 -0.7744828637511888
Ni 8.404293400436574 4.623439752756305 13.245882883113683 -0.6989302260258544 0.2826840508326357 0.2498937437754922
Ni 5.045558760922041 8.904302808416205 11.076328531066412 -0.48474910516062325 -1.008381260539689 -2.0830756424843155
Ni 0.30742903699689733 2.49737428460846 13.449080960092733 1.4302000447246788 -1.1648262030357166 -0.029592883165768392
Ni 8.880220169608025 7.386688225887138 8.780005766844965 0.626238711898399 0.6874150262974033 -0.09228409154740234
Ni 2.4047837307012476 0.6409944653908961 10.876525224521288 0.23144505015200137 -0.5086385101837111 -1.4642962150774395
Ni 3.163196604952545 1.185970196999535 2.271982130284608 -0.7392412669400752 -0.45478161226425545 1.4336196119291889
Ni 5.44742793560822 1.2381074859491912 3.211830542784633 -0.39392437176756673 0.8791313904012149 -1.0722850011721856
Ni 6.781838135589198 7.071516550910408 10.883113380702376 0.24944740026669301 -0.21703170294014879 0.502050058332916
Ni 6.1221687206515965 6.745987949186114 3.698013082340253 0.673542124970053 -0.390377792066889 -0.14365319004799776
Ni 8.872359670544236 2.0536690653183203 3.9058986895166092 -0.055360736158491755 -0.680788265009505 0.01267193904071366
Ni 3.2006058986079498 2.3025415604701407 8.993799276859583 -0.7218397836341762 0.8737336164244113 0.7078668663938518
Ni 2.2778092936401593 3.4755470382345974 5.074997118749952 0.23027365555171958 0.5176268297252505 -0.26412814220731934
Ni 4.71384941259033 6.175911518855131 9.716988391728819 0.9756225780514296 -0.9016519401012342 -1.1492347763553628
Ni 3.08266129104989 9.368285702386835 8.548160950184572 -0.4981406959761808 -0.8230623153217889 0.03349993152965843
Ni 7.334680862541842 6.858262232153885 1.2505135250855208 1.4429483455292826 0.2842094863382267 0.8098136778419989
Ni 1.7916648037258165 5.077724628401483 3.0826306657288622 0.1854672978703064 -1.3989737397205455 0.4829863568332456
Ni 4.571979933029383 6.862865310708358 11.71030608578183 -0.09144925435093282 -1.2032341133899536 3.0360180053294097
P 2.5813247858257236 1.2050414196395391 13.758565605758614 -0.37725925240706 0.30030742034135377 -0.19592140332409483
Ni 6.325465169873946 2.830141598575675 -0.12008652394993924 0.301023729682088 0.09149784820068113 -0.007673457384857753
P 7.126985503571871 1.5267464964355209 8.010879598474146 0.11052144049103546 0.13202229067728874 -0.5435409784878511
Ni 7.937470703970643 5.428263908965101 9.409609468893605 -1.283903503516563 -1.035153900647843 0.42633029890209806
P 4.819246918927325 4.502766707506682 5.745213708641502 0.22973758054259144 -1.3804078037929 -2.390752358706547
P 1.9154375026794586 6.423948777978921 7.699398738701274 0.5338240083104032 0.4350843909456442 -1.401583666539567
P 6.860461687027696 7.169378372194517 7.857149767315183 0.6822545651423864 -1.450658826799663 -0.047032161688138355
Ni 5.325334989110947 0.6977691703761775 7.103031862328019 0.26245409693900607 -0.5568790903576538 -1.95245974523625
