# total energy = -340893.6545362139 ev
CRYSTAL
PRIMVEC
9.06182061703262 0.00000000000000 0.00000000000000
0.00000000000000 9.06182061703262 0.00000000000000
0.00000000000000 0.00000000000000 13.26289045589528
PRIMCOORD
 96 1
Ni 6.447521526246984 1.9673574757616612 11.548330568306223 0.536356802034586 0.6923574579043431 -0.3352194017271904
Ni 4.671160040962828 0.12051677543087477 5.88959883137986 -1.1436955917046883 0.9949310485720542 0.2487105221006684
Ni 2.75036219888117 1.551184307916619 4.821074268246817 0.6365313520736585 -0.3450204469780122 -0.20542728593200105
Ni 3.3817264179132573 4.331803925415448 5.017762894356433 0.04478450330454223 -0.8335907256569386 -0.5172249663011413
Ni 5.125256927560462 4.712355076912477 2.4984635252513545 -0.5860821942841713 -0.37649383499594513 1.2059592256306004
Ni 7.3178097043306405 6.294222709009806 2.606237568708539 0.5318784545482581 -1.299153487697098 0.16867388046205145
Ni 5.016651008982253 4.625171301973725 11.255644640648828 0.08488368531827317 -0.30779550118828286 0.21049878691763746
Ni 5.910789898596811 7.744113987484021 12.414396844223374 -0.8581933546969671 0.7495763303174962 -0.25317370007834467
Ni 1.7008674587781007 6.766234814717087 0.3021446558853396 0.5315943476489361 0.15820383416866302 0.31436801219947796
Ni 2.5353886313858967 1.2696697925598692 0.42688242730067244 1.298113476468358 1.5970044760781594 -0.39689091059505843
Ni 0.23946857446304648 9.114832140333052 4.894815738670015 1.6123452202002875 1.566953936549682 -0.35575505978669697
Ni 8.401947784168753 2.4034032159422907 1.2261803036620356 1.3669537351705232 0.7780713524333954 1.497308922558034
Ni 6.809985284045047 0.8490635821308923 5.082074634377254 0.5921337997948899 0.20033264501791304 -1.4511684194462298
Ni 0.7495557313251089 7.573842380468205 2.8477550207844793 0.7251914737152285 -0.6183775639827672 -0.7984476020969022
Ni 7.566774160485644 3.6565986188504973 3.7908123359527077 0.6695162916401114 1.6351452488139386 0.3153530018205666
Ni 7.5756094354638455 3.945924423470027 12.591191149628225 0.07874826184449663 0.376495634768158 -0.5037107338647906
Ni 8.064766505539083 8.889455602914728 6.993707351214858 -0.5006765750241571 0.11530626347418851 0.6765731984868929
Ni 6.820542304916437 0.7875872857415365 0.4049890689957118 0.10625289502266863 -1.023607076350508 0.6456204588591204
Ni 2.0299202844278237 6.522988367291567 9.010834157474244 0.3775366744381627 0.8876278579080004 0.8145074837732424
Ni 9.2407914451505 5.07306084153539 1.3777356266368468 -0.5973474827853453 -0.7216652057295249 -0.27617247496636305
Ni 6.063499697502107 2.3149326624938924 6.936292562769328 1.0035936093430586 -1.8311916077516721 1.9048771103612807
Ni 3.3760809037476984 4.5110195492553515 0.4262589740509285 0.1575173496245997 -0.6085513219209648 0.9324221314045553
Ni 6.254115091519014 5.700093510373035 4.796657192935262 -0.6237578544580741 -0.3471182100473054 0.14989248608949024
Ni 4.997430887721979 2.987111321015029 9.247417448293128 1.3420541437153661 0.2522576160219785 0.328394408385557
P 0.16284272657773327 5.683419760670582 12.384064212495645 0.12797897384585055 -0.7061825367128934 -0.5013309207787043
P 4.020892864387634 6.159156274599443 12.454676636303486 0.598874203842517 1.1065310668392492 0.36214707935596985
P 2.4748647323300887 8.491641683383364 1.5082693384378805 -0.7856131693363955 -0.7141951226047248 0.4297976886254082
P 6.40134248902758 7.900448514585504 5.793349611222448 0.5414038775401903 -1.3350723130808944 0.00012109895889656564
P 4.861322343955212 1.0403694868691724 12.835161636510934 -0.9165944203436794 -0.33168516332168685 -0.3181076817475683
P 4.093260562824478 6.190301751625168 8.019287040861544 -0.6340494661920694 0.4108828539987763 1.6780297068822907
P 4.887764736146385 0.9325156993916718 3.804724948951717 -0.5672272663611974 0.9039859875510495 -0.3481659345855294
P 0.16674112175273084 5.273417692579545 3.6064985319048697 0.055026492747524594 2.1089090586076518 0.06964527110196393
Ni 1.541687520042613 1.0803955479755512 2.721677912300656 -0.9028847840670708 -0.0065128614178533 0.0038718242505804286
Ni 1.7560358219240448 6.461603595289164 4.89138040252208 0.21305909144564597 0.41588930607443214 -0.22159515394111515
Ni 6.082511396891101 5.6263302915806594 9.21992388492506 -0.34089254085256776 0.3675376542439219 -1.0296501972207945
Ni 8.715151485780655 2.379434700745014 10.200422829995786 -0.08377451141449443 -0.551769022824598 1.3987510821867781
Ni 2.284276523774653 5.069961698927652 6.9723015188522846 0.3179765554863427 0.35147443013347207 0.894427654438653
Ni 0.6217215358481845 9.0727852932573 9.031736152617547 0.5524943310263968 -0.03167110585103578 0.9504995577315566
Ni 1.428496320296229 0.8144619267701051 11.577043852712308 -0.1564670539832144 1.053228755871683 -0.4260698461518597
Ni 3.9320326526581457 6.713721564974849 1.7093212311136543 0.2740124912005668 0.6546352607632209 -0.287697187776511
Ni 5.577894861059131 7.9291744855402735 7.839840340599134 0.3088301131003843 0.032054457332383504 1.3898563508003094
Ni 5.2545509823184 2.8427202733199777 4.876460115084532 -0.5699914593698957 0.3060252966617375 -1.502594853547322
Ni 0.9269608034310175 7.4386490805709755 7.13604499038677 -0.9679244380762235 -0.20867021834933094 -0.6313179261935192
Ni 5.065766076040568 4.565182050326854 7.088245699663671 0.4885679646860812 -0.1408206056952091 -0.6052952768775123
Ni 8.269944245084167 7.084114415702068 9.114842108335592 0.6834789244677907 0.12143937295511988 -0.2348198801615053
Ni 4.7365320139810345 0.3790994478544566 10.686586780763024 -0.11060114468903533 -1.0136563928956994 -1.3205373526895128
Ni 8.237095145806235 7.266302316662844 4.801046738780843 -0.5758836564846147 -2.243159467284511 -0.3306983739283853
Ni 7.4010425255355505 6.206404606636721 6.951717593608196 0.16302542392702243 -0.6732767871238082 0.2691315089591817
Ni 2.28421309103122 5.241891619093222 2.7973685803113533 -0.005487505477132485 -0.21208361490625408 -0.5162615739466077
Ni 2.3657241663429422 5.141287288008092 11.61537444720492 -0.8377176033411186 -0.29413600142331925 -1.3658167933526024
Ni 1.1102270610301581 3.241685044053629 3.8329887670614737 -0.12285373680414326 0.18799160695405687 -0.1569535067013297
Ni 3.44097260027991 2.780855224831581 2.5771119714701394 0.05533888178162082 -0.10774696306969186 0.3892215669752587
Ni 1.1254056103516852 3.1721808808917715 8.331879975772388 -0.49943421797662363 0.6487237803747924 -0.8935185123608225
Ni 3.5841131167472766 2.6256806107528785 7.008376626224821 0.6776029253029878 0.04866198398207749 0.09338992301707141
Ni 4.096894352841153 6.812296048270115 5.973075415555965 -0.09547123102613235 0.4447782211946405 -0.20638502185958005
Ni 1.0180411611806695 7.284480328566715 11.071635313769471 -0.4972071284183178 0.1572334998355937 0.41629348349138623
P 0.33861667099535847 5.466824127307515 8.018067319823528 -0.2649521807705114 -0.12704874872209732 -0.01706286901955771
P 8.486231776550557 1.6631793473582617 8.18265988393797 -0.22496587018556097 -0.47124875668134325 -1.0726372423052817
P 1.843119916837402 3.1141942915732934 10.455043674500939 0.6133091483209244 0.17786840247712593 1.1063582887068109
P 4.131311147063935 5.990796711707116 4.006267992298074 -0.22100662842749683 0.8548447499397085 -2.1197873960830527
P 6.874233591322435 3.8379256468646785 10.263368047486646 -0.4447090585196019 0.15315367333926527 1.8467987181613097
P 6.498784244761538 7.851578116680432 10.061732573571287 -0.9293805163647543 -0.014204059414523925 0.28102620351423857
P 2.208492519012904 8.471760049227287 5.729449277851892 1.0167864538842488 0.2353634113698011 -0.7133314890528488
P 6.8231339855767095 4.002760161586216 1.452857212320743 1.8823791863690806 0.22045127014465907 0.6808929089081692
Ni 5.177742991841228 2.8983145420289733 0.7932518297301254 -0.9000108049533854 -0.6963256985234718 -1.345763217135837
Ni 1.334951147373171 1.0367900677754394 6.902989466284824 0.4361902224153133 0.529470616437714 0.5959194920895672
Ni 6.796745964308479 0.8817260079067202 9.439384865927211 -0.43178438003813385 -0.04759600461140835 -1.6604004238363017
Ni 2.8668790867475544 1.7097661664997363 9.108289505938938 -0.38158050549023315 -1.5008884123791764 1.1175428445687206
Ni 6.508561949070748 1.9821916759045506 2.6618617414251537 -1.118170193740074 -0.9591544051930772 -0.07865107414500003
Ni 4.382450440136651 6.95832728547394 10.291830319465145 -0.6380061368469723 0.3638794886660443 -0.25182952734562436
Ni 8.07526915548753 7.156835525138041 13.56806899123096 1.1420801675884524 -0.017076238755996398 -0.6982918211109072
Ni 7.652535229607394 3.9284985426668646 8.331801137934121 0.7247384453382099 -0.3937045424472768 -1.8046457389423436
Ni 3.3770142712582163 8.264398410944002 12.317683658856847 -0.5031846861579915 0.1201517644919479 0.8095565675258702
Ni 0.2026667090871747 4.719214875023758 10.210449734368485 0.020688124476970823 1.0552460434120279 0.339827332812847
Ni 8.655769376106646 2.4043818925552607 5.978685588621611 -0.5504739581622584 -0.20169224436960104 0.22385463939925318
Ni 3.9501291081776015 2.40182645917695 11.46850046069548 -1.8049270176281884 1.4757201406436649 0.21847409181363017
Ni 0.8963137265322688 3.365107039133747 12.5798113154563 0.5421664667378274 -0.35926538693280063 -0.4372099219290793
Ni 3.0786900788916562 8.547371879399716 7.798752234131273 0.6164397235301061 -0.17848546723583456 0.7432205633027974
Ni 5.568171527672863 7.796038218894378 3.5438306061210176 0.7753788932028969 -0.05815038308848695 0.4224263358620015
Ni 3.2765005583779914 8.420098610611152 3.7115803084943373 -0.9899662483676112 -0.7210270579248937 -0.03312686446095585
Ni 3.185356767884906 4.518903333082055 9.254154911827788 0.4601858139989623 -0.7734222836971584 0.3590728113060203
Ni 7.352063385784594 6.199064532039445 11.21743456836874 0.369203471982119 -1.0373743053379296 0.9865659644368104
Ni 0.4581756120003912 9.128968580298176 13.87430958997799 -0.5746487556362491 -0.5278374517096651 0.060380557970586335
Ni 4.6019096087747045 0.17262949270743422 1.6059367335020505 0.28833996356683245 0.22408475313218826 0.06522014545107478
Ni 5.866985058345908 5.577767995572263 0.2820980965963355 0.08736891363397212 0.5383110975474794 -0.006902383546788112
Ni 8.128280805356745 8.85338955736268 11.260459185875412 0.06905520292644882 -0.023252799880353503 0.4658898063622751
Ni 0.24575294697318315 4.736396086673678 5.759317038188462 -1.4396498772836688 0.15048512536816663 0.28537522451155367
Ni 7.836463000102339 8.859560657116686 2.655641707840499 0.0579781191766808 0.39272366659124625 0.005236051587958724
P 8.530000369519497 1.6839581017428953 3.7110891578237544 0.027408988140572153 -0.5260024553834554 -0.7607562581937157
P 1.7016286516992998 3.4156810592910256 1.3590746197008348 0.5922965506249992 -0.9056798303137047 0.9577019890172668
P 4.79759056044578 1.0970239885755524 8.227275757122769 -0.1421876612460648 -1.1701658700810749 -0.2774289730812835
P 8.552745538950562 1.5861629350098094 12.553339019257507 -0.10419986914838184 -0.402412611744236 -1.5321026331984517
P 6.387269481805889 7.778249865271598 1.3258576105109905 -1.4611414714985418 0.27107989093480406 0.9849338281500264
P 1.7992607056635572 3.087697528459177 6.03502655133902 -1.0409180568251297 0.10368127764075047 -0.44410484927669963
P 6.967452538707837 3.886089222771494 5.960634442204607 0.2596513373828883 2.4297732200544346 -0.4194209733767744
P 2.5655735554396317 8.659285362456945 10.191483344081943 0.4103912590743384 -0.6253162000841296 -0.6511591292891624
