# total energy = -340869.1877099403 ev
CRYSTAL
PRIMVEC
9.25061819703718 0.00000000000000 0.00000000000000

0.00000000000000 9.25061819703718 0.00000000000000

0.00000000000000 0.00000000000000 13.53921479818410

PRIMCOORD
 96 1
Ni 3.419944304632348 7.129488463202143 0.831587099906184 0.8894970499062551 -1.0002876848982774 -0.3625103762326595
Ni 2.8546760277939898 0.2782826476093608 1.5784690639742212 -0.8477194517488368 -0.22654761285038402 -1.3021876465377313
Ni 1.4384896341589763 0.1495482693001007 4.792380824466436 0.15527971854333258 -0.36975291672768584 1.4195747038003488
Ni 8.420921019547167 5.386477727919841 5.125865611230793 1.2708983495061468 -0.8389771867798325 1.0984763148555727
Ni 0.25334298089322466 7.682064891845198 6.295328766369491 -0.6339720759869146 0.3860961339723996 -0.1513281900947523
Ni 2.3982875273832733 4.288410844188836 12.823125568561128 0.5459914969108726 0.22861837933648368 0.5964195716544374
Ni 8.292957217735479 7.364306156051698 1.0364244641725318 -0.19035265098706572 -2.165592370232309 0.4166876336060114
Ni 7.626043147916072 5.314942697238877 9.997451153942862 1.0500287608771466 -0.6423021931191647 -0.09639399995071785
Ni 2.1766242136399296 0.42273660145672554 7.278167174389737 -0.5777921863612371 2.1752977704455314 0.4818540430010153
Ni 5.313314588432482 4.072519916213619 9.459592458884888 -1.2819250396339534 0.09627804319814387 0.19602964676718498
Ni 5.507873590796642 7.7834054144250455 5.004649210347425 -2.050777958792875 0.9370210636291476 0.7418049139021935
Ni 5.834993952226911 3.947470059140649 2.5321985516474106 -0.7441659579352022 1.2376233895031008 -0.7616039509059916
Ni 4.78239385703812 0.8117685754356164 6.585487357647315 -0.026764669688353906 0.056854289984882726 -0.30468575191470754
Ni 3.8287846274017667 5.613941179285965 8.042631788505014 0.16338409281802183 -0.6681466649860944 -0.3876081997415518
Ni 6.972237204111788 7.568763319909279 10.137988396036665 1.2268828631571451 1.6609722371793718 -0.3240728981920677
Ni 4.9637152247321055 0.9033663469081078 13.01198433997926 0.1334554235793895 0.22886417679870263 1.6075894506828574
Ni 7.944449426984844 6.624885740638422 7.883017921521743 -1.202057062362717 1.5530774356779058 -0.17720248675835287
Ni 2.127225912355001 3.8262869604828658 6.814543765470606 0.07633116776257177 2.17567238017613 1.5982326920583056
Ni 3.4576128220166606 2.171702884747873 11.374429727322065 -0.4048397331284899 0.4359750210807137 0.46174518806628223
Ni 9.181987881590917 8.347360103476428 8.854538198152083 1.1521331809490802 1.294792896735557 0.3462759166516682
Ni 4.6873160029919605 3.5527646810085654 6.628163234673113 1.3532194163035662 -1.209743118153065 -0.4807996335945719
Ni 0.6525941128177074 4.319224653473499 11.514127013281655 -1.3310161407336496 1.4805281035552695 -2.130729754027169
Ni 2.8305874179539234 2.2731451641281213 5.382325125401714 0.9682782218712163 -1.165643299620373 -0.01992656372059794
Ni 8.060054402857082 3.382349792193781 3.6539229664095165 -0.5608691853536535 -1.4727340614321476 0.8901012591491574
P 4.254895854384474 5.26308373150792 5.678102542185242 -0.45785485187294045 2.922742399132005 -0.6378307876113725
P 0.024348552211996253 4.377642307521125 0.39147968755941376 0.31916594780875357 0.2508987880012389 -1.446780574791179
P 3.7036052616737423 3.07275010166869 2.9188244398277603 0.13616690897328163 0.09984339195189902 -0.2882327485650068
P 8.401772239835594 3.2948851969411592 10.071145278915946 0.23511684257663376 -1.368631122872946 -0.06672449791074316
P 1.6013375172713133 7.307535112046902 1.773163125364366 -1.7843885313552041 0.7135783149563323 0.8405707565191975
P 6.04987656281635 0.5644505221878737 3.7778738500381706 -0.6691257410699121 -0.5913329011601492 -0.33151212807893227
P 8.090923715851053 8.269608657352864 12.436039924655335 -0.936246133136336 0.8214628320451529 0.9227982351615462
P 0.685083209061677 4.375403657912331 3.8045193307537337 -0.049245110179057125 0.024380228616577366 -0.5082654431150084
Ni 5.525320256756076 6.310605237294946 11.532162018559763 0.39662891518292337 0.2002344288771519 -1.3776778064562467
Ni 2.351479399199427 3.5271497191625043 9.5488970021011 1.7384665720121093 1.308852974373049 -1.2628006600996768
Ni 2.731689058583667 4.865778929656536 1.8221756758695977 0.357436561254178 0.174947372175589 -0.13203566041372744
Ni 7.655663627450593 1.5057786310778094 12.695031333032563 -2.351688559935866 -1.0795126292688764 0.05380676140781056
Ni 8.292217168278027 6.065944886661279 12.418424897444332 0.6788144291125857 1.2165172036521048 -0.46475183610308995
Ni 5.652118480672276 9.235724722820159 11.146104118338009 -0.36817605915886914 -1.3271831401408045 -0.9206081694887628
Ni 4.290233215977812 6.066000390370587 3.2389457835141764 0.06107321316223676 -0.6707535064813223 0.7621235708548875
Ni 1.5124298255766604 6.072133550249221 9.33320403735575 0.00045714214207663204 -1.9719715900169328 -1.1189343255996085
Ni 2.4530419366165113 7.479883380069281 7.79214262333209 0.3267319330814695 0.9326036512877423 -0.16652623799142935
Ni 3.8224664551587693 0.8894349158715719 3.555425158808106 0.3639422235831797 -0.9768610784442209 2.8557721037590427
Ni 0.5586041314740021 0.11725436110053422 11.785628957737112 0.8273087493029688 -0.9181005725755608 -0.4911719779678315
Ni 6.2142600485529 4.991772349787758 7.263423539073648 0.8251022285699532 1.2944391129405641 -0.44973145143485777
Ni 2.405429004647686 6.364804609435096 11.303294323348123 0.8812376381109404 0.22291027320811288 1.4195317663775553
Ni 5.209901927371768 8.262411676379143 1.8589746351414036 -1.5189804939941969 1.4050744533016446 0.21518847908382296
Ni 4.610517370544867 5.203139725454299 13.178449214814895 -0.10371573042311169 -1.417267652933727 1.5087680722375694
Ni 3.178725183975833 8.738143219484014 12.116459742134682 -0.7039713879941876 -0.3793431315192821 -1.1400891053003528
Ni 5.912245864966693 2.292201437657513 10.725955839858722 -9.744480981273541e-05 0.013964946820524335 0.9244511973839368
Ni 1.323106673123974 3.062074888244944 1.463656866083279 -0.77208993803898 -0.24113553796688794 -0.9939265185669398
Ni 2.683114062320154 4.628213803196191 4.358178081728312 0.014371181120007508 -1.4777243155578874 -0.3094484634106735
Ni 7.158822173571901 9.050518095474551 7.117822508567233 0.7904298739987484 0.09296954765020118 0.09868845241184938
Ni 7.454055654004202 3.9569334415778177 11.957955949337588 -1.3042208749176765 -1.5526010102621197 0.38821755119077656
Ni 5.069505294674884 7.8354863949932385 7.521994969383772 0.0014909827232296902 -0.5005593327200024 0.4650413423190507
Ni 0.09408711283499589 2.353745800662874 8.307919167641517 -0.06138508797570073 -0.6314251411953448 -0.12186823296242237
Ni 9.044736459088204 8.79345266581034 3.1804430237789436 0.6880670580591053 1.650497562900293 -0.5368748793215851
P 4.936203886151323 7.848474262971523 12.997930800782246 0.5820329639154621 0.24807777361267597 -0.09561264170000308
P 5.59270175985709 2.98888399690293 13.137723368109485 1.422120353040338 0.7392875467969783 -0.039381844231732174
P 8.790649728490243 1.5385165689518472 2.5533195631630936 0.7290897803283701 0.014715194722987561 0.21021442290799927
P 3.7693586559683623 4.695946829789495 10.948756979642896 -0.5417283507591444 -0.6843685261615956 0.8988419814562649
P 7.386553892866352 7.126944543192152 5.743484061627493 -0.2558638453159981 0.6142866817428453 0.6367910334929485
P 9.27050704732041 6.866132613149591 10.447129255898133 -1.5820082597796432 -0.10474777123205185 1.6134325397271954
P 9.236427769804738 0.7374509587946319 6.7293557473614705 -0.2806436233638392 -0.7148749222805688 -0.3183362528186066
P 5.930210565546344 6.381964506229766 2.0721495816077717 2.6354799849000674 -2.524313197515549 -1.0874187714898305
Ni 0.33783442745053216 2.4279542600088844 12.708922061348938 2.056033550764859 0.06725568782386482 1.4011614914004837
Ni 3.642449424633543 2.6902370383481307 0.5094925993538365 -1.0349669814480176 0.19396273693582725 0.42046098460551456
Ni 6.174491640833066 5.3039807146503675 4.656501268645476 -0.5023848159645153 0.21424437000299876 -0.2181172226948437
Ni 8.351772648366486 5.425478334327567 2.635150531920861 -0.8381220378683889 0.08628545076180623 -0.47358871766842947
Ni 4.0328070122030955 0.8151441260234199 9.323590794903447 -1.65562614237611 0.984935113701607 -0.28804300115170395
Ni 0.31951542819312695 2.7742511530053817 5.988881686533146 -1.0957226633698356 -0.0767019208384292 -1.7766777929745081
Ni 0.32632758344897356 9.193014618506954 0.8534296596428831 1.1017241323689089 1.9658685624429886 -0.39852073288899753
Ni 2.846054451614673 7.764894927370525 3.5048150265365994 0.3316447970020546 1.8621762290586445 -1.1534848098809685
Ni 3.9504025051158025 7.627365986321268 9.748857440442839 0.10069082755385883 -0.42154907546337084 0.3382785002684884
Ni 7.431687659152712 2.5979251191491977 1.285942314432551 0.023020629264889386 -0.3925881694546465 -0.5306420110379958
Ni 6.492722158155693 2.5739475167277495 8.032030580027014 0.9540114275395571 -0.8694275328498898 -0.2721759522124603
Ni 8.5710770544642 4.5478814345897645 7.682854894641028 1.3415368377593153 -1.6220238809406324 -0.18052692314589555
Ni 7.027851920839313 0.003486558006421256 0.9245863400387253 0.21838616008551423 1.0543695543443454 -0.29801245365958995
Ni 7.09107064574216 7.80965866892816 3.355126147839583 0.06048648742083131 -0.9588433017105615 -0.11226413421375504
Ni 2.2253379691767146 6.69750309365091 5.342641823369488 0.013866987790079345 -1.4460385544188321 1.8818071159156944
Ni 1.0278361902188 2.0196412224779006 10.426765870014517 -0.25623974059817806 -1.1617910157538185 0.6063239752523429
Ni 5.156017076251036 1.549746819468683 1.9122378447178758 1.9057091193442728 0.437807189193446 -0.49540787042605
Ni 7.736181008421384 1.2418214908410778 4.948230614896741 0.4906718984029614 0.4078744061897556 -0.0005988099262634848
Ni 1.7462206998040002 1.9163488194540224 3.367216705850707 -1.2354559495381368 0.5945084706746535 -0.48324038182558066
Ni 5.546383914438806 2.7623733592132753 4.529233113323793 0.29561001486568445 -1.1661384940892368 0.04253401670746868
Ni 7.839908190501514 0.9515925948647964 10.429609510054776 0.7378171328990389 -0.20101964378260861 -1.4654015323264762
Ni 7.272743536928436 4.865973192639118 0.6979545192504127 -2.199012597563968 1.0200142167929271 -0.06873458636223646
Ni 1.218001148929338 7.188442653106422 13.24755318302813 -0.5756111195495184 -0.2956025586665167 -0.9951285092948409
Ni 0.5637983536034941 6.790388551179368 3.628184971341154 1.1879530188611669 -0.32729911843884923 0.6700058296820203
P 5.820840506353139 6.066046643461679 9.117564726196067 -0.930933719784487 2.17536821867215 -0.6397331468404079
P 2.1389001925463083 1.0617767084611975 13.121124058778832 -0.08636849739391578 1.1303700782403758 0.5980229115858152
P 2.0595946425620966 8.902276938528674 9.714250877688734 0.18156950547779696 0.3133470271341313 0.19754274097760172
P 7.302965306647136 3.4419792772279845 5.941116119363722 0.11902330731445955 -0.10649972092615205 -0.26615699971189
P 1.2508315929855574 5.803976629341449 7.215102009749312 -1.0567676222628768 -0.7974512996219041 -0.7137629201633128
P 3.2379476418084376 8.463732880660771 5.838448133069568 1.6936419594982508 0.7870308756195284 -0.46130424387412167
P 3.5169370366496655 2.3513776423990276 7.600332904702365 -2.379225846124186 -2.4192139564813493 2.5350187568585114
P 6.061467587443693 0.586161723145875 8.973507623870262 1.6306118797199596 -1.0507517550860999 -0.26307321858024374
