# total energy = -340859.26929943543 ev
CRYSTAL
PRIMVEC
9.42027728431755 0.00000000000000 0.00000000000000

0.00000000000000 9.42027728431755 0.00000000000000

0.00000000000000 0.00000000000000 13.78752802182238

PRIMCOORD
 96 1
Ni 7.4802653084646815 6.985813799119425 13.18229692000869 -0.2781879627344951 -0.2931427842721145 -2.145172668925376
Ni 0.30692016719394766 6.108738890995853 13.542482160539226 0.05395331428800386 0.33366439853524466 1.0535640277239144
Ni 7.968188565714673 4.523946818137844 13.204453411968377 -0.971850512603507 -0.1073839233033183 -0.9302166391128043
Ni 0.6048241870857626 5.002383856253735 5.229457753953504 -1.5949457937769178 2.4075108091118085 -0.26181414936216196
Ni 0.2683243495034575 0.2086205167049442 6.979343010715042 1.3573447513258494 0.9342771823354231 -0.6477647588956329
Ni 6.472484054277905 6.5268955753489735 7.656310506633657 -0.7916573186479463 1.1080955831128916 0.9066491362055096
Ni 9.405308373283544 8.422914766133909 2.950627700874097 -1.6739871613818007 3.8933204727809914 1.084606498852016
Ni 2.568843648793743 3.5223829468989387 9.5748177831355 1.342755540657765 0.5425984120689236 -1.287742417646679
Ni 1.8554931582974479 2.2584926166458335 11.253394367623551 0.006712893243801343 -0.5131896198895033 0.958080712512924
Ni 1.1868889844714388 1.0530456861027182 0.20075741133132574 0.4229269296475039 3.062864436098293 -1.1525939226355826
Ni 7.28427644144883 1.6428869223118303 11.764222086842413 -0.6338126675909149 -0.46252088989004214 1.4944004906619877
Ni 0.4964052748352389 8.527922596012578 0.5061383052318156 -0.09213445334341551 -3.0422071648592577 1.109843933262566
Ni 5.197920549964287 8.453511826459192 10.414629842791499 0.3582608569276862 -0.3988382641294163 0.08559639511458161
Ni 8.918977142879296 1.3760858316306015 9.881066284565534 0.7087500403297535 0.7972270994262399 2.0555506975911695
Ni 3.6306125115778687 8.523184196584124 5.158382704554422 0.4001929783850979 -0.01148743181430925 -2.3717907300023797
Ni 4.008299685106663 7.96689798773913 2.6256827752976384 3.3175635716822285 -1.606223680683582 1.3877228493970746
Ni 8.514206672418485 3.5484488538940298 11.045368270409533 1.4986764923295222 -0.18871460116301048 -0.9276478499443638
Ni 5.166965519105643 2.939503295536004 8.147366948078288 -0.06405826393248967 0.22028877642486577 1.0366788219328018
Ni 7.761978697943608 0.44284346276704695 5.841913307593919 -1.2494070124015901 -1.4972022217768408 -0.6932424316124577
Ni 1.8105772766376746 5.999152806401024 8.869723223571803 0.09643050961560812 -0.12200655831249956 1.1974221346938667
Ni 6.697958388910177 2.7944781281383086 5.89546381532948 -0.1194105154505492 -1.004932125648824 -0.8889943992382237
Ni 7.494056594276324 8.403763342599026 10.680577456358973 -0.32871476783945325 -0.3461694729807909 -1.770849359218189
Ni 9.239473813564867 3.035552441803422 0.9436913403268558 2.117615071022082 -0.5712194182397259 -0.5994354756626258
Ni 7.828890926850774 1.6675303674506659 7.856229513294741 -0.21259423599408547 0.664996549392887 -0.6101099246573364
P 8.095673176977616 4.813356574084059 1.5006341424922542 -0.37591687944655255 1.7734502871761455 -0.14209870107668432
P 8.795279483048239 9.091029085545843 8.778215592939489 -1.390663162972321 -1.2301029127563394 0.43480156959790284
P 8.839611307521999 5.72136767251189 11.131609024062824 1.3725291723757718 1.1304742079184078 2.5167562111038975
P 9.441567020202266 2.049023332965733 12.287858556961607 -0.6082047372148235 -0.7076997446883683 1.033049966930963
P 4.227726201780551 6.112252654389119 5.84502953528961 1.1631480440023452 -0.5410809469831326 1.558354110695813
P 2.5203669023547337 2.824114320189828 7.456680702482424 -1.3084333703371271 -1.5261276465619396 0.7641593703379936
P 1.8716018322987507 4.644790133979197 2.559364965881397 -0.4746122738369375 -0.4896671112875308 -0.29116843415456306
P 6.078160671224959 3.4932366092614937 12.836547312249849 1.1484919846520671 -0.20761092384688115 0.141002382688712
Ni 6.7867727622928 4.988319382403474 10.840043908694678 -1.7365282173388157 0.7508587965743455 0.3428342379599708
Ni 8.628955068915486 9.040319733411918 12.45165456869556 2.2914771805532923 1.3049582673043334 0.10385174178034372
Ni 1.4935284274050127 3.065226314963717 5.1497245277856525 0.5026262425513601 -1.7792416970469422 0.5423870673890658
Ni 3.7930086701208277 3.601221246733386 6.124667637702754 0.7080136763843613 2.4712142608080403 -2.527037538425248
Ni 3.654144364007842 5.772529197951115 1.73262354083172 -1.1365648941971782 1.1418323132437045 -1.9882757264935953
Ni 5.78227918484664 1.5015827644056643 9.935320487007466 4.625912095615034 -0.4715503470821621 -0.06534818638850681
Ni 1.5935435103709972 5.2346407904655035 11.87978910542755 0.36559749979841555 -0.0799170853416172 -1.0182090452633885
Ni 7.148341841543097 2.5330748562890957 1.5035026168977492 -2.3366663754954207 0.6853370607224519 0.08321426803565023
Ni 1.492445095527732 0.9943479389084968 4.084816828640571 -1.5046630489302601 -1.3845542218611058 -0.08223133529709063
Ni 7.277069929395615 1.5855174342019267 3.699759230235391 -0.28077140719095517 0.10057564213223325 -0.9234402396209193
Ni 0.4856426081413859 7.636575967940482 10.142202020542443 -0.5365352365939792 0.09338555214169723 0.40196241158069485
Ni 4.121211127550883 7.862050302572754 7.227284706454395 0.5925102092977022 -0.925073147238652 1.327475474570243
Ni 6.422047890182598 3.990956954792979 3.9455352042479017 -1.5014759094515302 -0.18478312731908822 -1.2026640998190965
Ni 8.966285774946279 7.462677650943961 7.300882506085961 -0.3547142772270085 -1.629717650040464 -0.5960004818391478
Ni 5.312292135373538 6.692183758990412 12.101685618781637 -0.742717912634766 -0.45933426463194443 -0.5088537115183108
Ni 3.2152159684425152 9.267348413781157 1.0472164185752293 -1.1949358779369033 -0.503005737377966 0.9347163267553709
Ni 5.33886673733709 0.5286405213645129 4.148239786875175 1.4636048454373696 -2.405099885677471 -1.2318304369704076
Ni 1.381474230185423 8.056098592486697 5.054217989484594 -1.9467308131722731 -0.04206787570432755 0.03961684306067371
Ni 1.8511880916199066 1.0347797686240479 8.973006200696299 -0.23566448754998767 0.3929218986449814 0.24303532609276213
Ni 5.91778045200146 5.432834002344692 1.4603200662416251 1.8639896281182995 0.5237447696975303 -0.033515872369258404
Ni 3.8240767443057972 4.269090638938283 3.349389918540736 1.251839790212799 -2.6264803525046188 1.1599593618617183
Ni 1.8877576076860223 2.4848995587202864 2.232724390410065 0.22420662342203324 0.19761653163833062 -0.050417533220603494
Ni 1.9765342999598696 6.348635670011747 6.602336923227356 1.1473774114316497 0.5574989833298399 -0.0405403833162076
Ni 2.727537638399561 7.522449309738269 13.40568183715939 -0.3272880626952557 -1.6718089227835595 -0.6841044738669315
P 5.55708745853018 9.246246992867171 6.064761268944576 0.6934303792535476 -2.057615807650315 0.8504785025512127
P 7.280103258652001 3.170545013989779 9.23989113184455 -0.21997664450108564 0.153025118181201 0.9819811732796058
P 2.2776628807351034 8.36251194876762 8.354069496346586 -0.08928207149628495 -0.438632770418535 -0.3428044131632999
P 6.14705115834281 7.8445851086555525 2.4046274926969518 -0.07710352715222205 -0.09814646386545033 -1.445360297404885
P 8.548044308098417 6.837745882188151 4.903520873188546 3.5151829315340364 -0.5458613990909116 0.6999234431770591
P 2.2479042250800645 8.64227534086744 3.0165460905373234 -3.92178232766611 0.9334202336517666 1.1473876958442948
P 5.086770699355298 2.2116455781613427 2.7827640134478875 0.7604994049879031 1.4935101176372343 -0.21548955526400954
P 5.412636928041303 6.341014665762008 9.632008285978722 -0.4826747391300978 -0.10608191666244311 0.2462250366746533
Ni 8.602955103860753 3.9404736893117027 3.3149625735084776 1.7672138193481308 -0.5529866972817831 0.904364711046707
Ni 7.063710071234498 7.987556655625011 4.26084224422744 -0.5763490261568075 2.3009018163013017 0.6463185133674094
Ni 0.901212484377104 6.602069387355053 2.710144980616751 1.499053930273599 -3.326948355331238 -0.3693255993822801
Ni 0.5988583255389642 3.2384181111707075 8.499417779252026 -1.4202385626365928 -0.8194085206192857 0.01083437161134263
Ni 5.020499049297306 7.760367830543478 0.47906819668787165 1.280073074026879 -0.21965139995118302 -0.1367081261887323
Ni 4.059376428051145 5.025472955655602 7.95093627006205 0.2401469488013735 1.7303010054821812 0.7237632259091342
Ni 4.695556007776286 3.4559040507426846 0.9892233081151 -0.0926820983167694 -0.8483244323226874 0.07659522005723583
Ni 7.085866563194185 5.504202022364499 5.611675138784771 -0.15044733015169576 0.6775772142713751 -1.4262323183261822
Ni 4.628916966907737 1.60796595475462 6.470597172755998 0.5803424635869167 -1.2301376226490168 0.12791958136282486
Ni 4.228347940075338 9.437327895465081 12.590549961723283 0.25455798202038094 -0.33988646818555657 -0.9057055413453177
Ni 2.8422954551737556 8.258794696864495 10.49972603276575 0.2277040950523304 0.22934034510417275 -0.06887008349883623
Ni 4.212069701084548 0.35522829067118833 8.791369125985115 -1.4801061855265027 -0.5233375069567825 -1.3497679674198562
Ni 5.48000133025377 6.306828479825909 3.8526898942540764 -1.2530062997170741 -1.3169794601349254 0.24973022161443445
Ni 6.885572629500791 4.30013045229167 7.416159380133531 1.0382381960001217 0.24220691665419578 2.3547584571104414
Ni 6.378855919249279 9.205099222084893 8.00419757528776 0.7473392134568614 -0.8623690833412115 0.48589941671498255
Ni 7.982884198136914 7.246595332673852 1.4626223819877762 0.5001556695236805 -1.2436071178903614 1.6957983437196213
Ni 4.1187806960348965 2.866505567561678 12.427140181354277 -0.40606820621895223 -1.8188752522781646 -0.22173553617372135
Ni 3.6264675896126204 1.7348759291087443 4.322334987665045 -2.2988968700561307 2.200910843027945 0.11481826809417645
Ni 2.54410600088297 0.589297686215033 6.624562183210557 -0.3048158497346686 0.379952482968507 0.18109513694453974
Ni 7.645902042362289 0.2206285440438102 0.7430140013516767 -0.8389910707369034 -0.985556806446006 -0.7907967704198638
Ni 2.408736617608863 3.991107679228079 0.25727907449379217 -1.5224447983937135 -0.724754900398442 0.8072968249574161
Ni 2.9708351374823976 6.262129264541592 4.257382176414178 -1.461744138079547 0.0827625252102123 -1.1528998839117757
Ni 3.964900468075082 4.54922142184866 11.049725148611637 1.0547441640749449 2.5366573209031986 -1.1699185299569594
Ni 8.48113207919125 5.7540183532654074 9.062583616531613 -0.9825568432774174 -0.16150487351743797 -0.5974888934592162
P 6.426654405730339 8.901285862309445 12.717932833992535 -1.1073800451031057 -0.05137192671407281 -0.7790576276060648
P 8.666937626560664 2.1860977864119078 5.091940547479224 2.3087850757041206 1.5860690601125782 0.8577799213086325
P 0.325985866206367 5.064341019356991 7.517290765946974 0.501450219965388 0.9065198097164968 -1.585302614260199
P 3.3150897472505934 1.550276177220129 13.871356283733196 -0.21817892917071455 3.087809793189721 -0.22932337582330828
P 8.761536050140245 1.0659232050265668 2.2383228611463073 2.168219266332195 0.876560030129613 0.1848252934109333
P 3.9438838296558387 1.819479438585763 10.365959980670016 -4.028120583313734 1.3862015276565418 1.169875592534166
P 1.4237335936765605 8.542703010929563 12.055924738257586 -1.2079297190934102 -0.0946775314802434 0.6691064577962025
P 3.5847263413671393 5.389981161390348 13.090940955839196 0.6049803167402549 1.50443859162428 -0.7241692030983011
