# total energy = -340893.26484674757 ev
CRYSTAL
PRIMVEC
9.07073781918204 0.00000000000000 0.00000000000000
0.00000000000000 9.07073781918204 0.00000000000000
0.00000000000000 0.00000000000000 13.27594168260569
PRIMCOORD
 96 1
Ni 6.65549955225768 1.823535744593909 11.329290557904365 -0.8521093532864163 0.7289627678322027 0.565902891122819
Ni 4.823791073036074 0.4808497809348729 5.958787077816092 -0.9842262605600405 -0.778686360309575 0.7553705684017701
Ni 2.695805089769546 1.6654055750438028 4.6999219866849415 0.7275208931793535 -1.0839652657235912 0.6017091021881509
Ni 3.5734080286866763 4.238057259663243 4.712467723936404 -1.4113422885882274 0.43537775381634697 0.422487271006924
Ni 5.169395248452159 4.741328997008998 2.7411633134163824 0.4125381302140121 -1.5728721018063299 -1.1222479633538736
Ni 7.338625875838708 6.217119872100101 2.788120708111902 0.2973537370296685 -1.051579393193718 -1.0495690476319086
Ni 5.313220864719381 4.582736219838456 11.684740111971838 0.016254514185649424 -0.4202766365088504 -0.2938112710940488
Ni 5.657083458505589 7.8308494547199405 12.520474340018241 0.37142490511347004 0.23980576341187085 -0.5553323146958242
Ni 1.8134581550585356 6.576239446623031 0.4166842898329113 0.26256722547810263 -0.16971980522806254 -0.4324708645821971
Ni 2.8290995796186142 1.3757950631757485 0.4231653318878388 -0.6250004686159237 2.2523092521045793 -0.5628044547031533
Ni 0.4939778595438254 9.008203990204088 4.775236321439403 1.4680870495784393 1.2320641502477683 -1.1438652845133332
Ni 8.646735094628356 2.2880482199372776 1.4656243923267043 1.2187450645413591 0.5488243383739774 -0.5153902270852478
Ni 6.89135687277864 0.8747946385389561 4.813497599944497 -0.08141449582275011 -0.2419716607149381 -1.055166339214028
Ni 0.8181125060028659 7.582320313694106 2.819198869467525 0.1245043850336888 -0.7044650398011545 -0.9375483968875272
Ni 7.434567068022009 3.637129960717279 4.029593566862202 0.18960368863618313 1.005112102870114 -0.24502895948402317
Ni 7.604099154805207 3.8597349335234026 12.618742176410205 0.2938760628937132 -0.1507149819907856 -0.04666089439164867
Ni 8.129449067604696 9.216413702350772 6.6081394168102525 -1.0316757122912557 -0.5518960353207657 1.8605080973276025
Ni 6.880762251196896 0.8183410885917871 0.47723599905288117 0.046663979715442214 -0.501040386121479 -1.3312020314922106
Ni 1.7497271522902773 6.5555944477188826 9.615180564092572 0.49678701016176374 -0.9127195107693055 -2.1619827985041797
Ni 0.030407833842873936 4.930735069995619 1.3386667198038393 -0.24177394288183524 -0.6075629898657665 0.6033780052501415
Ni 6.515048250398342 2.1503544223252424 7.0437897120072614 -0.10738829417869247 0.33158643296029344 0.20989560611599978
Ni 3.54889889554124 4.338243557069365 0.5071268008493858 -0.7768577917412685 1.0200327287356883 -0.2597014738945334
Ni 5.9459955235741635 5.795167297836816 4.745883414385875 1.070064853592415 -0.3161806399281845 1.3916203846792679
Ni 5.040590773742613 3.058888576647975 9.33463262621623 0.9328396785579482 -1.4702904849876612 -0.3279606632822481
P 0.18819331536206738 5.59702610448785 12.508167163167121 0.3574039082440296 -0.6586770349327624 -0.7508973631217648
P 4.048769106266144 6.1162441986321525 12.565492411002994 0.37768451286993665 0.6229065622013723 1.3972284748946648
P 2.572343279539149 8.405108784958436 1.3063404249468056 -0.5307492260398214 0.4237360558123605 0.9753222732021913
P 6.390262112470229 7.870887690731767 6.094347437931531 -1.1060962932946756 1.5312670246710338 -1.9097969162604014
P 4.88740415621481 1.2073151819606005 12.485982860082816 -0.42235254520127263 -0.9201487133538412 0.49363638034792406
P 3.8535940441305603 6.222226697400204 8.367640288924441 -0.17673531731394723 -0.1281044436801213 -0.4986253489220832
P 4.639292269121134 1.0022892987310328 3.690831448859738 0.7601201672716135 0.023804558618765452 0.2473334392474837
P 0.17710161735679747 5.457200683526748 3.615264947598451 0.375789866950385 1.0566930602711995 0.6770197991060082
Ni 1.7596233270725388 0.9345308884436873 2.670309967440946 -1.4213755044545133 0.9853138371972643 -0.42870882643660363
Ni 1.964549432187895 6.4265722753056025 4.793796864830295 -0.25634027073178434 0.06950540308998997 -0.21695199874214893
Ni 5.967311757064827 5.54035213561565 9.348041897692507 -0.28762468266736274 0.7763769954501081 -0.6077925893780695
Ni 8.828140777002737 2.137610035919122 10.352140808585832 0.5670683721858298 0.9962834488348907 -0.49179778447728856
Ni 2.190202172846301 5.340750553504132 7.0261725253325515 0.10375892495622131 -0.01734826147046044 0.16506765116803185
Ni 0.668730155847822 -0.07973087691897432 8.831661130286875 -1.030545198231238 -0.6321188248282598 1.6520577082985615
Ni 1.5768751755251293 1.000348160872734 11.623750286123105 -0.13227117346330122 0.5709767061013005 -0.08281240461154125
Ni 4.150325085058262 6.800531576633098 1.557984457283573 0.29221153070709677 0.17860039554714402 -0.5262472244044099
Ni 5.439594381737225 7.7686060529272005 8.073763809136956 0.14943457261646523 0.6643478600652947 0.850403169228587
Ni 5.297464993411601 2.8112937216006677 4.994064239085735 0.2197835546536731 -0.4134318456728751 -0.0522476444508068
Ni 0.7376686691041613 7.527324431288193 6.75376376035458 -0.38158616191718797 -0.9885639687034459 0.46788163998132326
Ni 4.594101854120925 4.4396090503707155 7.185178928140189 1.2767805193185366 0.44158439684769113 -0.8735184150898117
Ni 8.215884126724927 7.080808299453539 9.260818591470006 -0.2298597079427525 0.486901889837568 0.06209496955853176
Ni 4.596097416405158 0.2918809175032516 10.228223647325125 -0.06087883776324354 -0.29796051737573204 1.0755996673677153
Ni 8.069763613830837 7.347995947836945 4.6696928463738825 -0.5031286361090754 -0.6240041661409254 0.8370126068542939
Ni 7.385866277549082 6.3038996192512435 6.908653862414106 0.4717712048437166 -1.4606187662258523 1.0644953299244375
Ni 2.349547821242258 5.360633610445211 2.5266639517793044 -0.5103961163047661 -0.22789949889258812 0.4934535749131566
Ni 2.463630488736762 5.146700262837843 11.502740296281017 -0.5341050298859318 0.5640977195932801 0.20150815338325295
Ni 1.1384047879909935 3.448558395594973 3.829259069148112 -0.2636797418159911 -0.04223036942412082 -1.0257228371419305
Ni 3.797582239107219 2.5832372354635273 2.4790824903330795 -0.4063859945696872 0.6018587403921376 0.0748530405551485
Ni 0.9843020259599745 3.2438318467080403 8.073936153152413 0.8634299205055582 0.7446976620689562 0.5956549255742709
Ni 3.238960860586982 2.4707691592717205 7.245132875748655 1.4695708332128175 -0.06594288254971224 0.0850826887029567
Ni 4.15253834504623 6.814192107542434 6.028671669009912 -0.3641414840781793 0.8827633307268474 0.44545930642206516
Ni 0.6963405741977083 7.554527573517342 11.470957338609555 0.4465039456364956 -1.1152728175876212 1.460212531926369
P 0.2218158186300866 5.740080708054346 7.9847091209817895 0.8031714899351329 -0.7218187005882536 0.23465070157349263
P 8.610288870728148 1.7318124454204638 8.128009541538752 -1.8114293375230803 -0.8162134107207556 -0.22936734168736628
P 1.7866904082368549 3.4051186329622958 10.474478754420698 -0.9537861989026283 -1.84224478024204 -0.27098501722815266
P 4.046837039145501 6.164718220663689 3.802494950621493 -1.1460988018295422 1.2668074672662246 0.3419415509423724
P 6.863292010472207 3.780520181577032 10.215412137460353 0.9576924759355699 -0.19489013384610304 1.7207714687251914
P 6.391250822874689 7.774329688387885 10.296063694251371 -1.4226047488759241 0.15989639137973752 -0.8844440608633799
P 2.4432848241752474 8.513304543714453 5.7666969735571785 0.7182420389805888 -0.41758032062360984 -0.8255742831103653
P 7.011843481057998 3.8310169781057675 1.7165926547081296 -0.3068796742422328 0.9669129660925734 -0.6964609385497554
Ni 5.3278610352955225 3.0287555861560653 0.4053939426729838 1.2822482273013271 -1.092254502315577 0.10696971858403514
Ni 1.297623446059772 0.9139675261784381 6.918810367367084 1.16392940225306 1.7952648119480756 -0.8458325191387691
Ni 6.78753320957262 0.8318800716165383 9.144707707035709 0.18937203224135127 -0.7065697448489832 -0.45354388320241246
Ni 2.604843732559171 1.5595137836523074 9.383142931198389 -0.2538049059044403 -0.16430506197039443 -0.029023640925859694
Ni 6.427560985710063 1.887348384001068 2.5726779897586414 -0.754374780147404 -0.013711693159137676 0.283402417055899
Ni 4.170634466669155 6.862312370805402 10.556935388005181 0.12258608496505338 0.5558750745731718 -0.9447770534254826
Ni 8.223186070537684 7.163388295070137 0.2817298549928676 0.15760708112492858 1.1582940583441537 0.846951977455193
Ni 7.795609638927927 4.047335929716559 8.288395603543806 -0.4604313543508651 0.012558039170668694 -1.1859663274484413
Ni 3.3390655213542035 8.388373273983849 12.477234133613988 -0.5633554421106168 -0.23356106805373966 -0.7076696627813812
Ni 0.0014667382789108122 4.831129299799456 10.303630503603673 0.2551593630498057 -0.46073680140642587 0.10219543712384335
Ni 8.76919005297898 2.383236540895163 5.586689091855526 -0.0024278927152022703 -1.2637650808954752 0.546806279502684
Ni 3.6791546882756823 2.709411196252949 11.369887551355777 0.0927602598528725 0.07196234927091477 0.7349200138569021
Ni 1.0924705725030261 3.4617744603591847 12.682055925246306 -0.3393899881651123 -0.7070451418235049 -0.0344682089801987
Ni 2.9277710638362504 8.358884305865487 7.958157257716312 0.768826951016992 -0.23167773498809777 0.31324495433862826
Ni 5.710618952148952 8.018631865666208 3.5747332634581594 -0.8455921209931889 -0.021296961705563323 0.40157674610650196
Ni 3.222207208137086 8.299688671925031 3.4850672075850047 0.1625572260413523 -0.4204036490050179 0.8930549424608425
Ni 3.1588208933997404 4.27743333182621 9.086824608834018 -0.7253629662960862 0.5725602485383365 0.43628021102595826
Ni 7.39871951280707 6.202125942755391 11.474993816866295 -0.6557830012144191 -0.4370507706433957 -0.006961518919497688
Ni 0.6641557828481021 9.085613665356995 13.832070350362704 -0.716638699049211 -0.3173106397675697 0.08916894295718836
Ni 4.602383437600489 0.2928850481617267 1.3696523596353747 1.2208811370477555 -0.7402226570167381 0.7926430795999833
Ni 6.297250768549687 5.709956788300093 0.5635095990428411 -0.7773792114623773 -1.256472403888804 -0.4415052068703235
Ni 7.977813546216002 8.810452838574312 11.27392912477093 -0.4041913009112136 0.9879291633329242 0.23077810599196386
Ni 0.037937453170789 4.66877216650184 5.921441943814214 -0.2335829224306106 1.1337667626267507 -0.22728783345051826
Ni 7.7316881506689015 8.685585064007299 2.5194554365643977 1.484941916352249 0.841667589127802 0.2799910773815049
P 8.579012967291634 1.4836279924255429 3.457626412029278 0.3310932953739588 0.10322362127804158 0.9253937638028642
P 1.8427384962108182 3.4621010069147866 1.5397441109319232 0.08024232989151987 -1.4164970933162895 0.17621184071030943
P 4.617758337926734 1.080669542813088 8.206974848199593 0.9337045976614048 -0.2719856905785252 -0.17765705779726823
P 8.701531420805846 1.4705207765131982 12.56176252367901 -0.7560552531736205 0.7315621531282627 -0.15857124481041077
P 6.2774221360345415 7.720086677207386 1.3455033347748664 -0.10568365278275993 0.30847478664349454 0.2704453426745987
P 1.7854930708663153 3.148961001568101 5.978899624419859 -0.7756694278601222 1.5111674257076813 -1.1045523458463233
P 6.62866831027241 4.2817691444255885 6.270891204922508 0.3836746690151005 -0.7225550645336459 -0.5708941736898232
P 2.2038808452309486 8.490654911788416 10.316680573868787 1.971728106547559 1.002718405826957 -0.1582421436057662
