# total energy = -381171.472145616 ev
CRYSTAL
PRIMVEC
9.18439973414703 0.00000000000000 0.00000000000000
0.00000000000000 9.18439973414703 0.00000000000000
0.00000000000000 0.00000000000000 13.44229738427475
PRIMCOORD
 96 1
Ni 0.5058510152014193 2.909158582227302 5.185244764043542 1.1545667300912374 -0.7184958068626078 1.3293600931874654
Ni 2.0216333085573637 7.480638390758151 5.409744554795022 -0.5953487071877618 -0.523874353296859 -0.8300639434506027
Ni 3.024946308339819 3.4664312140669984 4.464791985569937 0.5110728306568166 0.9851431159473549 0.8315127600819873
Ni 4.657969299829458 8.19352230549817 4.8519438199767055 -0.25996398352730066 0.2150550388297522 1.3023884496946279
Ni 7.330197924848496 0.6572016551142273 1.1060441833835453 0.5510473141672252 -0.5352129182381298 0.9997035302600331
Ni 2.974762748771421 5.9102621891323555 2.9065208226540875 -1.732657678639816 -1.0999138186330477 1.794845207912154
Ni 6.949357609866215 6.816376687649738 8.995155073845332 -0.45288825189628457 0.9992888113201177 1.8321907384401477
Ni 4.4276061883553455 6.27555331554412 9.156113514209183 -0.8249878144792759 1.0043106900147414 0.18564367554717062
Ni 6.412162075613729 5.900205271539494 5.2178163188849345 -0.34502610340496703 -0.5414478434042482 -0.30586640248637
Ni 4.784943624689102 1.6531643798742468 9.299368105849746 -0.09036759125097985 -0.5722473452836081 -1.3077517708890702
Ni 8.170092902046672 7.1477957482327605 4.753035183500866 0.9766649032730147 -0.27788894343683757 -0.3407354464494132
Ni 7.691172383435014 1.718933865611673 10.412806649373943 -0.6982563398872813 0.03000297411999349 0.6173339532096013
Ni -0.10687334783340104 -0.08407583107632255 5.5120413162937 0.46630941039819696 0.9868683261685778 0.9698969884215619
Ni 0.9129972875987445 5.071496893088445 4.245453827409496 0.1861905491895761 0.9342064769984879 0.5749410900656873
Ni 5.287100674360066 2.4385958672772916 11.45514967381633 1.0613974077254043 0.5748462163590358 -0.9531652774891778
Ni 7.123457089218072 1.818529495179701 5.273695124662769 0.04081446291320067 -1.6501484070909902 -0.8503358063257612
Ni 9.088817581253553 4.818521789729744 12.887238207120483 -0.40750699554800784 -2.396500574044234 0.1662894393902749
Ni 4.47385882488288 4.978458924854941 7.288117761072045 -1.7654140471352306 -1.2216190436550445 1.0874437111904949
Ni 8.006665695062765 6.3184995682055085 11.187781697800299 0.24219688935186676 0.3104092846620461 -0.04276258777850701
Ni 5.877593279654905 5.2655632572319755 10.543451978764972 0.9296972762742246 -1.5509925281244192 1.0414911557197803
Ni 8.080195998486007 3.490705582284289 3.720384455986102 -0.756080449984601 1.1952942897175864 -0.3607239737561981
Ni 2.569537852776312 0.611350376850444 5.646948207112207 0.6699667489139688 0.9121055313343905 0.02779876737982309
Ni 8.095616605461728 7.421160218766031 7.194250441552115 0.5125280750461044 0.20979687575460643 -0.9344530457916551
Ni 1.6585464380563628 1.960731554622875 12.495287523907988 0.0018226550310355704 -0.11103129024791845 -1.2803530671611432
P 8.363139797831472 4.95291710948896 5.646880242554959 -0.5492585976979186 -0.04446645784349117 -0.33240327243463397
Ni 5.084658137755633 0.5559252804142417 12.80935357983352 1.9678976770578755 -2.221220501119575 2.0261131090563427
P 5.804742621804148 2.589771085157201 7.241768688348414 -0.5461192807379885 -0.2996633589994517 -0.06540397932710672
Ni 8.742914722456884 6.843819673738752 0.036188371414970846 -0.4530060084210714 2.1391586015208124 1.3086357161559203
P 2.399066211277588 4.701062502884898 6.149138320621831 -1.0261884639244392 -0.5115446280869126 0.6242365938667055
P 3.580620854644211 5.840120929171914 11.528087583463552 0.28526106753119257 -0.002970395482233594 -0.6416830714779271
P 0.3377719098058369 6.8011489530662095 9.642952822180261 -0.10849695386183894 -0.13924014858196665 -0.38815764448711865
Ni 6.531871540367481 7.426505539349634 0.8436174143674793 -2.544603829443785 1.250206882595066 -0.7008094453264383
Ni 5.447212313078199 7.114796200368695 12.035184003254553 -0.9216949747950385 0.8769153565865025 -0.5383661191551309
Ni 1.8079766200069176 7.630279813900154 1.1036149096818906 -0.815384487061557 1.529876314971094 -0.5816843223267918
Ni 3.344655259396906 8.069441066521403 3.0639028578027245 -0.49006563227753025 1.3607648327509918 -1.157251218901936
Ni 6.568324422491743 9.173323242232474 3.7853916365543885 1.1578705976534898 -0.3102506475969947 -1.9589623222414585
Ni 3.418167194020891 0.8262432855908435 11.45334769460928 -0.42627219197065297 0.17579249378470369 -2.3069421089581104
Ni 8.30894265562556 8.786283457501169 10.223660368111231 1.1743616533299774 -2.312751516551036 -1.7542150930956175
Ni 4.926585435754958 0.622806078506678 1.995320922062579 1.0377620276946515 -0.4298881914566855 -0.03802455887288936
Ni 2.9133466684577543 0.7273612838739254 0.6557606228125653 0.4021691282748622 -1.332806399864853 0.4065937397051191
Ni 5.060365400739086 1.6569116149225462 4.298295352230291 -2.045309479479136 -0.23457871068497665 0.23636948403681227
Ni 3.372015585889266 3.6262948739951706 1.9357582535938795 0.31405947982012367 0.7287020579716482 -1.930728781317062
Ni 4.7166851666524385 5.627584737376106 1.590626884365979 2.570241584616548 0.6783238626294125 -3.008362705505987
Ni 3.0329183672170825 7.926439964310577 12.343523586011912 0.9343499445548876 -0.11328666194099844 0.5394115297005097
Ni 6.937068883163706 3.1217315116216224 8.96257066084446 -1.5100032301962512 0.8281914090182382 0.6082471604169848
Ni 8.492235719005228 4.80215518959232 9.222222822732851 0.6631957487387224 0.9592747328210254 -0.28336179362595065
Ni 6.591028258372614 5.108877399575154 7.576360959002974 2.0293336728761693 -0.6268089825795721 -0.5251583622156053
Ni 7.202746011208185 5.210943632643164 1.7733615362482547 0.408428993141645 -0.3062757221096467 1.3880861462737644
Ni 7.79750936233013 0.9278080504391542 8.118516069054678 -1.5926536553086312 -0.9669471617646185 -1.4809536211284624
Ni 0.9455247573219212 8.56091665942479 7.628503551012064 -0.058480512734396056 0.01893103257654804 0.25557253932782437
Ni 1.9030718937571354 4.951576187143246 9.77548095349507 0.2455940879588738 0.9237765399144154 0.955574915371935
Ni 5.659371944489251 7.277470286583092 6.883289631140873 -0.11344504189573366 0.4547242766637588 1.103443943273493
Ni 7.91191024409879 7.4860296333398955 2.479996385481257 1.0723989010422303 0.1988141514908576 0.5077627924469771
Ni 0.8111367850824064 1.4813610004294357 1.0131421442645379 -1.4391297431141408 -1.7357005792311975 2.0980168371751806
Ni 5.620200480075045 6.951176120992596 3.2108275355347105 0.7869126048741093 -0.20751502169896519 -0.22526900324827653
Ni 1.862697272991638 6.105375574833497 7.729952592425059 -0.6334578553546575 -0.2800198737369113 -0.49250406651569373
P 1.1486285706995836 1.7781824276130884 6.947180907154335 -1.2340516129914425 -1.7192262357252583 -0.3871322885463978
Ni 7.290631531250279 8.679487258624645 12.260799698560858 -1.219472686736003 -1.05812156518761 0.5422600548928984
P -0.03656217647983794 -0.28294930998524337 13.118834783464662 2.5554883375667727 0.012389117692972212 1.2807217633544716
Ni 7.877211582303511 3.0835978843654024 6.8251918744128695 2.105472007901645 2.108438546729136 1.1533912217258975
P 1.7022090738887499 9.338789385933838 3.8256780870834555 -0.5392485217600842 -0.49610206827959724 -0.9440424892523032
P 4.4205984914390415 8.455277694901415 9.246956410931551 -0.8018838814719609 0.808936160333052 -0.8833426002690852
P 4.8347598082723735 4.513994651258045 3.2847729738211457 0.9498608957062931 -0.8011143502957881 2.0618524714394812
Ni 3.6636937492811357 2.678088271981819 7.1236380218907485 0.2528379140054807 2.4389086066967995 -1.141641280278821
Ni 6.242030256901248 2.554209089796873 0.3052931174006896 -0.29880718164674347 0.9300906550579014 -1.0489627815064775
Ni 0.6763483730191027 5.4996276817562455 1.720856160453852 -0.782667199334194 -0.4770203690577979 0.7377798519032004
Ni 3.9551331182826726 5.916856588065392 5.435688646864716 -0.025338992985420878 1.271395086636907 -2.9260943463233735
Ni 0.47340620507489634 1.34184997007732 9.189571363614693 0.5579628103401358 -0.28827080089179385 -0.2628683016582892
Ni 2.312585904378606 7.815125040816986 9.55337369884673 0.1678156462268142 -0.0036013441980131526 0.27997513654190487
Ni 9.048764414475041 1.1471866199579588 3.546897576089445 -1.0334608292161362 0.3867689916697081 -1.5746788159977656
Ni 1.434116448742057 6.355613727103 11.922376614821383 -0.9282057793303627 0.5521539169678427 -1.184370186605915
Ni 1.210320183002096 3.4175702080450594 8.202960194556091 -0.13318777174029967 1.109337683050109 -0.6211517842937948
Ni 2.75794662674888 5.712797597126397 0.5101180872686737 -0.17976356261730977 -1.3040655802867347 -1.6742944082095745
Ni 1.1583089279076897 9.183325053427566 11.21519070161069 0.02345540280946283 0.026991698097495447 0.7169297479270685
Ni 0.9119824114398302 7.370113325632583 3.203379905876216 -0.010819716323323302 0.5086418526178207 0.9607780568394291
Ni 4.957500124903425 0.5970162843507372 6.521087218324067 0.5551767629545665 0.8078953777733635 1.4201683715202897
Ni 6.055834923239073 -0.08049483366129358 10.363378965894945 -1.0076132720254132 -0.08077094870148024 0.32804859501036404
Ni 4.107759471303835 3.8824845172237366 9.573482941832639 -0.23451289044404774 0.11014734498106837 -0.17502964747675018
Ni 3.4320999282568465 7.810927770186906 7.219239356060479 0.3096325543970216 0.41489326070974997 0.7189899728902069
Ni 1.2075097567158717 3.0656515674919307 2.8358404384354716 -0.7757254779090382 0.3317756661529641 0.036379824180614764
Ni 0.26325520186252827 3.4547027357418076 11.06048316363378 -1.3047903742679012 -1.1515706235773908 -1.6382647682795268
Ni 6.28369069361469 2.5523079190738382 2.568459604259963 0.18007158077603183 0.8543287295352384 0.4750213363498981
Ni 6.658331538847947 5.5284115901909745 13.093079890027306 0.7316020052272626 -2.136480026247385 -1.2881615074619686
Ni 3.106990550218387 1.7475800080519792 2.974135454276816 -0.6454330254386625 -3.466386478856624 0.7229407300078388
Ni 8.331012767932085 1.5546433250627165 12.552228964722804 0.34142141677284427 2.100081947234325 0.4611618047589864
Ni 2.8072852215514845 0.9120062908788634 7.943268539749298 -0.14350226629243026 -2.311197541800355 2.7771220580553075
Ni 2.2739195819439515 2.263780004754436 10.000720088416617 1.2753173045094488 0.9698244833124137 1.149403440722743
Ni 5.551124610471473 3.8006055945384754 5.3263217345322635 -0.21899731130695185 -0.7322416956937905 -0.3244004567348155
P 7.2184329657731245 3.6750640360208275 11.39830191387772 -0.008058094417786122 0.6532779754043782 0.5329794009219209
Ni 8.429745063935064 3.171566064004149 1.2033721846833745 -0.9371614458617538 0.35135950182216263 0.5812678036146635
P 1.4071510514337087 3.6595240318499407 0.7643266554974406 -0.20192158677158772 0.37767988488424636 -1.0932207228835882
Ni 4.6468378074800984 4.346994712818773 12.768018270866914 -0.717842489549325 0.1615472967195992 0.23634557277741233
P 4.167228458896327 8.068991030939621 0.9043960973469501 0.36820434129364327 -0.9385783808139383 -0.44808183164657667
P 3.8891340225545417 2.3319374343951904 13.267963717107412 0.9080529585315715 1.527352520107976 -0.6840139710356542
P 6.810076189504804 8.789452075372893 5.814385322973779 0.957264644369532 -0.41780992013591267 1.0127071416085525
Ni 2.1950347735374782 4.039776545256017 11.94740594068811 1.9907856373996424 1.3628692806885045 0.9110763187389276
