# total energy = -381176.37733130547 ev
CRYSTAL
PRIMVEC
9.14295990119600 0.00000000000000 0.00000000000000

0.00000000000000 9.14295990119600 0.00000000000000

0.00000000000000 0.00000000000000 13.38164599995721

PRIMCOORD
 96 1
Ni 1.0581604479390916 2.9031548699499012 2.5785359122276232 2.061812362230165 0.8584154980101023 0.8572646722351106
Ni 7.937286800274865 5.184231900721267 9.909523793279483 2.0266265583576515 -1.017949878064731 0.2822629041348171
Ni 6.218812655436745 6.412652545329661 9.24919272475691 -2.361109853249766 -0.07536623274614117 0.807690717961725
Ni 8.22997122814393 6.081814546377952 4.731428647149798 -0.027003525172037367 0.27967740279582803 0.280107291244395
Ni 5.013377411667499 8.74755418021402 5.519272918275107 -0.2634126041975335 0.7268930297873675 -0.9356943743979241
Ni 8.773428756337644 6.732244703775342 12.02260625281032 0.311210954627735 1.2878568317373562 -1.0922251917395382
Ni 5.3650430729547605 1.095408866005397 3.71843807761394 -0.8407342786802552 -0.21339744862167118 -0.21401965558670238
Ni 3.804257555114571 0.3186339762627289 7.366983713630908 0.3870852373585462 0.5263613813847708 1.1246388321835534
Ni 7.05555804684375 6.117371516888473 7.036497718629998 1.0530577775114576 -1.7308008279367355 0.3866666617638889
Ni 5.866561844724779 1.700727659942024 7.089703344367173 0.8309293767746916 -0.7154403078657355 -0.6613499537792352
Ni 1.9902120518947393 7.14772822419437 10.422401778256564 -1.2483171217715212 0.125458521416842 0.5318951667188065
Ni 5.012865405920883 3.9301652539832728 5.98835338310908 -0.1967665249332095 -0.6208512223342404 -0.9266885713548878
Ni 4.439793831061296 7.906502454759585 1.5572353065649944 -0.6270203272594298 -1.1151992840372085 0.4681246092300647
Ni 5.254970980392108 1.6194741765460356 11.665208870048888 1.7726856410959793 -1.5998200911500835 -0.7356514927062879
Ni 1.3464653980826384 6.708930156384798 4.382903592540439 -0.14884321888936947 0.7742411800540279 -1.4251442274683261
Ni 1.1404287998685507 8.43226835581577 8.465510328914805 0.7999938635380996 0.0930255976991172 0.32174527850015555
Ni 7.458159136959531 3.686825379944314 7.478319363232532 -0.7015404099551917 0.23639159552399933 0.11261740378811574
Ni 4.346846502130991 9.26364682984307 13.223193899314285 -0.6003687861101725 0.1768618155894825 -1.3185953984717937
Ni 6.488721970541164 7.111165528110139 0.8374612851562917 0.21179282313871267 -0.31660358639821606 0.23179651995414918
Ni 3.243556404811614 2.290320563089734 12.887328186790002 -0.059814658164787315 -0.00776138911297373 -0.023039141207650646
Ni 5.251048650654639 3.5015890151864966 3.0188590257253294 -0.2889274606391863 0.6296474804696318 1.033410692704491
Ni 3.9463757216395225 6.180704799152905 3.341437274828953 -0.27590070936221517 -0.47699388669523657 -0.24373183793915446
Ni 7.567143217310627 3.0195264617878825 11.41659167963588 0.5275780274006914 0.49573877140290756 -0.8554402174318623
Ni 2.2618585293537476 6.404414738585001 7.843317288443281 -0.09367325858544513 -0.34455379175423884 0.15248441518638253
P 5.063828263628685 4.989102853502049 7.791275561483681 0.034390818775044 0.5536891226654465 0.9560035182689213
Ni 4.020954844409982 1.8976212983951137 5.36773933178828 -1.2158140069374932 -0.4711358852525628 -0.14511460508487267
P 6.793804251846141 3.673622946049433 1.519994202866498 -0.48288171293458126 1.3094119322003126 -2.3627283626897952
Ni 6.94643682209624 1.1510346331913084 9.239277184896105 0.858255318283154 -0.33615296928505334 0.11536231352310457
P 7.6437063623492225 2.234914226938087 5.82093573262947 -2.874376349123792 0.27702865231907126 1.8769078788418643
P 9.014300031241135 6.634753323843822 8.336417222865371 -0.29749411926227476 0.4134092199650557 0.3667274996378007
P 3.1719304580439567 1.8433852610928738 2.9181493239579375 0.9429654541380406 0.22580559247803694 0.0882186632287771
Ni 8.321336825035582 4.455730009924715 2.9081130970282905 1.4068312880917515 -0.44789208423327376 -0.014972819259748409
Ni 7.832535910293113 0.3914859939343362 4.281524626118542 -1.1498107034634908 -0.076195670625972 -0.10417235834455608
Ni 8.164233347462355 0.43608352305653175 6.7863545682328805 0.8297669810354742 1.5518384210644822 0.7021500185147327
Ni 1.9992910109374102 8.107217850392772 12.890740339372808 -0.571007559339236 0.7096257580664875 -0.13301087984280316
Ni 7.288886379944416 2.208052211160275 2.880011295906887 0.8385714667009815 0.44686929939571424 0.6683340984065522
Ni 1.2001780419066719 4.952723016613039 11.114126113414502 -0.3700606777760917 0.01677336280359692 -1.4419039634251685
Ni 4.170433093542536 3.32652876464267 10.625455028700637 -1.6473333062396984 -0.6324538395701753 0.3600745130976573
Ni 2.1323850761782563 0.5580350632366501 1.4641663762698685 2.1996877692541217 0.2763974464929756 -0.03329038662201364
Ni 1.5924750163718087 2.5766140620858615 10.85454834284001 0.3682454789442239 -0.4997350370464942 0.37813856968821974
Ni 0.832067853193279 1.190779079272366 13.044829383112834 0.14673337163521827 0.9948924820246349 -0.34229559184768144
Ni 0.8569321322633128 4.426847400039723 4.819520150151036 0.24118284626505557 0.1135298883000561 -1.6199579995505389
Ni 0.23994600737567662 1.1013152180110017 9.480360576466051 -1.5916095303148332 -0.2139957443273024 0.034832791408469045
Ni 9.000448447203222 3.7620445098980433 0.723412005097604 -0.22248706962776524 -0.2806883605588456 -0.4263884058335431
Ni 7.464266634079878 1.6902132562168763 0.3613270268667086 0.3467744535546415 0.8960047691177858 0.21880730678333285
Ni 2.3136716823193226 1.5844292117821306 8.709150092033925 0.2744081839770887 -0.041083143193555056 -0.2716270216875257
Ni 1.6168318611751071 5.1275729790823625 2.1664755159431133 -0.7875070439249986 -0.2301394439667004 1.2584598666324778
Ni 3.3201561216892546 3.7680971492598245 1.4948638636674192 -0.24579283423324122 -1.474834652714918 -0.6416252216567981
Ni 7.101135701252325 7.925400952585568 5.580667893070207 -0.15255100675825986 -0.827733238434897 -0.022455243679722618
Ni 0.07839630847067647 2.2141871371599047 4.698295475271918 2.5751094542318107 1.297180166020811 -1.6640277361762437
Ni 3.0596731980984244 3.8883727849157514 3.848547880788797 -0.24506932580365537 -0.27745159878910275 1.1542291442461605
Ni 8.540996433293557 8.43794613382735 0.49858571027868953 0.6912721952599643 0.7411631665531364 -0.5763523685909171
Ni 6.857457537702208 8.1781946470174 7.929588428156105 -0.2999204693155802 1.3503881175023582 0.9863731316997141
Ni 3.365258342190257 4.923575260894978 12.529168281184505 0.5194430569983828 -1.1584053871110371 -0.9514125564641293
Ni 1.8669283824774436 4.051327756736017 8.596878203352777 0.006853275476407552 0.271545517717313 0.6459783564191713
Ni 8.189321629046534 7.957035593358621 10.03793392023477 0.16719266793083462 -0.15339098616105196 -0.6369748673689803
P 5.444038245289783 7.8925777270435855 3.5809681918314804 -0.10107057949078078 -0.43261947434491943 -0.03217375651906717
Ni 3.9021329393560533 7.216876428866796 11.904820245097312 1.1279804949622767 -0.3563117036211154 -0.5291759680154307
P 6.5009369647818565 8.981787666331027 13.130405657883822 -0.49765707147154287 0.13545728450076672 -0.851782823184933
Ni 6.09892102409078 3.33331284078533 9.392470218579554 -0.03705653853266521 0.757129974295038 -0.6206725306645311
P 5.792394155143564 4.890825179031083 10.9403120482861 -0.058983934733375834 0.2059998706060194 0.7419098149111739
P 3.034027195968825 6.263631444185156 0.691857822370448 2.5667950208288435 0.4794706303705032 0.6329883719174066
P 0.9302778697620141 -0.1664420966731101 11.112118319450985 -0.21382373752581238 -0.14287980221708296 0.4178055492605385
Ni 7.068129616515122 3.986412742432932 4.771921901635281 -0.22529548561083781 -0.13212950567911438 0.5524588498027712
Ni 6.5138559669241465 6.851642615294214 11.972478147328697 -1.6585625992966142 1.6216970937288329 -2.1965032008785528
Ni 3.5649040115314072 5.359557297098163 9.819010320237556 0.5548916276139798 1.0203217207310171 -0.6810304629272981
Ni 5.588451294714745 5.989626083107811 5.305408117913652 -0.38248193425857996 0.5213958098493795 -2.3729420699980035
Ni 9.496609444553297 7.75912708637206 6.392278373798253 -0.2902523500981969 -1.5546208689056258 -0.6682150563301847
Ni 6.544740884996798 5.905090277157624 3.077765286873487 -0.8503337494432324 0.7721747844433023 -0.4593507196921766
Ni 6.744359125458664 0.042798194641231156 2.2116783090014867 0.33119691083135866 -1.8053476501053747 -1.0072620593335813
Ni 8.549718816905548 6.29856669343193 1.4529790507063116 0.12715879193740035 -0.243908986946967 0.8837066684767232
Ni 3.1416946901143366 0.48501664369739256 10.998709046575568 -0.07143398757127052 -0.09413271472036691 -0.31490511564987056
Ni 1.1111987575126405 5.852975406519936 -0.07988569661574302 0.2848990562060835 -1.5141511909263536 0.28010137770712407
Ni 0.4281977202626711 2.7555509275683514 7.124294818326932 -0.07024356680759515 -1.7573703508951477 0.5983049616026084
Ni 5.098233221209321 5.196977186628097 1.1413632103561246 0.25409595478229785 0.9565694180747204 -0.13567994203453407
Ni 4.021165132484485 2.8973490905016677 7.80517926039223 0.5326181609277602 0.6407944982253868 1.7405468515799059
Ni 5.7822363268490955 8.586427800345955 10.435007176879052 -0.49140697679677303 0.3619866425187056 0.24088768362214
Ni 7.338505222567353 5.020033486373506 12.736569923290908 0.9526441148783853 -1.0259786619064781 1.3691306882171839
Ni 0.9099713561328377 0.11342298731505941 4.519811186297597 1.6270776413144559 -1.55770413581664 -0.5184665520177264
Ni 2.72722603822878 8.0241083461653 5.913536543384834 -0.2872634426732021 -0.09466364752317245 -0.16905337528865724
Ni 8.101466928703104 0.8253596636166348 11.64126894421069 -0.8792638022140212 -1.8650854322856396 -0.5662746726399409
Ni 5.212383073825379 1.6959824638260659 1.2912300352785218 -1.0318670023664553 0.899581944946083 0.050367396708958415
Ni 4.804296207853 7.147792224912696 7.063635851792592 -1.0842228902603521 -0.7797932202205087 2.124042057594348
Ni 3.074027644923191 8.486193532486135 3.398577116151286 0.2892758451175405 1.0388575747516753 1.2447828833660175
Ni 5.564003020313836 3.5625999856716355 12.790859904055738 -0.8869485724527887 -0.18608513395996337 0.9062480441123488
Ni 3.025990534338908 5.748727379325038 5.586823847877287 0.7111717623973688 -1.3890731927773818 0.33328104705389694
Ni 1.6660392706087976 7.3257507937007595 1.8114863887827284 -0.7543225867532299 2.2393038409838466 1.3243418140372676
Ni 2.4291838359397704 3.4393346021738616 6.2430332701396045 0.0019365549010805358 0.1014593302887672 -0.14743014059192674
P 2.004795072713531 0.9183645931934338 6.189640213727328 -0.11315990655514704 1.5058061613957678 0.7606783537679287
Ni 9.25605817324144 1.0248617884895372 2.249347303216798 -1.8450385409370935 -0.5459619292245177 -0.8222886703805581
P 8.848401026377827 8.200293180759731 2.728276564305318 -0.18855982075270106 -1.9456702331182427 0.6650957939749126
Ni 0.14615386896345578 5.11289852866596 6.827824290820838 0.7500465850856953 0.602213295518079 0.47663753179708235
P 1.5148055732021315 3.6102439489861955 12.783913997525309 0.31434718626387154 -0.5668038056705336 0.27266060515836266
P -0.018974384391998934 3.1991124774134034 9.46004766276504 -0.7426302380169663 1.4949257670378384 -0.2603761313640548
P 4.769360958606225 1.2652210576464111 9.32524112116096 -0.8743648222505069 0.06799513709305063 0.40370510530341447
Ni 3.8081981707715613 7.828266148084727 9.227929857536731 0.6667999211502129 0.2670538004945466 -0.2475111024759286
