# total energy = -340889.24012592813 ev
CRYSTAL
PRIMVEC
9.06691676604396 0.00000000000000 0.00000000000000
0.00000000000000 9.06691676604396 0.00000000000000
0.00000000000000 0.00000000000000 13.27034918509639
PRIMCOORD
 96 1
Ni 6.093983360455053 2.1870853224991165 11.240609047166025 0.20356040792659139 -0.931439455776312 1.0016881647902298
Ni 4.84987548435482 0.3395387945471244 5.933571474321238 -1.818784492336571 -0.9052167746343572 0.36845785206534604
Ni 3.006281225290785 1.6018430653049398 4.713654131354908 -0.8025806504286694 -0.33033867659612137 1.0702797978166987
Ni 3.611098955137172 4.158468702248772 4.879706546222832 -1.1517238613258036 1.1124505176474775 -0.40674852011542856
Ni 4.770431162271139 4.742124249061226 2.2769529717532384 1.499058301148973 -0.26784441471664194 0.2896221727133657
Ni 7.460811950935864 6.068505325182838 2.513775389720883 -0.44277584605263093 0.46349636642943404 0.5228238005451576
Ni 5.332634384722719 4.789263147773058 11.64589839985675 -0.33867239327279736 -1.109491949239786 0.03238767230208616
Ni 5.881844715877116 7.594104689916941 12.548932452451998 -1.4937466591280728 0.14898103001881438 -0.4748686128221176
Ni 1.8342372012701116 6.609301557855877 0.1179098085031984 0.2297015850983334 -0.8117021531139633 2.2838831702561184
Ni 2.751500872568639 1.7473670745999734 0.21620878337996516 -0.09284022116118851 -0.67843493428598 1.0378468740989737
Ni 0.6824559221698456 0.08678217758040839 4.680664155789801 -0.19204546530845637 -0.9587813381243747 1.6148353336119932
Ni 8.76390918557027 2.3112114089320768 1.5923490970723648 -0.550069266524672 0.38588710328538706 -0.6742270668522196
Ni 6.757436839093401 0.6950480557591879 4.670897273371569 1.8060040527424508 -0.40395733052353655 -0.09506139718222338
Ni 0.6815546706730278 7.589806971511593 2.694876165849054 1.3722869744579786 -0.9923949124137618 -0.5887407149529409
Ni 7.639457406084777 3.886923620979179 3.9389178534590776 0.06320182946946536 -0.9036442879409146 -0.992379228684478
Ni 7.487477752265253 3.679581375212274 12.980391646141369 0.9071921531931731 -1.7595362481982149 -1.5330621688982438
Ni 8.071106098328308 8.72313526221826 6.841435473318446 -0.801072441314259 0.40427100510921343 -0.07521890853499949
Ni 6.596109194396422 0.6126143713163432 0.2737592222708291 0.12628255998003413 0.15708051919749721 0.5602554630290544
Ni 2.0048403015128127 6.372065688497338 9.298957899894889 -0.4137897432329261 1.8430436219942516 -0.4260348791488663
Ni 0.2464650836302784 4.885562867568855 1.3928823749486787 -0.30814645676979835 -0.4093921283858627 0.7227628096690779
Ni 6.5411818144394545 1.5617854283538208 7.085264804331774 0.37761252198142065 1.533674605671262 -0.737169472012711
Ni 3.4434244689133053 4.359863050813338 0.27054228030834454 -0.641296891783102 0.967417673643134 0.8301333632359574
Ni 6.30477103447941 5.575818151283597 4.7088903734431575 -1.2373462245823141 -0.49588840960689434 1.7754179524254778
Ni 5.270163330265224 3.009273307724889 8.967465087020564 0.18116532806084285 -0.000975733649707997 -0.2280545364132137
P 0.08771153651827387 5.377706026480078 12.615337641964514 -0.7463966470379338 0.28092361649810327 -0.8238914960913036
P 3.8714917291523787 6.327801002305541 12.566622006479076 0.620798257609118 -0.5969610459802042 1.7898197296731047
P 2.410430675830242 8.424588903710001 1.6803716288254562 -0.1692271818623602 0.19327728083302842 -1.0576245709465333
P 6.307545510918307 7.681183355665819 6.103723042123883 0.3465618233232032 -0.569108285433994 -2.1320456446251153
P 4.681548180145332 0.9725355940812392 12.528616212724437 -0.3898957102241479 0.7066836447190281 -0.6114026753268309
P 3.921459505801907 6.404117238208113 8.29142038148452 0.09654595214754985 -1.1349548693975808 -0.07310623306737087
P 4.863031580148409 0.9247982788825881 3.6109683915400472 -0.10802258532858171 0.17478410712484738 0.9551031179418391
P 0.2064827020858354 5.6893268785337225 3.7052144547560744 -0.8099568882880824 -1.1575350686909418 -0.31768704927038194
Ni 1.418754821087207 1.0777571596805455 2.7459138386416857 2.0609929516526635 0.38074592540407975 -1.8328237440384563
Ni 1.7009444622890344 6.613907551421104 4.828057763260325 0.884852094935076 0.0009140271738371354 0.6079712810477786
Ni 5.9307063287176724 5.418035670925206 9.142115658774125 -1.2280367742559302 0.5661569161151541 1.1868482158327625
Ni 8.452279266600158 2.366592134712392 10.30008601505475 1.2441565626359283 -0.23696263753612093 0.5623935924179799
Ni 2.279658539626985 5.155403368542655 6.886687546713499 -0.6673074569142508 -0.004559337235908277 -0.05104076862689919
Ni 0.8583314343380957 0.009304469678415167 8.88283992886765 0.20406768658031307 0.20590885355410987 1.4654778940903666
Ni 1.4112836819184154 1.0747106757476401 11.29897188177233 -0.30877869103715855 0.9254760391040254 0.14733063889958498
Ni 4.085770166016524 6.923433945770876 1.7513809985199056 -0.06351421850356158 0.6845302485504404 -0.9587337727158907
Ni 5.527654691010998 7.992396196478451 8.030047473799232 -0.36261836256543356 -0.14251856222292228 1.2358249028417814
Ni 5.458927464191287 2.776679699597443 4.999882177151129 0.6363454613150975 -0.006540886442311316 0.2351716070739692
Ni 0.8884689579826914 7.594122823749875 7.013963479927088 1.010244539000673 -1.4936646409372276 -0.07717243271694452
Ni 4.7890364748613825 4.715376845483634 6.944811014725076 0.9162504067406996 0.003910390797999717 0.4359454533943589
Ni 8.255119168025672 7.517987926176642 9.430825319607358 0.6297482677135541 -0.9340198149089785 -1.3807723862211705
Ni 4.3177381569077475 0.43267053372935904 10.269591254901357 0.25481817766030307 -0.7810193793181258 0.8655816767412382
Ni 8.09028262665597 7.399311056540337 4.757168076863239 0.008064779286005465 -0.7448493571554721 0.020546970913416226
Ni 7.120140698522014 5.976258517047781 7.4175011043563925 0.6953422515642799 1.179723431862523 -1.3730853019895577
Ni 2.2904481702226915 5.474975906337842 2.5572621344798137 -0.08214571756181982 -0.7600900853646264 0.26661491318491504
Ni 2.6112900763232556 5.038131870958732 11.367168693978723 -1.239487182184717 1.4238813015955025 0.5907127510776472
Ni 0.9735148210596731 3.4763827102707787 3.7346075845587303 0.567398758942055 0.13556269973037943 -0.8722781149248074
Ni 3.8178246505843223 2.733666247878089 2.8901621327898153 -0.45601265645787914 -0.10548799183218606 -1.7502861903548568
Ni 1.2266812626506967 3.2566006551111766 7.935124111923123 -0.9771179316500332 0.6986358347138871 0.6513211087883235
Ni 3.5377657347522353 2.681168801534273 6.92294161220672 0.47479610771296943 0.40766331862021404 0.04639067144939752
Ni 3.8924181723581692 6.804702674635769 6.144715478162748 0.8957779978189604 1.1701563569993783 -1.1830656088618787
Ni 0.7582752910500281 7.090582550839658 11.434926667428112 -0.5250927990849925 1.750226540761515 -0.6765577718679251
P 0.22683430278761937 5.6693433946404985 7.923114981062608 0.7604035028399873 0.06838003123629513 1.4534312473384774
P 8.578490743820524 1.3680888918697212 8.021182749569467 0.04958578134792751 2.0139854725548734 0.32952440822494217
P 1.7454539552254407 3.337078605672094 10.435908423730119 -0.9418557660136295 -1.380785755957609 -0.03945049268613851
P 3.9879018696719384 6.060290698863755 3.8690500085478208 0.12438714272953418 0.038248501958237355 0.4940582983766911
P 6.887646826475706 3.8757622468083266 10.23612345283844 0.3670542868496001 0.9826460605571141 0.9533398553938289
P 6.389936580853756 7.945638108258234 10.271541548633406 -1.4127561382166185 -0.6226252835155277 0.45114401551166816
P 2.5162687917493023 8.5576005682806 5.877742842867454 -0.13153378107664443 0.2512425444939028 0.3688959680440292
P 6.859847660587944 3.939013056081981 1.770968258163523 -0.39411694739434705 -0.3648981597385457 0.6966915665033228
Ni 5.1653497759069325 2.8116417294941196 0.4272956656477332 0.6595332122854706 0.1467050895004441 0.3664292516710915
Ni 1.5803363394452627 1.1807573307454415 6.834190100369684 -0.6546758841931692 -0.4738394002266548 0.0596562782100521
Ni 6.754907169399114 0.7101299646103629 9.272987531058519 0.2492890203119577 0.3823927169788834 0.48920431271849935
Ni 2.801405180802899 1.9405558637619222 9.143695115622673 -0.3541139246388482 -0.7309204057792057 0.5225281236816097
Ni 6.489545725160002 1.7649387587129812 2.411501478664992 0.01647974282257807 1.001400972567114 0.5140344843883018
Ni 4.441655704261967 6.715865027092297 10.591861200345472 -0.07331552086469954 1.6775751358433753 -1.6377322928148244
Ni 8.319040929117882 7.342198549714828 0.2983441662710462 -0.9036939102319276 -1.0041211997117545 0.2048495590516601
Ni 7.921837452532411 3.659516289070847 8.286921377533606 -0.010374658366104714 0.011434209978870631 0.07715726320829293
Ni 3.085879684954405 8.433093671356028 12.618841098487355 1.076800372544036 0.7741457921267442 -0.49821422952659367
Ni 9.339105299319032 5.15265609285316 10.303629366010048 -0.9869652567577583 -2.245808989092216 -0.7031473494309954
Ni 8.64788892245879 2.3128253200631987 5.667845540040154 -0.25743710334038883 0.06962264539414462 0.8557749750634616
Ni 3.645163360303617 2.9601940888891245 11.620101209124899 0.30350715822557406 -1.3119781502655923 -1.1859015356487772
Ni 0.8244674080255711 3.1547519824375874 12.847940317008428 0.8262311999680738 0.5324934624244377 -1.42487169053323
Ni 3.0644908290087987 8.634406417672391 8.144225339484622 0.6078761502308111 -0.7520535882133951 -0.0965328395214273
Ni 5.648580155931113 7.579579489736839 3.8135133318042733 -0.5455760066400088 1.2468816748765752 -0.4026121293495517
Ni 3.198472653641366 8.398784459444974 3.872831819406198 0.6532031563023847 -0.46266692854960323 -1.3495535374162047
Ni 3.305244661956526 4.424192823146563 9.236281933125243 0.9829342812214943 -0.6081970239053396 -1.1409879629655382
Ni 7.326213575983541 6.151277205609902 11.204421170163013 0.12320623504755554 -0.8357792486678252 0.7239396035859984
Ni 0.8091796801705956 9.066898333147352 0.23718781470126415 -0.08948621708729106 0.439764570030133 0.3233840996551592
Ni 4.466698527543766 0.36644396247124167 1.4865581291189323 -0.6072138340564639 -0.36664239612316213 0.3106854211415682
Ni 6.488629966596837 5.527364549684054 0.3317584735268086 -1.1904562448989948 1.6450589083832248 0.9272544711606869
Ni 7.873719326842146 8.884898118905657 11.564551838698296 0.8071890957349581 -0.5254769218972886 -0.7165214567450564
Ni -0.33964397077814135 4.960763872745988 5.95396750291371 0.9941010964715911 -0.4183174558999505 -1.0614141198959526
Ni 7.852847285135157 8.66800841009902 2.559399206691081 -1.562059327461542 1.1973809970432863 -0.383359708877843
P 8.627678765653892 1.5596003014852786 3.6059117722264125 -2.174391713691494 0.21935520886700288 0.3309169176970946
P 1.8952394152599548 3.252765349445644 1.5838960108501992 0.4316722799403017 0.1735687466605075 0.6108773989509801
P 4.61252174508221 1.157536957673505 8.085106324044972 0.3577003564385259 -0.675117954097605 0.3401181245803885
P 8.345398455287395 1.497410321438261 12.686453094581628 1.2482893538573792 1.6034836560445997 -0.2079881046806418
P 6.077381836404013 7.787638021904635 1.4793653442856767 1.9013117616075255 -0.42161952368998995 0.15490716569526225
P 1.6902727016073986 3.1339343422294004 5.726288163511368 0.5854067654837014 0.7003695295755422 0.9093477660835951
P 6.807205143580656 3.9020925722284376 6.526967609494169 -1.2874215439721506 -0.29573085671426486 -2.4249927679466556
P 2.283466644543117 8.349741508275079 10.494589507104413 0.5569546807905956 0.04229104745872716 -0.9651810710031313
