# total energy = -381167.32169486955 ev
CRYSTAL
PRIMVEC
9.28720049385466 0.00000000000000 0.00000000000000

0.00000000000000 9.28720049385466 0.00000000000000

0.00000000000000 0.00000000000000 13.59275668736553

PRIMCOORD
 96 1
Ni 4.363256692881113 6.936739878987437 2.841919493081779 -1.7931343958686345 0.41040000082508676 0.8372854008997064
Ni 6.933247891697737 2.762217669354439 13.362794262536646 1.1805847514215537 0.813046840067316 2.1836425428658006
Ni 5.639178697656347 2.5469589422249825 7.287483998077173 0.4788517658395817 -0.47889830280680107 0.44763805924093875
Ni 6.297139685757713 2.072828795645769 11.431018535394175 0.37355660674449215 1.120318607541645 -1.1862185526685636
Ni 3.7662568871456865 8.044359241039398 11.079823058372845 -0.9072875411204567 -1.153188361686472 -0.46976908681202323
Ni 8.209708554086808 1.014060106848659 3.7445461991479934 1.4995614660376368 -0.4543306407697659 1.0211599003615959
Ni 1.9853805181994424 6.543139045676819 3.5532280167935095 1.346932811963906 -0.022217930857935927 1.1482947810395967
Ni 6.874088426178079 4.629186384512179 11.87944356915309 -2.670334116464775 0.3896856510958708 -0.49047160946669727
Ni 7.377491827909248 7.1243320366062095 7.5874902848235815 -0.5148009302406812 1.1402261450988491 -0.04065428318625257
Ni 4.497466023528614 3.475288903671449 5.657576641328944 0.8688225522760392 0.2822639325760816 -2.1952986390474902
Ni 4.477489255815461 5.9303417123355935 5.662293610330111 -1.3138727961851437 -0.5309849961997113 0.6579447847524281
Ni 8.155081242283568 3.3989016817092534 10.535120405900802 -2.1466749645025156 -0.3176636522316142 -1.0335888701535683
Ni 2.6352059188918258 5.546427428873799 11.18776261442554 -1.2648655130485056 -0.8962762776116177 1.0565089692848515
Ni 0.9148384456599036 7.680523884493381 7.80664592117314 -0.3919204539636605 -0.30756590167597997 0.5171655738181158
Ni 8.651890731845358 6.071925079972516 11.780637974535022 0.14080877862066718 0.7411623952221881 -0.5500276146534592
Ni 5.49626726038531 8.367934584551236 8.753612507338335 -0.2812984833390188 -0.3830447487405855 -0.33041658102190835
Ni 7.600626100841008 2.762041212549906 5.794402176283649 0.6086680500044873 -0.5418905873686216 0.25830536487795513
Ni 0.5154479717205647 0.2692554380364964 0.3275651247343259 0.8626362209596692 -0.04060003290954943 -0.3784977527998514
Ni 1.4193720996601067 7.684777422202643 12.043250278240873 0.41827194737399576 -0.8016704799095742 0.6887905664886912
Ni 6.367945300376531 -0.16353273668074556 5.717249689021795 -1.399768467707699 1.5262595441541134 0.24637853153338213
Ni 8.553232803711083 8.806067543005772 6.37059865348469 1.391070682823385 0.7467110929545592 -0.25555119917158564
Ni 8.090386605421726 8.92521303486632 1.7552464824478766 -0.18745244662113522 -2.10627393497765 -0.6324044743894786
Ni 8.239399733249499 5.49238521068559 9.126068243145788 0.3097670230923568 -0.5059697051022963 -0.0029225729634336766
Ni 6.052310513068666 8.737583728446596 10.861849682613656 0.16043915125708497 1.14905299936186 0.7031632902705954
P 6.508655671191028 9.074003269888369 3.5566401341611584 -1.01856360038933 -1.287790497275795 -1.0709017476714138
Ni 2.500504366631681 2.9829837062253644 6.667043298939609 -0.9693871386646788 -0.060427094937805605 1.2019825003710396
P 8.335355086114351 3.0059138036143813 3.714587548618431 -0.9559343555938827 2.9852508020788715 -0.6309129774456167
Ni 4.828879764041801 3.5947687347405863 13.309415150445469 -1.450646999725121 -0.7116818692645679 -1.0599894716342841
P 5.1136996209581085 6.449551928872801 7.797498028938153 1.2053411324306273 -1.3533415437037273 0.1669065041489835
P 0.39068558115573204 4.288754772567345 11.46353302342939 3.7162905070447607 0.19777979668907228 1.2620365282401427
P 4.37129940828771 0.9320355543416541 6.201490810500733 0.11594621105103257 0.2061471948171611 -0.4041100540513169
Ni 0.6873206142155415 7.2013507881846275 1.9665052124345832 0.8437581531082436 3.0136190688089193 -2.253108608077423
Ni 8.807172719834162 1.661164357871143 12.15344662395154 -0.33294063299534277 -0.4121830608674385 -0.7996336519852035
Ni 2.991184304036017 6.585646561168731 9.070772252925373 0.5076211246627903 -0.10100604480143249 -0.28659469874095156
Ni 0.2380383718746083 4.892487798475732 4.346596384373152 -0.5561848925041066 0.6252904890525166 1.9499614042944289
Ni 6.178077778699311 7.038713337606879 4.964115330315663 1.419228890425156 0.1343537670239428 -1.0109757607397427
Ni 6.730276130483901 0.4509836574246382 12.860392020991194 -0.15182415589456433 -1.1033547259937966 2.509692619388897
Ni 3.66398623811861 7.883226316900298 7.285934893077381 -1.2787762095923267 0.5491110163764608 -1.5911529023933886
Ni 1.1019820315071525 4.49063064415303 1.910924105166844 0.38530114887492994 -0.7441392184623249 0.9668065224216962
Ni 8.311013334289074 4.7913130390768055 0.10911345816285088 0.47370338886942287 1.438254282487723 1.0928414851672985
Ni 3.273682360892683 1.7935255356711695 4.161613001301393 -1.138388063448846 2.08048859848343 1.8844324693536836
Ni 3.582314599220671 8.356223425050407 4.944854605740903 0.6739064502880072 -0.10940892415314706 0.07089251324550372
Ni 6.19387530630511 7.146509870775901 12.567862859156852 1.006997235707969 0.6244080864475633 -0.43090326298476106
Ni 6.843059890181033 4.049107857611418 1.9474478775450481 1.4861189673794857 -1.660207848209521 1.430968290349271
Ni 4.468907882795027 3.4767562813091426 10.88135466055469 -1.1790431179660468 -0.3782007903847228 -0.1924290739001202
Ni 6.90209862209759 4.737112938484541 4.315631930057752 1.1680076860874917 -0.6113011167519602 0.5128492058309491
Ni 6.029018214870345 5.373341878027666 0.42474081571052547 -1.2328323958723606 1.1625584900474624 0.27145501488603574
Ni 2.031036394572227 0.7046161672198208 6.096609529486597 0.2899260771070297 -0.20167270398557527 0.732804510175796
Ni 4.3195418413581885 0.30539564904484773 3.156699857967696 1.5003309972138097 -2.152830956801582 -2.884468186142155
Ni 2.599487346774305 1.7859100314755463 0.9506703216203345 -0.24917974842760313 0.4123057024882319 0.4873616030828058
Ni 2.8857931557287833 9.129670748118327 13.10409651373135 0.4980314240918261 0.7603695642782583 0.9373864173883664
Ni 4.710830161809403 5.7346696905092704 10.458443423291163 2.023343516731005 0.9226485969575593 -0.2232200911390478
Ni 1.483843843716224 0.1429699466325391 3.8847829227503228 -0.7800986672760695 -0.1917634152916633 -0.609809362697782
Ni 5.865015545857529 2.0219535127389108 4.0135601699782875 0.23270051982565734 0.3688124071912874 0.5912835359794527
Ni 1.5616891561158748 4.392734266438318 8.828658657586082 -0.34451779630998086 1.8901850555667445 0.028683998198253825
Ni 6.8161548710899105 5.051605400163063 6.689171910948037 -0.26789969343460956 -0.8753189586336602 0.5160846820491112
P 4.778821754755937 0.9614295430967119 0.23643540111343203 -0.1966595670417 0.7024114997062354 0.2980613046196544
Ni 6.847972819107234 1.4652230072379013 1.8097799935287056 -0.8648306575078268 0.8590374478648174 -0.5718979323639893
P 2.876422370688071 3.5833640528476285 3.0071796490068974 0.27539677314260314 0.2971197666419915 -0.4971467074940277
Ni 8.576042167496999 8.027948758217855 3.915909903069897 0.008252726927095463 -1.5412650164240103 0.9840090023429117
P 0.4266521215196222 1.8031470751183225 6.987247388764849 -1.0427288847816236 1.2400857350006644 -0.5234156684928857
P 3.1271860643295613 3.054745902468755 9.101084745784025 0.7900840606235555 -1.923057637925049 0.830486375700002
P 2.1758238462914536 9.138484301144725 1.9457622507017487 0.14099749759270555 -0.8013280089684909 -1.4617870755023403
Ni 4.709669261779582 2.6443909599277666 1.873584916607694 -0.23969674863783233 -0.17455322206096388 0.15249418537839543
Ni 7.855661906592237 7.794895755431307 9.923038186977946 0.8143383051852299 -0.1775953513213974 -1.0112670667279164
Ni 4.039216989357347 4.468127757974988 7.759968452774113 0.5659301448163286 0.8783664872107325 0.5264048330281967
Ni 1.3605098245480827 7.835536543675268 5.5742398074282296 -0.5580833950784002 -2.0315422504917144 -0.7155338960208065
Ni 8.480003229829999 8.310223922268795 12.131548334509027 -0.10607651734580441 1.511676504133616 0.5626435036452567
Ni 0.8894203073269754 6.729412420861714 9.994672219858044 -0.8099815708784309 0.011296398849425708 -0.03608389020675076
Ni 5.263678617610693 8.27718006381998 1.1594419393831532 0.48903821945428033 0.31234301134964915 -0.6045393725480943
Ni 2.4780664908553085 4.674777250483295 4.919449469488309 0.9457581863918292 -0.7219318291273503 -0.9250687763632779
Ni 0.8779441139921808 2.5411544420758796 9.985755578908998 1.4489202468420015 -0.42620868572256915 0.4450936955525302
Ni 8.631951112933159 5.785953610226626 2.6526398511796603 -2.4047851826505293 -1.0354863442865974 -1.0634427202902073
Ni 7.052142629151844 0.6075751406470804 7.885471033197959 0.4468970673098561 0.02504203057029236 0.31266362791386154
Ni 4.302992050533065 0.9012029782696426 11.592432861700505 -0.591548102494749 1.6055770482385188 0.4156239682281874
Ni 3.5600810418495468 0.698765231069525 8.273679718050065 -0.8741280236493527 0.9853665448120709 0.22960748272263037
Ni 6.525576950025693 6.547550465790137 2.6178156364451133 0.6252807188605037 0.9037170501603791 -0.5251776454893149
Ni 9.243336791838122 2.8394964625395374 0.5292255332744756 0.8590521031528366 -1.2462350424315118 0.42524143671329345
Ni 1.0020703313406716 2.770910488777736 4.664381158536244 -0.07464452408876822 -1.748743528458085 0.18392026509816067
Ni 3.3764173699316875 4.9044961483841965 1.2973317874851973 0.7357090854171007 -0.13172301426931507 -0.18541716135866132
Ni 1.5448793236840723 5.300697397761612 13.372322929981413 -0.9001923248365723 -0.19329373589326065 -0.806968752194036
Ni 6.152250074835863 4.290036406200268 9.290418253447527 0.055430155943846475 -0.33589740163082155 -0.5412822643606614
Ni 4.9793974183082215 4.734679692022038 3.225996302547748 -2.0400425746532416 -0.5326947798019664 0.28655741774511295
Ni 2.7635643133890313 7.179349410819467 0.7736061341919999 0.9461407665422287 0.025143074924530894 0.25854036370689665
Ni 0.17989492606104915 0.5749529210890975 8.743296285313336 -0.44664329942783726 -0.4699660333141777 0.5214942831004566
Ni 2.4865735662738335 3.065296161939765 12.487869417342022 -0.6612926181787385 0.22789101425215588 -0.568622346936511
Ni 2.130845935536084 5.800209462592823 6.863580887828166 -0.0640934880457993 0.7521451194859369 0.22006817577362747
Ni 0.28380848081032756 4.277777301885362 6.8192001440481365 -0.4767596591972435 -0.23284784403679895 -0.3815835908140267
P 8.896060513317465 6.3155376294303105 6.195945423238287 0.38075800958893785 0.2687928946728403 -0.252984466885674
Ni 7.992220898900095 2.96301622571245 8.252108338055951 0.4303725872922717 -0.42024526905028264 -0.7443685608643116
P 2.0715378748126088 8.680690339785148 9.399594864571998 0.09091883576875953 -0.09469552920237241 0.9125932696040864
Ni 1.5038020370289 0.6563951661411443 11.315834034435376 0.5819722858808558 -0.4684627092957738 -0.4330771307076284
P 4.230505452671067 6.350513225528745 12.624354112047971 -0.8520731007318423 -0.2015354070767626 0.5535754799057176
P 7.570693454472113 1.314612480969095 9.899156151564476 0.6198932292963454 -0.7914251480324821 -0.25442017089093605
P 8.446550734570689 7.110094758640489 0.41175359489691643 -0.6762785500646096 -0.16960102026201113 -0.8009940226678399
Ni 5.289394875071279 1.6082273165113232 9.461768026569072 0.22050089243567184 0.06881634744276535 -0.5806754214463031
