# total energy = -340890.47837695765 ev
CRYSTAL
PRIMVEC
9.09658235599622 0.00000000000000 0.00000000000000

0.00000000000000 9.09658235599622 0.00000000000000

0.00000000000000 0.00000000000000 13.31376777463652

PRIMCOORD
 96 1
Ni 6.3732018969132955 1.9804987672174672 11.407422379300442 0.41479992966499524 -0.1544605650761469 -0.014918568983045274
Ni 4.915192614726703 0.4151862020923284 5.9891314636934325 -0.7355782162661912 0.1927859430189067 0.3332679344277744
Ni 3.1678028614616918 1.7517197263642605 4.980121289076521 -0.8270418687948272 -0.6474184312998076 -1.00939067564081
Ni 3.694131104156186 4.415581033781149 4.865809089598119 -0.2963013845057542 0.5369923787360559 -0.060071254260283646
Ni 3.859761671784623 2.959536613337073 2.8875562685113336 -0.666252276176859 -0.3312254500764489 -0.683731663908545
Ni 5.340412346920864 4.67159524156535 2.2617960154051433 -0.5804239675571293 0.7780554115937955 0.603096983674613
Ni 5.348817588819407 4.312198377745496 11.669584057295719 -0.686162899057857 0.4008167280120259 -0.3025800184256144
Ni 5.812588636128315 7.772228940495825 12.084108028208163 -0.7915781286705786 0.8358792645807992 2.1515407772352493
Ni 2.1181027652686186 6.7896980068339685 0.062391637590615265 -1.0463178876844625 -1.2563219943538686 1.0247195926883965
Ni 2.864231722242876 1.776307787892142 0.3901305762423851 -0.44809340161080247 -1.310775902427375 -0.32322212015599816
Ni 7.841835987040906 8.75437781770775 7.306795037971492 -0.2796678897141312 0.5186578420929261 -1.1625140099627722
Ni 8.951264241573627 2.4391211490344102 1.3740078040611519 -0.47643004377196657 0.13749128421166001 0.11099298081081531
Ni 6.987293964106866 0.6736028172200412 4.670549134619103 0.42193525515819585 0.0920704328746995 0.33647075763578826
Ni 0.8811904603169207 7.6566113814801495 2.0769079833836157 0.20685321974525023 -0.6122416262883584 0.7100155373057385
Ni 7.742655951954522 4.201711291057501 3.4553749320104226 1.114764767602951 0.35417794510756423 0.3507918022441507
Ni 7.744093211932846 3.6922117253243756 12.59868530609255 0.22628895987235867 0.04484929510420663 -0.18766996194858002
Ni 8.337144884633632 7.279157802109854 9.36851172917917 -0.22850936456244517 -0.7549951873402223 -0.4921196865930815
Ni 7.05012405695669 0.9829766661867799 0.32454876729482274 0.01678004767181626 -0.3394792054448089 -0.5761335677118916
Ni 2.1476393674813568 6.281108099314971 9.280374944812301 -0.2678266741048291 -0.6411361978355217 -0.9599874426173338
Ni 0.4485515557283314 5.004712079579044 1.1806699568885886 -2.2770316945519236 -0.4796030421833095 -0.09053548428741182
Ni 6.511706456596434 2.103675585992548 7.185480289560732 -0.9349078739408866 0.03412496670816704 -2.1171707843958116
Ni 3.3673727770592463 4.19147763614856 0.3601218614165146 0.7446734936992401 1.1298900532801637 -0.7815348855019636
Ni 6.018335130999799 5.588703556467117 4.529982379764537 -0.47855583186571776 1.4735509009064878 0.03345313745212303
Ni 5.682716732897251 3.050011219314249 9.089215729062575 -0.44824252559415706 -0.827727582007942 0.780151632001192
P 0.2345026103365004 5.572993759109126 12.4506893726032 0.11016791380635865 -0.10460636055818114 -0.7072503158557756
P 4.118714075600457 6.214985043730003 12.602000100624833 0.4128626034329664 -0.43976277025792004 -0.31779272161031075
P 2.5988571314352975 8.762209974931393 1.245712338515173 -0.1372341738955314 0.25740856409529866 0.18754063545956734
P 6.197783406900841 7.865214203143996 5.560655155092693 1.538747135098163 -1.5105400765363275 0.545314525448506
P 4.601005764149012 1.1094555442791452 12.636775424492734 1.474744921214589 -0.0476080887962664 -1.2718491434551902
P 4.224325394260725 6.198392877904307 7.8580788441123754 -1.0344882420393862 0.7710892646886075 0.46955799924248165
P 5.049885706492645 1.2530905762899653 3.6577183955028545 -0.7328798434984216 -0.5457086755631312 0.4532692893847871
P 0.2652845346443798 5.885315810347853 3.390230668663856 0.6863037955110954 -0.4666292556314609 -0.39634172295980774
Ni 0.7241934587987733 0.26248278734486535 4.5164430269054545 -0.6022482625210724 -1.2952011879175693 1.6924556524996335
Ni 2.0197323259928104 6.577629387374294 4.440794030502137 -1.2158926826942285 -0.28030706596002697 -0.5694494708234967
Ni 5.881777239894895 5.618467573233388 9.125202717671694 1.3285195995640409 1.0212889697402927 0.971874680973223
Ni 8.664367137419779 2.5856852804947232 9.94553067585595 -0.02936148388125266 -0.4143677272235831 0.2993370860082844
Ni 2.459060857088098 5.751586956288887 6.657562873966155 -1.388881645591866 -0.7666649103686668 1.1881792759393601
Ni 0.4290257421620727 0.26243548511773074 8.987378582332724 0.45894165717921603 0.1821703722865895 0.24616281597815026
Ni 1.5619286365685825 1.207043677490803 11.358933957854559 0.294667448446757 -0.5269406509270086 -0.7551749074511962
Ni 4.2382886478475905 7.278484655031399 1.4490036658667254 0.06341934479691014 -1.1227791532669955 -0.7205642593558623
Ni 5.634022728694977 8.007057208472984 7.972110868860827 -1.1191361571977694 -0.1300862499968405 0.4690116398207084
Ni 5.549424514781068 2.8740742241197412 5.121873328584097 -0.5230490291820862 -0.25239671270300407 -1.2123551018546153
Ni 0.6395897869355791 7.87540237514223 6.379438513629358 0.25337424612492493 -1.4417985481955555 1.1577096465955932
Ni 5.468373967902258 4.660579280592259 7.002016782302528 -0.9864471794707592 -1.277891235884212 -0.8939018638421702
Ni 0.9629641854759625 7.258927003427646 11.259532875822144 -0.8041706206236087 -0.10612613963681722 0.19868173967805136
Ni 4.6951553893112665 0.4005252406552265 10.389664931296474 -0.21118450013075243 -0.45837010094646224 -0.05227721213716158
Ni 8.249799502913056 7.4055275212165235 4.561350123962314 -1.0134093098818997 0.6468268204623956 0.049199087432470104
Ni 7.123769985972498 6.34290118180069 7.045619429480328 1.3135825186382344 0.9486015693778954 -1.4379326374822463
Ni 2.355614524977455 5.431651065797908 2.1733526762201145 1.7308075128049545 0.2508334819809422 1.6457057979386047
Ni 2.7043774842741524 5.112251873653264 11.383497458610659 -0.6585968165141303 -0.6963400967011749 -0.1896635953398411
Ni 1.2044693447448207 3.766976533943561 3.8633220740347203 0.3947957186289265 -0.6319771570440729 -0.4193592669009036
Ni 1.6562692899558034 1.1668458810084843 2.7763732932895318 0.5956418129481483 1.9079822316491657 -2.572787490966853
Ni 1.302739721617075 3.838166385781223 8.15269894650417 0.331141632113391 -0.3846588873052408 -0.46134203909059257
Ni 3.8689401231651748 2.753198840626405 7.0371250410768 0.328940253586698 -0.2308981765095959 0.7140262011270283
Ni 3.986185970384141 7.116783810887995 5.478442065016227 2.449196875996685 0.33631572011516275 0.7132142467486943
Ni 0.6727604737137587 0.236424718142953 0.2546606363615782 0.2523154658431074 -0.23728119721780427 -0.09419210720339262
P 0.4045968708216637 6.134034559254747 7.829706604413722 -0.5423348739948918 -0.8720737122234852 -0.1059163376188563
P 8.432895508252752 1.843995455605411 7.7494647436872715 1.891811535426574 -1.0588054786285122 2.0269075799331806
P 1.7975665003563148 3.1961751011603456 10.374260779098432 0.5541714616185037 0.4772635954168554 -0.8090217780683228
P 4.039937674256968 6.169438456948611 3.3775827808546195 0.24780497956726355 0.3156535637801209 0.9196856576744935
P 7.0303480873815465 4.133978140433526 10.271598572368367 1.359535074108949 -0.30516860508839705 0.41979815421053507
P 6.422623627686874 7.965904270865831 10.162185792031257 0.2837556866302597 -0.8754531702186793 -1.5507081641147809
P 2.4632725746195105 8.680377121988432 5.735890803804108 1.027067524095283 1.2141795566578637 -0.22229140867719138
P 7.094269770088325 4.016741389796702 1.3243741229236825 0.6434553328870014 0.2699136385408448 -0.18169060443669355
Ni 5.3120310106400686 2.8805600871864745 0.5305681596305454 0.48361447733554785 -0.41801046618249305 -0.1956666070008114
Ni 1.3134918817080685 1.464058509310545 6.7691724788903835 1.4011213821911677 -1.520976184267987 0.731684794749056
Ni 6.873941454044368 0.7733586659559667 9.176581123263862 0.3566865704620309 0.33922312356994483 0.7589803972402155
Ni 2.757374171829253 1.3702272645232354 8.994767736006086 -0.06064718136841168 0.4042771757568005 0.40771551201438816
Ni 6.787423861298649 2.202246150075464 2.669050907528489 -1.3997545837506278 -0.3850206415200337 -0.9501408888405571
Ni 4.235859860415869 6.959685837308079 10.316692149359122 0.25894762644764435 -0.017613085096072893 -0.31458064243091627
Ni 8.276279653526325 7.46269044339233 13.240541961297737 -0.009740881436847742 -0.26535121598114303 0.4473313266337974
Ni 7.782144215029821 4.275402702984016 7.922477187723357 0.9336729730925211 -0.7470970155390682 0.6063527716077493
Ni 3.2416762050310313 8.262853098285794 12.126591795782584 0.4642067622328973 2.068322652544857 0.0060477488559766805
Ni 9.311170513993392 4.998553693469399 9.985046228677671 -0.4183997312011116 -0.08646208554898657 1.0835880848898305
Ni 8.815979871968501 2.879768684540183 5.961905393344579 0.0595230950662975 0.30021948861323783 -1.7845803356510361
Ni 3.854549330217669 2.5729227757505067 11.121482235587855 -0.9435845757792781 0.4768529902419982 0.00932359139377104
Ni 1.1427399383340908 3.3704019389122926 12.685038250701513 0.13562826286099222 0.5969918992181396 -0.7015139275926305
Ni 2.9595729996656375 8.145916534859632 7.972616638827882 0.5380429314877573 0.434718008745161 -1.3204090546417646
Ni 5.956642110917635 8.008003253015676 3.166386523622294 -0.6556148510676708 -0.00985195309341529 1.0689338253117655
Ni 3.115142747445818 8.533785700781696 3.531902658248588 1.1408452667400868 0.2225307783815071 -0.3705959814542715
Ni 3.8261770905190153 4.30136434841523 8.950526508761968 -1.9111125497480312 0.4280004875156693 0.655347199228581
Ni 7.302172154927293 5.905919568897853 11.503068392224936 1.2766807605158788 0.6594136559884708 -1.7985355122795477
Ni 8.223983402796103 9.150161010092726 2.3506386945461744 -0.6323281126255885 -0.4324173856364424 -0.21390806970950255
Ni 4.828929726280939 0.5088509794264522 1.5556201568536046 -0.34232130287929435 0.8258121101527842 -0.06707159683751675
Ni 6.1223272580389185 5.787791353211184 0.10543302565029848 -0.25834393142537443 0.13927254448179885 2.1312627437125036
Ni 8.184222242256565 -0.2370314601717764 11.20846102504814 -0.10461253120576823 1.043533640071106 0.4240872685041922
Ni 0.0069752591859339515 5.2844046906769995 5.475833165258107 0.051896174648659005 0.14543727853161406 1.2217149458029606
Ni 7.689668360981563 6.485199016236742 2.2495074425904873 -1.0218906078800336 -0.349118785417102 -0.6976320760397211
P 8.632456327268166 1.7339813911887636 3.610933763892034 0.8573122376435945 1.7985283131906962 0.3759351342789977
P 1.9027593762380834 3.2587595862923564 1.626183254181732 0.004920063009436688 0.28766864853142066 1.0333633844063235
P 4.838271916140034 1.0039624811867143 8.185237420823531 -0.7327173497786285 0.5568670061727957 0.0016560475461842447
P 8.747082358830442 1.6986047832413234 12.262392851253335 -1.1809344214514887 -0.11653447945433479 0.10427340269879462
P 6.414764180716808 8.06385626736314 1.0304135227371298 0.925139224589897 -0.5912372561225495 0.12522403680853275
P 2.0533532935869836 3.4654794154529576 6.0291928114436315 -0.6590832692322456 0.41174108823401345 -0.4231128204060649
P 7.141235423683757 4.149014790713063 5.700648825272358 0.15047098430077957 0.9246615136225301 0.5072902236859328
P 2.293694090341758 8.35275461958807 10.043333488406141 0.5887461142695797 1.5825754451370229 0.0389450138046297
