# total energy = -381172.06198365445 ev
CRYSTAL
PRIMVEC
9.18593276195399 0.00000000000000 0.00000000000000

0.00000000000000 9.18593276195399 0.00000000000000

0.00000000000000 0.00000000000000 13.44454112543124

PRIMCOORD
 96 1
Ni 6.003126406877288 3.840546583543595 1.9506952635371584 -0.3503493153900934 0.9882803760247559 -0.39918896260061576
Ni 3.445082996832276 5.294624607163987 12.882236211998816 -0.002942113347459449 -0.045332405388212246 0.8525600676705897
Ni 1.132800029027273 7.452409373652002 6.976829756700702 -1.6281562190906151 -1.452114328299267 0.4463501936674506
Ni 3.625595759426969 4.152464112761721 1.7805010590933288 -0.33201529296759597 3.1401093739243855 -2.444040014386094
Ni 1.4273010299323596 0.3609593864742731 9.08161261036519 0.22256086028849414 -0.9539859736182603 -1.6222745634988578
Ni 5.315182724444885 1.6175784389388463 3.1938578432560716 0.0732000783327578 -2.2921657219798846 -1.2518760427673732
Ni 4.505167182966079 5.449618848844322 8.994371052165068 -0.255581795299205 -1.0009206904965857 1.5007624283242733
Ni 0.7722108356389785 1.6040475601386843 2.0880984441840167 -0.8874342538399556 0.47070702524526026 -0.3237342839057263
Ni 6.385665386343646 1.477685870542603 9.751352530056058 -0.8069450980449522 0.2380594701447255 0.49052560263308426
Ni 5.063837235150905 7.976779153304714 2.650335394018608 1.1715565797810146 0.3835749102124426 -0.27794190816196
Ni 5.416696466210391 6.608350765755408 7.471978165986004 0.5236673794923756 -0.054429739703790135 -2.4737514254075976
Ni 5.901879057158765 8.099227635589955 0.27433144857547653 -0.5102169104144244 -1.2660880726016968 -0.43119354053167025
Ni 8.936084472285376 2.9164509444278495 4.481159747973395 1.0019702148070229 0.21796912715275363 0.1418989263610524
Ni 2.1345351709393316 1.7984586388397217 4.104725739349256 -2.3594494348282073 0.15031723233173466 0.12107736163001083
Ni 8.41549929688634 0.9499632254709773 6.067911115516814 -0.13197806770291462 0.06397855973448982 -0.031555149098461785
Ni 2.886743638223013 2.0961747161739033 1.7335664547881369 1.9980631448976622 -0.010502185082904495 0.3065544296923301
Ni 9.059203527654399 4.823110684005594 12.971414164802518 0.23056419020894484 0.22882972401634138 0.18192483193468667
Ni 2.1834961919881186 3.9820283182890766 4.9091938960979755 -0.11277295552937353 -0.41391624150846135 1.8044243669601567
Ni 4.912774572646722 3.0674584913361063 9.156229941318154 -0.7088099470334115 0.11620666380127083 -0.2814028701273669
Ni 5.766616198820418 1.7725359368885627 7.371399552164732 1.071182512136626 0.30880465917908756 -0.4577430088854245
Ni 5.009098262462403 6.197895736951853 11.238090218636462 -0.5971731619910103 0.45331685479327094 -0.0181041657998785
Ni 8.196874099707893 7.108065502163291 0.8050027780292149 1.001868656232152 0.8936681505648093 -3.318694085742246
Ni -0.048650536525062994 1.8969961384251508 13.05310282671296 -0.3092178354571061 0.10428265867017525 0.2544764780501682
Ni 0.5498001156135872 3.3951207091241424 11.1952020176656 0.7011344327660247 1.3969243133906843 -0.6387160184298032
P 7.22422162058016 2.424930059947832 2.825907962031681 2.2595885593748113 -0.5146289234391911 1.0062940389933572
Ni 4.123087500132449 8.446033337030087 4.716627352673973 -1.2211906978683742 -1.4938546454608466 0.572781106299891
P 5.508188355449775 5.619384070233184 0.17115413440623065 0.27870835401433935 -0.025954515082232718 -0.10072193790211041
Ni 5.571755009419308 8.635309479377227 8.644436622062795 -0.6200950608945063 0.7411649663253493 -0.051153382945363514
P 1.8790192682201836 7.997704707891794 4.492211343550092 0.8356918311603414 -0.4252923445558869 0.6823288700237474
P 1.0786122122980433 2.5490044523129285 6.454106096179686 -0.004964285983810805 0.4581682693483013 -0.8491952649634149
P 7.924722472951341 6.664743206321732 4.045314801312645 -0.9748425053522953 -0.3687285892282295 -0.5172357649344189
Ni 3.5332955081139836 1.087403149848454 7.707540385792924 -0.6266161498424756 0.06735930328126463 0.7631430132583372
Ni 6.567776501220232 0.8930150359790532 11.95102698663538 0.0896998757599939 -0.06378161323233532 -0.9620127005774788
Ni 2.5822942722530415 5.97531140279929 10.758577185322478 -0.28833893512556796 -0.15976989310420225 1.2678564773560292
Ni 1.5704546044209706 8.609836888126141 11.16075752599081 0.6704118068711873 -0.054539782919093165 1.3433831469394346
Ni 8.091814587937728 3.2568999804710286 9.5370327795128 -1.1019750720374504 -0.7526266871080457 -1.0751538380795485
Ni 6.9096493568248665 6.38091625916124 9.434411214269154 0.4561399260643628 -0.41837170617665365 -0.9330150277935481
Ni 0.09905834196694269 6.517823399444752 11.431019606400318 1.434552922376736 0.09402935637328322 -1.0253605687065053
Ni 4.221156517152496 1.0937781871107164 12.52389940929742 -0.7049424936582053 -0.8921740825177862 0.18039991064972802
Ni 2.431442886199912 5.9007583733749085 3.4293934238582935 1.6467926032448799 0.7388679427610566 -1.2434237982349619
Ni 0.7024115263633298 5.838174614199414 4.782640220509413 -1.4959742629070107 0.042961334052874396 0.49472549964704476
Ni 6.666874342697589 6.23070788839393 2.0856246725201446 -0.1726475203978188 -0.5022765725214253 0.2248897655319869
Ni 8.473545205330485 3.605809260489054 1.3560429945511672 -0.6022703740082596 -0.9188644473247788 1.0936408411401424
Ni 2.5906259131707245 4.289159976594179 9.198755297949157 -1.678989756802715 0.18764347958601876 0.9146992602034956
Ni 6.6569719072959765 8.953216236686124 4.541579301415476 -0.5733197524121804 -0.20699360197785643 0.37746056978458864
Ni 3.224253175816734 0.2298384651698659 2.9972320361920204 -0.757178053924154 -0.7721989528130184 -1.2210282041485812
Ni 1.444735930110708 7.943259685048237 2.393975304088506 -1.3456302911023985 0.4856093962783895 -0.7112964609006911
Ni 1.3918157720878073 6.926808679023579 13.396934123159546 -0.2994049631317424 0.5137920293601925 -0.44133011474503997
Ni 3.6689717334217855 7.689452365802836 12.509876164506972 -0.19068355196392323 1.0633810138143363 -1.338651031571088
Ni 8.021588132793642 3.066080601437923 6.790380125831369 -0.2996790427287355 1.813517844620993 1.0305868501024509
Ni 7.358244378010141 4.567456992296628 4.285017120966974 -1.0948551731632177 0.46484053916215423 -0.3287805880803822
Ni 8.099080660667482 5.738810380675075 6.4981232482737905 -2.0828488711854902 0.6712659273413665 -0.036502722911724225
Ni 3.294994043189475 8.066966640107152 7.078067001893305 1.8576832262842977 0.4658864639281654 -1.7113558318382462
Ni 7.378774937493076 8.54633453568519 10.261316930119895 -0.4148762914288855 -0.615366030849953 0.514976536586597
Ni 1.0612416136482767 2.6058102598487065 8.599894953214115 -0.27091662588406246 0.24521665001479703 -0.005024192687468767
Ni 8.488490717759447 8.570686443152422 12.309781749272561 0.44239789388792194 0.15101425839875926 1.1810724896912497
P 7.60267286001524 2.8596175790941074 11.739666025000156 -0.5705162215251142 0.236544833272412 -0.4257435731606926
Ni 8.14792226459176 1.0670654949512657 8.435481456189798 0.6078602093912112 -0.7804892178462687 -1.2269435411917513
P 5.1557516772924 0.027630366831640985 6.2741775589018225 0.8354059244888064 0.4097315140031524 1.841826718868015
Ni 4.028729599904843 3.2714780555938097 3.6441430760497844 -0.1791596104847237 1.5255226659880887 2.1816126569199654
P 2.8284864533278147 6.0238590568786226 7.512043529852119 -0.6552340706894845 -1.0584570941501577 1.8395816315875801
P 6.54305715644682 4.442629353453857 8.219037918016806 0.17625709212594806 0.07140647676744477 -0.5356047543599098
P 9.302961436575714 0.09083050208825627 0.7845659150593572 -1.1130143605707477 -2.164795585362626 0.4261580349902919
Ni 2.1557730472366665 3.2720383974857374 13.348075984556491 -0.24072261879918544 0.5590082208855147 0.1177495828083585
Ni 5.299731985719921 4.07509100201239 6.126260159738559 1.2280210905266464 0.3157741485183852 -0.02951035075429111
Ni 9.006898827119352 8.102249807433305 5.153991652595787 -0.27845818567674624 -0.03470989267735958 -0.2305197101242546
Ni 1.081184273441319 7.03546907639433 9.347182516374751 -0.38601591555376746 1.6666826573005877 -0.8492271466426149
Ni 3.6450699366546293 5.813749219270949 5.612221798542425 -0.013958004841988865 -0.055696008010723434 -0.47739754989155847
Ni 7.6440922303546355 8.576841018030974 2.3806382484673554 -1.0255513445610727 -0.7971815909002852 -0.8953825621527548
Ni 9.420265796574402 5.037299075711892 9.440232339792347 0.006542943324840345 -0.4649055880721348 0.146436923440722
Ni 7.099311308343498 8.130358761356247 6.809754176393094 0.4510226594424555 0.32238933984205764 -0.39965047561806655
Ni 1.5737707261092657 0.4017430902739738 6.278318577342497 0.5695492296261545 1.1465245765130512 -0.7199451377146247
Ni 1.237685008077001 3.8889013330371816 2.753859017848931 0.7595930911235499 -1.5829243438360094 0.7805961757377783
Ni 3.614930891615029 0.9548225838452377 10.033055689586815 0.10111737356831617 0.06646250249860812 0.9867099462138427
Ni 6.522104044061776 2.149361266243786 5.054098309350545 0.5010691824768855 0.7608308201853929 0.3460308905203976
Ni 4.8733301778280556 5.638398950828116 3.3433478740897957 -1.7161486252411993 -1.7430081686362047 -0.6501350589000223
Ni 2.2576817841063184 0.24508343900336813 0.4451907145434959 -0.01655276215235859 -0.7795710769073735 -1.0352114933586558
Ni 4.970673506168392 3.1719944049449613 13.232668519650966 0.5690764037547941 1.1203157793281673 0.4757882964229096
Ni 0.8629237577892566 4.880715667682319 7.083243274944148 2.0732278031559583 -1.239445273203188 0.48599017665657596
Ni 3.886402759355142 1.7912384957732401 5.4372141653876085 1.5636045604614748 -0.13561566445550194 0.9614617131700152
Ni 8.972387278136184 1.0453591360885481 10.637361455199482 0.26053373998784163 1.1922308203009144 0.38461055056580856
Ni 7.186164301592332 6.433744557857596 11.890432900472865 -1.2089653594467757 -0.18852099709496567 1.3333486455215682
Ni 8.625994943665507 0.765156039360279 3.678413035004139 0.5254252427237467 1.0396013948962355 0.8748255639370095
Ni 0.07842949300460479 5.7973798872805276 2.1863374009581733 -1.455745497293951 0.4502780679669471 1.7896855180880855
Ni 3.4738165941757293 3.4334995357548803 7.388218994855225 -0.9159863544460353 -0.12098248792335939 -2.121551172851695
Ni 5.761591493658375 6.717424530095614 4.947712348905062 2.1185936328852675 0.36117520236100376 1.240258770243419
Ni 3.360535672679737 7.651431790545627 9.258018342470029 0.5173730618432315 0.3254744065252846 1.491373788020522
Ni 3.3947440858853057 7.137947341088563 1.2244967645648541 0.5561231860282357 -0.8032655923108359 1.2746164217876823
P 1.6785822176977572 5.122967083648287 1.1207875848949094 1.7875594728840183 0.3518014744555876 -1.8763723180533685
Ni 3.7189983226585013 3.3608204365920282 11.243051540863187 -0.7358055017856489 0.08444274112611264 -0.25920602231535356
P 4.632043284790815 0.6748987394696672 1.3494153441409047 -0.3489943440240957 -0.7667566987515246 -1.5220275083506367
Ni 6.660756511549654 1.0401507122734146 0.6438631474029819 0.6550103847144526 1.7712321964789042 2.731227095295406
P 5.021196135768454 8.452298143100496 10.823715552369206 -0.058674631023073145 0.6548730878056398 0.055164818097601764
P 1.8764839508075257 1.9113170074336048 11.775401140212912 1.721076658670436 -2.7431475008820754 -1.0037072521027877
P 8.450222122320564 8.028376537025359 8.466753126725704 0.931587551318402 -0.4208433076455978 0.03699843160122015
Ni 6.269536825724741 4.325141274802077 10.566279789725256 0.2517199983509536 -0.2368554225342953 1.2287474271697096
