# total energy = -340888.3942831903 ev
CRYSTAL
PRIMVEC
9.10878937927999 0.00000000000000 0.00000000000000
0.00000000000000 9.10878937927999 0.00000000000000
0.00000000000000 0.00000000000000 13.33163398711969
PRIMCOORD
 96 1
Ni 6.866870241418112 2.2867250937850954 11.77865820595373 -0.6295796033461739 1.0145323677427496 -0.8565159669945442
Ni 4.705172388207629 0.4597406303169144 5.500125569915066 1.3935607962350902 -0.555219957487676 1.3633487914280844
Ni 3.0312501967172767 1.8264488666631549 4.862259834133433 -1.3361038396692022 0.7571834532407927 -0.5618739724690839
Ni 3.531195200810107 4.379514956689083 4.900321820689245 0.22393768603136271 1.5974271654378747 -1.6318210695367121
Ni 4.054212767949382 2.8803175596546704 2.465086116890123 -0.9675205177695854 0.37931459227419195 -0.34674308609607385
Ni 5.225348013116153 5.027067889786111 2.6067742437925094 0.8082656166285885 -0.5393364534882001 -0.17456504913550583
Ni 5.808720417502068 3.0405867056484275 0.5136109205312752 0.26389108649584875 0.16950023301808875 -0.33610566098688566
Ni 5.815998340073765 8.457091768939346 12.556305599057955 -0.6330943013676517 -0.2512651702017221 -0.3197732423754493
Ni 2.592306753904366 5.054175646448653 11.726904798349713 -0.4360914920539199 2.0773094294244996 -1.3097060664019635
Ni 0.8480701750548656 0.03132330430482137 -0.139176833719637 -0.21621434924517602 1.6911991543847134 2.095904675928184
Ni 8.15365067428234 0.10976910778381176 7.105454024326363 0.022989261806321697 -0.06472957896790144 0.20329069920497247
Ni 8.878664750745715 2.7365990836393537 1.430510750305506 0.3339119957696765 0.7104922198318409 0.09936619520516435
Ni 0.45693056884836797 0.5781813054201952 4.8803107216932995 1.65699756880234 1.1543826391048893 -0.13324999243680277
Ni 1.8594773363064265 7.082457064230288 0.4613893211623177 0.043334915342209235 -2.0264059577064133 -0.4007755903614452
Ni 7.6973549880412895 4.4128895603219975 3.7936367243939393 0.1275521707210771 -0.7208511944686617 0.25128239659290275
Ni 8.262710207387384 4.211430469560763 12.706806479512428 -1.2509149644056843 -0.7603855051178582 -0.7361052924142548
Ni 8.225327736505974 7.603242978015287 9.42763781271359 0.6223059525028959 -0.23928048703602017 -1.507947633218803
Ni 7.2855466282585235 0.9366112496054605 0.48480073116704364 0.2640929180940097 -0.01032812139888544 0.04661358609348101
Ni 1.9373665927652282 6.743582779580914 9.322398505799496 0.4924644715270099 1.1701748689421396 0.531628286210665
Ni 0.11340715819074022 5.46138406768485 1.146051461464719 0.0022036925195381405 -0.5497653621310081 1.0540157705493525
Ni 6.4025770382584755 1.9547734889285742 7.018824884629083 0.36469195726501064 0.5102534200793147 1.8065676385554048
Ni 3.8822023926753775 4.21075641915988 0.18153816877837906 -1.0632812550116784 0.17522196599321435 1.30113709378603
Ni 6.076946933107534 5.862771972621531 4.821758513829561 -0.23214541865313568 1.1124626018323356 -0.5091938684665489
Ni 5.315843833829309 3.6070987412230644 9.201347251711175 0.35860924140604045 -1.2011044686414605 -0.8311196384086266
P 0.3591140142542697 5.958295844973708 12.365556622639401 0.8644591331010207 1.0496695777655147 -0.17361579784835907
P 3.993985453751557 6.42110431549356 12.950628727090246 0.07862099223801297 0.08305871629439245 0.003053699224659257
P 2.55948778641272 8.720645475684636 1.665734300877463 -0.09526631410417787 2.315087877993697 -1.4326467064929584
P 6.52890683568885 8.207756882137009 5.6090985695227005 0.5011362882693949 -1.401286189903806 2.37612946658705
P 4.871262050500904 1.447586997420851 12.550706426336024 0.6174033729949561 -1.0812748633756217 1.3834581605834497
P 4.2152925961820396 6.6184006895898815 8.151414466533463 -1.1017791539765607 0.1878046877542314 -0.29201535553589064
P 5.086375216274622 1.4388425597877728 3.6929290401074044 -1.38003190851072 -0.6084924436585715 0.9738965964992581
P 0.1963654558399669 6.005379176354311 3.6764776559312566 0.5474228300407604 -0.4272003602118772 0.48338642048514163
Ni 0.7311360936854505 7.926586777076748 2.5209849344595736 0.6015494366818349 -0.5526298281629967 0.3554095035218202
Ni 1.678494803669316 6.824614568314102 5.112295186825337 1.4323569431666816 0.18388786919832845 -1.4466754166718827
Ni 5.970702015865636 6.07302104496185 9.216384951803308 0.5164654624272977 0.1174374508845784 0.4796750330718255
Ni 8.925921149121141 2.6584729986613227 10.277182700740116 -0.3014872995820679 1.1792984285099624 0.22995278187719106
Ni 2.478975198663995 5.544483551566695 6.963619245917838 0.1869305126793942 -0.4212274304578939 0.6893019589074709
Ni 0.4686071257252874 9.599024235927317 9.297228188600034 0.028970676200737202 -0.5273047191346466 -1.161881775695412
Ni 1.4986417608931446 1.2437960566241286 11.29381375259852 0.3345354882862884 2.0755171134107675 1.219070823311894
Ni 4.304813776450675 7.298754372600151 1.8877455527131912 -0.2651630112297369 -0.1425085349205933 -2.2395146714430725
Ni 5.886782740955692 8.648859107990585 8.244855158795342 -0.864539351519653 -0.6783400605793286 -0.837238606822171
Ni 7.213714716618468 1.0470006659338689 5.040771152260279 -1.2049169004090152 -0.041275718820335365 -1.9363237589063362
Ni 0.9211900694879595 7.657121466139929 7.220492566663024 -0.482255392204492 0.8361304613596569 0.12684280335887832
Ni 5.164947631923508 5.10290766867466 6.745246955367959 -1.457290730293884 -0.11292825016031519 1.996545679811871
Ni 0.7299036745065387 7.938428203038208 11.253951869296566 -0.14821381283548668 -1.8165910842296777 -0.0831960132032051
Ni 4.797644816177428 0.5617135254234851 10.515485932940974 -0.0033087526582588176 -0.7049862024119471 -0.6988862601617964
Ni 8.627936219195606 7.711218565205399 4.8068938807322485 -2.164229171336195 -0.8295373815231714 0.4794554608618517
Ni 7.3357633831243145 6.605220271615857 7.086963182248083 0.191207028567561 0.053646838791178576 -0.2595932304514432
Ni 2.0489219341113802 5.903096582414903 2.5383426431612337 1.123944120109374 -1.0214149537951958 0.5380830406970734
Ni 3.3790419859945504 4.8767273240215765 9.400015409461183 0.4847223656877459 -0.06385668944464487 -0.2523820574149847
Ni 1.0073045625953752 3.8255821590011974 3.6984617186681668 0.49166460133353396 0.35726763977648146 0.2747503978078559
Ni 1.6993448221506864 1.6878222038112658 2.733278019096624 0.21566721849245438 -0.973429941275485 -0.6651497871412997
Ni 1.2588893203303892 3.6825195158083615 8.16135944258325 -0.632971145526226 0.19539561272761186 -0.2675754773259714
Ni 5.44612684577297 3.083561973099325 5.253410370886973 0.26921121315718155 0.029023898036175822 -1.4355201713860115
Ni 3.986835054228676 7.37320961553013 6.0318447633781735 0.35635901191928304 -0.9098936112847362 -0.4489035562169237
Ni 8.350828634119047 7.648632074604484 0.4188986412969196 -0.706387710745164 -0.5772617677790639 -0.3796904875563719
P 0.4866024496710258 5.762174504684331 8.09947432875082 -1.1192600843701432 0.36421553184922434 -0.15528948873534545
P 8.571707663457074 2.237100410217378 7.911018034574189 -0.10081835427065862 -2.434188318402995 0.9500398444863186
P 1.8617272072391038 3.53154133479975 10.219017616417426 0.7597607270496658 -0.7047815426003089 1.506993753945966
P 3.867874267262011 6.336028224355072 3.735577302025982 0.5012015942896917 -0.3496013814804753 2.1263079708103896
P 6.94117063493167 4.154983302881404 10.471398482328619 0.7369848668057307 0.6405006211340518 1.1862527483406087
P 6.421659951634828 8.069822487264405 10.322577262602833 -0.9968470346478445 0.2837124920971501 0.8237552276237555
P 2.2964806070194976 8.942690430040408 5.880970422566454 0.796047477295842 -0.10764334761229204 -0.3376804616731733
P 7.278605730887268 4.39132905628294 1.60908856259352 -0.9300955401539078 0.5830590911871313 -0.4694620970945657
Ni 2.9145666070508924 1.5894017364931332 0.18650701328759162 0.3813354793589626 -0.13904808717581857 1.1821415543857126
Ni 1.3694882388104235 1.5270520744114469 7.049807520217783 0.5532877734619697 -0.2957120876611875 -0.4980103410459037
Ni 7.149934974632206 1.2308615759585342 9.411666461728341 -0.4374125248581886 0.29133452741878213 -0.21784057199468934
Ni 2.7272807922866047 1.6644399419319833 9.236422466287937 0.38501549931371115 0.9532390681499067 -0.03782452704694131
Ni 6.536148323103742 2.3588575954687876 2.608280837526375 2.1839999262052197 0.7719575262261738 0.2097570236556065
Ni 4.083324458236171 7.100173659226472 10.789330749725691 0.11855073855341519 0.2229357271294096 -0.8823956629747836
Ni 7.395261994186049 6.352524241598306 11.451619881992295 -1.2540059446261822 0.7115543425477681 1.0485696598331167
Ni 7.734746567711899 4.150292276442826 8.400795808160726 0.13367628134094398 0.8256650430519585 -0.7747975667781302
Ni 3.1134570192574107 8.488863225672862 12.53372217799161 1.3502544201379714 0.8744118734383585 -0.6447745659190574
Ni -0.09669253000667974 5.352297208212203 10.245747358328122 1.3203530045928487 -1.1719934102081169 -0.6395107464169567
Ni 8.68165074911463 2.80665478138519 5.7173246484158415 0.32923387356771683 0.1411319662880408 0.4115449130628074
Ni 4.084945822713971 2.7949773136293503 11.201078991499731 -1.5021701073050773 1.411289580973421 -0.31404353898052373
Ni 1.584291705751303 3.361780830458423 12.735243208519414 -0.7879554443163268 -0.07723388208249925 0.9245378435604722
Ni 3.1538271729967873 8.716455432652118 8.044028218004664 0.454100784147147 -0.5102328512540244 -0.0812597154124407
Ni 5.929931075401411 7.998081663516361 3.6011406822066094 -1.183966523409593 1.3150585889631288 -0.36799839593042427
Ni 3.159711450820713 8.490184000107025 3.68331744574238 -0.09257462620462766 0.5293523456922948 1.3951967891766164
Ni 3.6309455513516036 3.0725494469551675 7.037022423695087 0.41050335917217046 -0.3706826276308067 1.2010800431614281
Ni 5.172252880862808 5.021019653756565 11.68877631763273 0.6013481193043063 -0.7708565798525111 -1.3940284799001283
Ni 8.225883372647242 0.28185326425034535 2.6477027663099144 -1.4355700507873406 0.41426925397250586 0.0431420826051128
Ni 5.001954957958615 0.6917241845700322 1.5783719036494932 -0.47083995127869877 -0.63605441243724 -0.4237496826591154
Ni 6.136709699056102 6.02994558082974 0.322215220079441 0.03437204972196661 0.004093710453399402 0.8801996837647292
Ni 7.924018098522032 9.293697621905677 11.56459255093814 0.5512013232465862 -0.5326574988061278 -0.4894511386219829
Ni 0.09373581703199525 5.129150090363095 5.911046733629643 -0.2016397938651108 0.32900401694509795 0.16970669260194
Ni 7.552680089159855 6.63493314198992 2.664086745445975 -0.41183210528592296 -0.7850768372169512 -0.8562017781882352
P 8.617643287398337 2.163792874726741 3.582356537116054 0.29319009257028217 -0.2089764367358401 0.19832178523547134
P 2.0856303545919057 3.758668993529749 1.6509361619413188 0.18851534066801084 -0.5939453990823319 -0.3315190700574678
P 4.74525106069257 1.5246928980083563 8.391143224244296 0.1647105249389292 -0.0885837598776797 -0.16012059157540168
P 9.019586828476287 2.026960643347473 12.686396415549472 -1.5681520706228413 -1.2041990484063843 -0.5509714666239672
P 6.386928138410947 8.016873095638278 1.3507077372355483 0.7922548430226292 0.6733775743677307 0.20306187102361803
P 1.8596321857228457 3.543637806858841 5.826217490678505 -0.9727755955209376 -0.474157445687706 0.7000877366690652
P 7.029061341933305 4.298710887685923 6.229872573247346 0.6374420368133861 0.29471861339966665 -0.7377667392770778
P 2.4656763664303556 8.816050933777197 10.344974864369474 1.5399275285595093 -1.5518250513280436 -1.4918628118417987
