# total energy = -340894.4460998601 ev
CRYSTAL
PRIMVEC
9.03798143684090 0.00000000000000 0.00000000000000
0.00000000000000 9.03798143684090 0.00000000000000
0.00000000000000 0.00000000000000 13.22799940598385
PRIMCOORD
 96 1
Ni 6.402777295256698 1.9626971192852358 11.32607767573608 -0.03126410022060422 1.136073042162424 -0.3282206018118541
Ni 4.657226721566421 0.42667316891442186 5.9724681463500655 0.005406258617235851 -0.8508921930498636 0.7342949786783934
Ni 2.806645763860536 1.561736104185977 4.91553765809482 -0.5885676797101864 -0.16626167147613302 -0.35579774009917436
Ni 3.40641525991594 4.431078346311403 4.961875389688317 -0.4093252797036692 -0.3270936872962625 0.1783862226538089
Ni 5.1681709345906395 4.520310338513976 2.8610444712309473 -0.031367972788320174 -0.31715740201915704 -0.2790048022088356
Ni 7.305210718677622 6.337812283613621 2.4076152616281328 -1.6276332567076097 -0.4168197883085015 -0.1723374453565677
Ni 5.103874733584957 4.714581752713746 11.377005798177313 -0.585175880419818 -0.8757511610750724 0.36476651925668796
Ni 5.702731393500134 7.757028456163581 12.147575974050753 -0.33344739742843216 0.5097127170844964 0.5759445916295372
Ni 1.9144342976138349 6.402497117827519 0.38696118162191817 0.04463872175529732 0.5322263248059802 -0.04484029624314213
Ni 2.867634063605595 1.686261414483461 0.24737588260700774 -0.38832065242754416 0.15830462141258542 1.0241912309887522
Ni 0.7517684627792411 0.10009745366574958 4.9236998592655015 -0.6382084826657654 -0.6751086981262244 -0.3500880913089067
Ni 8.587673191843693 2.4133308811833754 1.5725048592461779 -0.04553192299352803 -0.3850247552850917 -0.38423105573920274
Ni 6.813390874690237 0.5332960452855556 4.714803183262613 -1.4313930365915155 1.0410126734214653 0.7397657719849775
Ni 0.5088690924519796 7.557948835759844 2.2531380803533034 0.6454844475018883 -0.6620001857687243 0.5893683212346108
Ni 7.425551443500602 3.8972138119840616 3.9381206204422883 1.3246210358405832 -0.0558585017305167 0.0005643571439022539
Ni 7.73855482180097 3.796856064448624 12.563371932125934 -0.6797297418380035 -0.7107997237699307 0.4590108198542546
Ni 7.90989687671603 8.787810256093039 6.952993345870161 0.044748764970600347 0.5986008955764723 0.2810318599411934
Ni 6.836799246999025 0.9665940547028122 0.19336851983928768 -0.659999867509244 -0.8143419047296555 1.1663920048609395
Ni 1.6904459999579666 6.44268902194226 9.369219996353822 0.635730196328602 -0.1526700488346274 -0.948536777578231
Ni -0.15205229081519714 4.799882222926233 1.4082259869408926 1.6091321125796285 0.9366644516206772 -0.10751762066770514
Ni 6.419361991467751 1.95635245621158 7.055180380878689 -0.34938695147682414 -0.3349928875386811 -0.13065883467085884
Ni 3.3347711798805095 4.376714887069178 0.40071970099090215 0.2872045644108086 0.07719094465970577 0.14112425297855696
Ni 6.352978016715608 5.830935162303285 4.794541679606827 -1.236496217877193 -0.23058398770328678 0.10804289704355585
Ni 5.381512489937723 3.1861958005816025 9.042779850828945 -0.015364398271212248 -1.4825636459280596 0.0681648299016955
P 0.28953354771679257 5.41845072068136 12.376778283283818 -0.41220260125146424 0.8908512499413045 0.6938330140086051
P 4.052865930865124 6.1948856428062165 12.549561896261908 -0.9091253656601439 0.5820396487836814 0.20688690119666306
P 2.3657910980388865 8.41110718357169 1.414152191467098 0.24810631285776624 0.48831239703184937 -0.2236155268052536
P 6.343659857700024 7.681570347898688 5.894555322286304 0.33549039600038993 0.7917241673301397 0.07403568686017573
P 4.715015575829893 1.1345107145966256 12.539019090741368 0.4396851229424492 -0.5406392314600238 -0.011075283977555118
P 3.9259003655393103 6.081513201786356 8.099305856822314 0.0699445475099376 0.7516537816718151 0.061569950292997194
P 4.6983314618213905 0.9590292641149915 3.835591045931637 0.11346663916228847 -0.22672887562325472 -1.3061206630435505
P -0.20276079030387947 5.618949304194162 3.605754270391207 2.5906821118590866 0.4129906443703984 1.1956473021816312
Ni 1.3569444794196321 1.2210674642496235 2.725986297192667 0.6351696958394416 -0.8718096599288211 -0.9142670577620835
Ni 1.6578911902837365 6.373168867579635 4.838696738647207 -0.14352566333119798 0.7855285800423891 -0.36694912873030355
Ni 5.9691078247962395 5.595748805461861 9.252337203285801 0.5655056556844003 0.3332823326054776 -0.5861307881339196
Ni 8.720658052906053 2.093042889724365 10.395249625565148 0.3172275931354601 0.2745501088715917 0.0841879448028292
Ni 2.1048013037682773 5.328567993804564 6.977676977380791 0.42753768894663785 -0.9139119884155098 0.5485242906350554
Ni 0.6680270443904082 -0.17946448896676268 8.958239474867874 -0.7750605906315298 0.2671959824993656 1.0673667379349618
Ni 1.7234798226562758 1.027708886190081 11.402377220086667 -0.5510218602459285 1.4815552592682033 -0.2408079794241401
Ni 4.130249129207922 6.5826963946972565 1.7331061768439553 -0.03098462130697244 0.987428569547422 -0.8401573231308627
Ni 5.6358593677423245 7.732291500561591 8.072664598500069 0.17742951516749442 0.6901401385380501 0.044801729695722846
Ni 5.13539017537675 2.7542254706593887 4.905246108462381 0.7495197660479479 0.6754043749897722 0.6606763247509783
Ni 0.768988529095818 7.406264390795213 7.096345675610285 0.5592604461056369 -0.5143299041415336 -0.9139855219659226
Ni 5.120658265390911 4.578677623598979 7.034028792572024 -0.22585187233494006 0.41361439399732636 -0.40176495085790814
Ni 8.325716333543339 6.9608726582171885 9.120970140927406 -1.0921439448796417 0.9898132677295147 1.495502979697547
Ni 4.742482001870977 0.47147715503270604 10.327337328126745 -0.6576514218817253 -2.1552102556670363 -0.5229770382935702
Ni 8.010091940582914 7.642544343408592 4.441247883192425 1.2124679732833956 -1.4087979248998188 -0.05303080247373448
Ni 7.371938136730049 6.048858974314674 7.075921644821328 -0.5090324031880201 -0.4018320566504176 -0.28571975233516594
Ni 2.2115489042853036 5.334180580369722 2.645189453204685 -0.39220481797329876 -0.26032188108735166 0.23819599572258973
Ni 2.3338327951493594 5.166471794052396 11.399056665651822 0.32096726268355047 0.8220755259284874 0.504345539235312
Ni 1.1021999304252288 3.299559203619877 3.8893100970867507 -0.4671424478224535 0.5448910647578422 0.10817145220162017
Ni 3.5481127352275927 2.6777822224015777 2.867644909183499 -0.2639090842179777 0.34834616891713555 -0.9246964806255236
Ni 1.1063302880102157 3.3282276812119527 8.460218671714056 0.4101099803884937 -0.11567084590245885 -0.9471422112235494
Ni 3.638754652557646 2.69343600650923 6.978695557905579 -0.13492223793290312 0.31673651243165446 0.6253745641258908
Ni 4.258859607182461 7.081141079187477 6.073543509623463 -0.7994935268629134 -1.7074600963282658 -1.0694110220585
Ni 0.7788661391715997 7.28978288410963 11.455289179486115 0.025015033987098853 0.5544450269948644 -0.42321515031188406
P 0.11393279587821792 5.3604811067861595 8.091368701393135 1.3434682504540734 -0.481661467374235 -0.5730343599612777
P 8.559293929662383 1.5843943240230933 8.226598597081555 0.7003368765653938 -0.2598883930943589 -1.3110080730428388
P 1.991754230085527 3.246777391155273 10.506259538198321 -0.4813801886883903 -1.553423506163415 -0.3677752241760247
P 4.081688054144169 6.109205577367099 3.8738063434734324 -0.4445787035893246 0.8965873810941333 0.07621341123778487
P 6.91680346000188 3.965522876814109 10.43459015181445 0.003256559264084714 -0.26476371890878914 0.3457874070510238
P 6.534424535044268 7.850960198791085 10.104578195966626 -0.6251778747340523 -0.7953352817201658 0.18888249419944245
P 2.479949843456765 8.424031497240248 5.908696148276393 -0.05435980569780316 -0.09237613704057639 -0.03055087620366351
P 6.89679336876958 4.072496426870795 1.5478872050011288 -0.8574248519620588 -0.9339161994515787 -0.0654037222167906
Ni 5.177706005164297 2.9915357531736175 0.4458580924278832 0.8847073418270957 -0.20558283767325883 0.28667388871831917
Ni 1.4621827370117289 1.0987293454960492 7.058196355334071 -0.07073850416614269 0.259752638847443 -0.4059373370680428
Ni 6.8706555260216975 0.8306564850561747 9.237442609631406 -0.6114736377740825 -0.6235899614216422 -0.31441480627701335
Ni 2.5265316005530947 1.3737460871887586 9.115334959408285 1.4703632472071257 0.9349125019265769 0.5100006806385604
Ni 6.398213114555563 2.249833794285314 2.807338977048213 -0.9239475182746409 -1.538368925823138 -1.1718234602891562
Ni 4.110781316870805 6.778883860993344 10.244847670187628 -0.3819060071504519 1.3271998523113528 0.3632652521208131
Ni 8.10879573748804 7.161461621545856 0.14396329729536492 0.5381637733363377 0.15219953695611205 0.19116049160034174
Ni 7.7066597847825475 3.6277915808933368 8.420018633415886 -0.05949918380689753 0.3603563060041342 -1.121280714344598
Ni 3.1525473951354175 8.380875135165168 12.38356399985889 0.8145175110755715 -0.6403309283254068 0.3357156246373186
Ni 9.067355026560538 4.4848181848241655 10.342933269152244 0.6202716956816866 1.082664801744613 0.10868567283387735
Ni 8.54110047272895 2.1056779879821588 5.913550448186451 0.2744544638339918 0.8112270132497577 -0.15674833266905908
Ni 3.975509846467086 2.5426011318137225 10.971858390007231 -0.7622870930159453 0.8329921728409913 0.9027269183329679
Ni 1.1353602848657478 3.3982720385065894 12.627316555647907 -0.084495448740919 -0.9255976522835543 -0.0023813557479829954
Ni 3.200412545617017 8.27203976090168 8.032253071432779 -0.05284722570801866 -0.09023569365880588 0.1701944308716359
Ni 5.509643954888182 7.885873921659367 3.387730136784207 -0.20841670757762815 -0.036882989069278414 0.5381434616213635
Ni 2.863377174278398 8.281086780469673 3.5232248453331105 0.8392754347465416 -0.20726639602326885 0.57234350454184
Ni 3.4515147880320995 4.465476904229258 9.375688479775212 -0.42466345272263634 -0.44110899987316937 -0.6253362546887876
Ni 7.332957322147885 5.983875886708425 11.412007189466983 0.24380742837209624 0.4726644060819472 -0.9360337600152138
Ni 0.753163927136182 8.979207592148333 0.03681712179037828 -0.037800358677225226 -0.712534189962534 1.4732876199427725
Ni 4.5724414163043585 0.4080269091035103 1.6230759814147468 -0.045792375743766295 -0.27691243845618113 -0.3825567533605734
Ni 5.9909978161985125 5.635009797473202 0.3006846093980987 0.055513202575956 0.08677061792834088 0.31253481564548113
Ni 7.9599944086494725 8.915281948387692 11.40768161147973 0.4212364293189584 -0.33583518093431836 -0.2896810509757592
Ni -0.02118593263669131 4.685316768336967 5.709760231779881 0.028977875289588804 0.03205111489827383 0.5176872506495407
Ni 7.677069433068659 8.996903960094512 2.316712146630233 0.23259253349288328 0.5393603647476002 -0.030401237999676672
P 8.456125369853574 1.4456251547454355 3.7750067439634907 0.7086240562748506 1.3310400519930494 -1.1437637259384623
P 1.7546066312398536 3.432453684866372 1.560229472655523 0.08894320009962747 -1.1520537338613968 1.0440326911947115
P 4.65165028692761 1.1483930543133434 8.120218842415095 0.20539129048774304 -0.2730233878144201 1.190016329148099
P 8.735453228762998 1.6234564804395348 12.586124146971551 -0.2638653754642359 0.7491955499393097 -0.19833875451633584
P 6.296264682260918 7.804378441694755 1.1389836116837373 -1.2816211352402895 0.5826297169591965 0.08913603283672392
P 1.6997551209919635 3.126590312019263 6.135768205249543 -0.28970470512484303 0.6075305939659343 -0.8000823094868479
P 6.86768203007977 3.8316794075010416 6.086057498927999 0.6056948263087762 0.6613728365973707 -0.6210566534768273
P 2.4104296890941392 8.437570393656683 10.191644687781098 0.5033168408604815 -0.6975510862901405 0.4232524313077227
