# total energy = -340892.13680985 ev
CRYSTAL
PRIMVEC
9.06993637315901 0.00000000000000 0.00000000000000
0.00000000000000 9.06993637315901 0.00000000000000
0.00000000000000 0.00000000000000 13.27476868533592
PRIMCOORD
 96 1
Ni 6.715471670125522 1.799312139034915 11.400305192241303 0.6988312385541449 0.5092470903019874 0.343168481370938
Ni 4.607473312885758 0.1431508074844898 6.098388564689578 -0.718528459872756 1.0074080979931423 -0.37295342594285447
Ni 2.491774579573364 1.4725858171687438 4.982963241250036 1.3528021262604895 -0.08074395211828675 -1.240335389117625
Ni 3.301774326973088 4.152788327141289 4.838719506419547 2.098853731254179 0.6699916886146332 0.7122845358455733
Ni 5.000029233733265 4.518497236004124 2.6133371242450436 0.040381232030524 -0.2367042416684117 0.12833070075831446
Ni 7.171145278946454 6.072739691314086 2.4100744057370345 -0.22111410053963854 -1.1508316885288372 0.8314955336908066
Ni 5.123099201848139 4.4951874992471605 11.540035726678692 -0.13698451977857054 0.1326354987812554 0.022024326789891104
Ni 5.813511836741812 7.672504157823735 12.31995412274451 -0.12770746535201877 0.8314381980903099 0.7039312787848716
Ni 2.1097307151076934 6.4667105222526775 0.4901439024181443 0.034614504750075874 0.15364398271212248 -1.1195549899027428
Ni 2.9436932346910343 1.8226581555378025 0.43745845538552036 -0.3298342261558771 -1.5482458186172174 -1.378629885956871
Ni 0.1847119774227891 9.249521223638265 5.045460545568139 1.0597981815590845 -0.7754722242476516 -1.0162354664767854
Ni 8.95500224621722 2.308706981634636 1.4719862943673292 -0.8966925392134298 1.1321749926595985 0.8029064091992043
Ni 6.6610611211741535 0.8897009072355734 4.7117068369162505 1.5801208129489432 -1.2028111669199222 0.6834804671296875
Ni 0.9721430018760738 7.3337964498657575 2.5222994508012078 -0.14766205409707472 0.6065965121874392 -0.3676376701568959
Ni 7.599173721372358 3.9468191395872574 4.068398010144604 -0.25353339741060854 -0.8513760746648176 -2.46181893563607
Ni 7.7268330773467735 4.035668237358155 12.696759191898575 0.626554957587237 -1.4390616088803667 0.642048682347462
Ni 7.772291598991091 9.190748035239386 6.909928387303828 0.3819468876907164 -0.8228694825846926 -0.07021939843787907
Ni 6.912452550626577 0.7185602757697659 0.357658433242025 1.035527481937178 -0.49847031140145764 -0.007666258296006152
Ni 1.633840217869925 6.790797492602788 9.225513101772242 0.7541654923500754 -0.4016999019479275 0.1775351875074233
Ni 0.31490456665643374 4.944158425008406 1.4688662362177594 -0.9733690061305623 -0.4122969607374835 -0.5431041480607485
Ni 6.311614608422305 2.139752204860824 6.913645247273869 -0.20222523405493562 -0.5869378574162473 0.8450635021832285
Ni 3.379830200331228 4.269717948258316 0.3546100275906573 0.5973374554830164 -0.2960651001252321 -0.15316344353127817
Ni 5.784723858350139 5.425245995849965 4.834816712751641 0.010172826767943769 0.8610927877319494 -0.03308572681037528
Ni 5.384422211747594 2.853628765431642 9.371695082028785 -0.5156105706261701 -0.2979456049773965 -0.1490306523098272
P 0.4345778435590568 5.51763236884857 12.276838365693314 -0.28265448314628094 0.6456885930928945 1.565494578395336
P 4.1472012462688035 6.138904877945231 12.701178971945918 -1.0225578091503873 0.6995524329908855 -0.6943482630821268
P 2.650317069266634 8.451901939535526 1.4849553965419522 -0.8951555337436132 0.561438170483246 0.6037515865394764
P 6.293048448445067 7.84313687284659 6.1278186945841275 0.09344802994851648 -0.9824984792356564 -1.226166553816411
P 4.88962996688278 1.0704157636510498 12.53237747709864 -0.1495628706642134 -0.0666260246596659 0.26831646925705405
P 3.680734413035114 6.009857821689176 8.300991801391277 0.44243774598692187 1.9416428571264044 0.14816624742700288
P 4.74189884147523 1.006590620632083 3.8821133057359556 -1.509847421344677 -1.7872098028540835 -0.7936332114273945
P -0.06834287838030662 5.781767059057232 3.5166719599993197 0.7378726687273227 -0.6453805749341724 1.0126806592459914
Ni 1.4842588254201878 1.0514051767862276 2.7396069659505224 0.29804279267689315 -0.07822324257896204 0.10761043749182757
Ni 1.880352021495405 6.3257364995237015 4.6902410182459375 0.026178458167580722 0.9156264000034553 -0.6077326826744115
Ni 5.6908137360226725 5.443404008685543 9.348902331651257 0.3859732352412901 0.4356988846011916 -0.32041139018008047
Ni 8.880728536371786 2.408394653500696 10.08139040188172 -1.1862771738206408 -0.8361358606762955 1.4498255322650904
Ni 2.054830389586334 5.431440762466698 6.785942355604344 0.3223618290382319 -0.8553124336047464 1.833300426564559
Ni 0.5454977247635693 0.1829877824976924 9.250004651252718 0.741246213185246 0.02039707559911326 -0.8218369275551201
Ni 1.5887535636213412 1.119683658617517 11.66845514333024 -0.573213308741303 0.27275290776185285 -0.9630899928020574
Ni 4.377414374037372 6.996050155174795 1.73588879420207 -0.8706228387095715 -2.1590707670637075 0.11438272321865463
Ni 5.447657808895277 7.770840409154081 8.210258877813212 0.2061644212083417 0.36026117518716666 0.492110687732017
Ni 5.283002182013606 2.7890326778117647 4.759933503174663 -0.4816861499645833 1.9314214365087123 0.41566407743750344
Ni 0.3262392662771248 7.307956200830509 6.6350476363521125 0.8372794873624354 0.9557119551704314 -1.1491812974096078
Ni 4.875635054892122 4.493065134110535 7.172052272594584 0.6740635446911617 0.4698598467536167 -0.48658615836936203
Ni 8.167323612497995 7.439234461460967 8.662702682253151 -0.8720554573910401 0.5605331421704733 1.1910033756517167
Ni 4.779920015204874 0.4304374175553396 10.515037669957795 -0.5459441886127049 0.06756242043100621 -0.784510680300836
Ni 7.687660021684002 7.403507981661093 4.428396486998806 1.449877211438632 -0.7865930167511614 1.675841183871404
Ni 7.061489746887436 5.917779826530933 6.993771787130692 0.29820580061731866 0.9160604022170804 0.4378221015917815
Ni 2.4824325449976166 5.182153558277937 2.455009592046381 1.122070557235745 0.6147055144478188 0.9301222796267852
Ni 2.4701699908748878 5.140313941289661 11.34473731939492 -0.16300922597710635 0.6032373659072192 0.28385338855038855
Ni 1.3529714948532492 3.691545777320834 3.9264244804153874 -2.636261857371415 -1.2535043223994153 -0.8571926813465947
Ni 3.7929023174994545 2.3027117536204913 2.4679387865004854 0.7546668574665261 0.6208280824057889 1.4797045792127097
Ni 1.135982334474428 3.3326846705013873 8.222511455005812 -0.6999198436326333 1.0430952669821068 -0.4966782524980413
Ni 3.7074544459090486 2.5756533521525036 7.049738737182253 -0.33190139309755096 -1.0965729271852727 0.004833159722585224
Ni 4.235433588358971 6.803259585328106 6.301054481377117 -0.596162975558941 -0.2978599872421257 -0.8074721741930158
Ni 1.0784154476275638 7.489708657979447 11.645649695041639 0.3149367402187544 -0.20850463930574414 0.04021256766314364
P 0.1414855671465216 5.721769429233379 8.005428874281233 -0.29577739368148415 -2.2199508903785317 0.10122895944551598
P 8.452582184771625 1.7251835481731814 8.081944672424846 0.762144396790494 0.4943076953833358 -0.5263572676197129
P 1.721809531802135 3.2692132550051913 10.31701737473598 0.6920257855965372 0.44127946401276263 1.834741015665827
P 3.976359922706879 6.124093671671255 3.926570506392737 -0.38112619156163396 0.2687566421182662 -0.7258159946731049
P 6.94789786239553 3.835313340486053 10.515408630359879 0.44612727902336713 0.40945152086888836 -0.16246878009260407
P 6.560738553754402 7.527657272217241 10.131303169332009 -0.4096248132219591 0.33948511898207984 1.1843077087990956
P 2.255139936776029 8.412683534190348 5.835893718996736 -0.518971516678603 0.029518835394723355 0.05459557585769307
P 7.035096231726828 3.8462879636284355 1.6056499482923705 -0.04400854437046615 0.6766585591118476 -0.07174689082599901
Ni 5.551699050272364 2.887006131682857 0.16087527735626264 -0.47396744116408696 0.25674727636221595 0.5884046717697609
Ni 1.3950922798724452 1.2156163767803154 7.020587054337679 -0.6055148490874862 -1.00550753853632 0.9897731585201986
Ni 6.914964923031899 0.7191416586982178 9.262138412277412 -0.3775700987792594 -0.6093902728824925 -0.5080952360857314
Ni 2.8018031483774464 1.6974748922227845 9.328804259402325 0.36404455348899883 -1.171421596865047 -0.7089816967245854
Ni 6.276631863413899 1.9857537533446894 2.4333714445829235 0.8628349672340366 0.0007407348207664662 0.5428521799509426
Ni 4.240530892661466 7.202636098409556 10.525550633333278 -1.091300880153056 -1.3435412697838538 -0.4373359059839823
Ni 8.151523783147555 7.256048954347982 0.4044701894093537 0.693237032295819 -0.3604267542307535 -0.7232032396406062
Ni 7.624397214726876 3.7623094217480015 8.264313885254515 0.1792639972730719 0.8067622926101848 -0.00344682089801987
Ni 3.105074614502954 8.573266759591913 12.670010135227901 1.1806197184245475 -0.3793690996612112 -1.1438079489128365
Ni -0.1125978194535545 4.828797902902645 10.255714581052466 0.9400189699152068 0.14308394780808908 -1.0033809791116204
Ni 8.611587241225442 2.3559341408928085 5.759630065087303 0.09602607508833785 1.3801746047361714 1.0438503999805764
Ni 3.5733010154140166 2.72480845758762 11.481586335012196 0.14952224723426508 -0.29898381643392374 -0.10328069976822211
Ni 1.0914942960336105 3.371739816989901 12.636345251990228 0.19750134621670504 0.20193058563265226 0.03572342154353847
Ni 2.978748539191291 8.56063233807345 7.979994958400348 0.4593098391519122 -0.1266132038465755 0.06840959892264993
Ni 5.618762160615159 7.863961447007674 3.689961259417549 -1.2240507930249884 0.3967677547536328 -0.10009690272360182
Ni 3.104575767996482 8.345783682704218 3.731364612461074 0.58396437661022 0.09416973860588944 0.09560981348652567
Ni 3.335831938460401 4.1944828251458635 9.21896823560733 0.5740178069204694 -0.4374284656977886 -0.053754825123952577
Ni 7.317996620515317 5.942658662299162 11.562150952801066 -0.2796961718489054 1.4073038568527956 -0.8862785429689576
Ni 0.6844972223205643 0.02421854439238958 0.5312470405641376 0.4677176035996332 -0.78647423178511 0.30390902164968303
Ni 4.760111273929697 0.11783661476515819 1.2222700821830033 -0.6841438117452993 1.833629013548571 0.7391931873109593
Ni 5.905163544885434 5.401700440744487 0.45962991511407864 0.3056956812364606 0.6232783437184943 -0.36367097219966404
Ni 8.338409824344915 8.813311698506219 11.105140435342788 -1.3757641343733016 0.2929540653000761 1.131783927868767
Ni 9.060821195144644 4.96526416720041 5.547379946519966 -0.05704866538387594 0.18099177859745605 1.4837126719308382
Ni 8.215240086928747 -0.13206281013609036 2.7285752022083067 -0.8375255419349705 0.16292797911720971 -1.1263064496939634
P 8.437263062054694 1.7945413524457468 3.6991073833653005 0.3771697780170472 -0.2255924480259663 -0.8821596357045776
P 1.9641038149638064 3.1799650800291173 1.7509158649643015 -1.167502464316299 0.5841363834117101 0.14640092799646398
P 4.874274564419926 1.0077334326287277 8.20838684292347 -0.5415573723989189 -0.160861069285852 0.3932319736862324
P 8.788822870006689 1.5914473347562899 12.731206810654584 -1.4241389261322634 -0.15471201896532066 -1.8349919553343685
P 6.394232659830542 7.812943054300315 1.453786559823936 0.6832894341648039 0.7404129186506733 -0.04948705098653412
P 1.8121551690924476 3.2184397505828275 6.154833500393704 -0.5598497429502036 0.5406047786776624 -1.0411792809063165
P 6.834369467458994 4.0177732526805325 6.0786895696458245 0.3145431043247615 -0.4070706793415377 0.22954989001181755
P 2.4507784666778503 8.719619254654305 10.237142979113338 0.38422694197414475 -0.504009496052132 0.46387843235920106
