# total energy = -340891.1418695454 ev
CRYSTAL
PRIMVEC
9.05226410128968 0.00000000000000 0.00000000000000
0.00000000000000 9.05226410128968 0.00000000000000
0.00000000000000 0.00000000000000 13.24890352911619
PRIMCOORD
 96 1
Ni 6.28142941044581 2.0739551709347634 11.360484602752887 0.0668643659227171 -0.7438168021258996 1.3075741076606253
Ni 4.687461490049632 0.29564151347012474 6.008112590647952 -0.3261457215606964 0.1398592702232043 0.016076336736572314
Ni 2.6211011686773658 1.3969091836548062 4.907407066062592 -0.14811585380504166 0.33260561825342716 -0.2514595456007153
Ni 3.6998775835307223 4.296720511068452 5.032013291566397 -0.9407687035970378 0.33845976304135905 -0.7935013138352205
Ni 4.943242263873151 4.430331928878303 2.657279447296529 1.6200261337843131 1.4102410851042486 -0.34809600057954243
Ni 7.357689295885132 6.055810780534379 2.5747517661387485 -0.2591733693052053 -1.120970639303347 -0.32296423850892114
Ni 4.921815554797548 4.28637377322586 11.44733111910288 0.9694005084011177 1.0153841742200835 0.12487513810954623
Ni 5.689013040042837 8.08268512599292 12.522373475023546 -0.6405276177172452 -0.3250180357141564 0.005368720511081076
Ni 1.804215805901028 6.6154760594985955 0.3720380961670242 0.907787877795643 0.7995722026196488 -0.9189804040773528
Ni 2.52794431903772 1.5611715676370252 0.5678268002580756 1.2424220964433248 -0.20666064411846988 -1.2484261365455598
Ni 0.5734382987608079 -0.32475178429620327 4.424325751661716 0.6009907359648875 0.20605746331683222 0.6928356830923422
Ni 8.702747110893947 2.3855522050709888 1.5233720285212666 -0.14821715526959636 -0.09222392773342826 -0.21800049461132132
Ni 6.814453876224769 0.6336883580195345 4.615706003146168 -0.17645660973126384 0.1342450093602204 0.858740999670321
Ni 0.6722437611859109 7.400262093849883 2.3799669581340863 0.31669768877391913 -0.3861750668394511 0.127643959103935
Ni 7.687635269310013 3.647700333377878 4.213150914315149 -0.8128812610237292 0.2733676585277163 -2.1756983483180594
Ni 7.352321303286132 3.723983762773787 12.744278866209665 1.202563055464858 0.043919841311401774 -0.2040987969285646
Ni 8.031250161494576 9.10748289014166 6.430501190076625 0.0038296581587353397 -0.07005767604903418 1.1767455801811217
Ni 7.204950444075808 0.5937171807511621 0.4928722432290021 -1.0613434145590173 0.7105094462230215 -0.9103816066647482
Ni 1.9248734338134603 6.6562293523834155 9.07487663492817 0.3118295620483404 0.6447010323686445 0.6943904291739718
Ni 0.23800665330389584 4.91226541619393 1.4314906428903882 -0.5140319132851405 -0.44703719243214624 -0.5431126327011807
Ni 6.556455297701831 1.9093397486534534 7.059228002154318 -1.117497850263398 -0.1220078438640802 -0.06181754752742903
Ni 3.1001198269594714 4.449794296648708 0.5076944204323794 1.0554928693155112 -0.8257745720466294 -1.11800178648301
Ni 6.131904112384623 5.47444722457218 4.599436368916518 -1.4037529062767438 0.19876504342047704 1.0782795281927235
Ni 5.453418815116064 2.8054776834436965 9.028531758521595 -0.5845559874476319 0.7532892603927092 0.5444035835984624
P 0.37365211485235594 5.562371865574015 12.322963865300789 -1.6132893292811117 -0.4128201802308052 0.5277320364800524
P 3.9213231197016154 6.149755177148919 12.475896435561408 0.6289617672565168 -0.1375175094639051 2.153031759958479
P 2.5469088122837658 8.521294477425217 1.586052620685274 -0.9237001781505254 -0.11943828336469109 -0.6568410101652882
P 6.252190597469805 7.7891020973744185 6.1254851519260205 0.6970738895434059 0.3312658163960811 -1.0449346341836907
P 4.665799422107967 1.036094989719654 12.7665773083161 0.6321769317597047 0.29504154395672416 -0.09814749230671484
P 3.937363731650061 6.292165395643809 8.1631796686385 0.24936538207584796 0.055928692846819804 0.15465185515134658
P 4.701012729376282 1.1728022818446113 3.8936802208827848 -0.0636312036974001 -1.0526728833682129 -0.24037192032798602
P 9.228964274085305 5.550151309067016 3.6377247383625355 0.8664576515882885 0.40745788747762735 0.28623371585710705
Ni 1.3633433884489166 1.1038783431451393 2.6053303141984823 0.7758782014368186 -0.06979105265120883 0.4648701068485091
Ni 2.141892412849596 6.192925424542902 4.7375956441997875 -1.2868695281234224 0.9348759922616867 -0.1537231726894901
Ni 5.896807761982209 5.444936843673799 9.091967309509812 0.8119230108755179 0.7640747810439873 0.9783841999569666
Ni 8.55836349882978 2.5334933569183056 10.129700759027811 1.9259154190888188 -1.8001946451495257 0.816674152407258
Ni 2.2702082561730808 5.3768276087414595 6.986796311124134 0.3179084212525686 0.1859169838132153 0.6422399724226616
Ni 0.2768770752602305 0.07957302216231116 9.401912305451571 1.4228939979815687 0.8208599083538316 0.10724045574691854
Ni 1.604396128615483 1.3018694630866745 11.352163761611234 -1.1078454147752985 -0.022530834112664423 -0.0027891327093629388
Ni 4.186988965899684 6.846245427671124 1.601209731659584 0.4909693750387222 0.9841678965182791 -0.8035201315238033
Ni 5.574610526609171 7.958361331128388 8.303379324245235 -0.0015974263941069264 -0.45107690971915865 -0.3736795054756016
Ni 5.51203222502926 2.87890059739056 4.985787905045664 -0.19870513671681908 -0.3668640252156649 -0.22486971092732885
Ni 0.5930283034547306 7.480066853972624 6.485589648357358 0.08535496852773687 -1.4926688526828615 1.2474802276925225
Ni 4.99243226687984 4.574733645470629 7.1085266323299585 0.2150982333628618 0.033065929316033374 -0.7411634236634526
Ni 8.198391165453998 7.167980997576118 9.147466740579745 -1.0641240626279482 0.35646442714889576 0.5802445045564717
Ni 4.6413221000376526 0.5493239724800719 10.423190549326296 -0.7364907007781316 -1.3891030175740529 -0.19962584875887554
Ni 7.876402132154785 7.060340525409659 4.75601157024263 0.6399349784385688 0.9100383643927166 -0.2727541933134335
Ni 7.317370511676116 6.078405231676207 6.96105348253554 -0.32252149454454776 0.10465752551109073 0.6782762972209287
Ni 2.3606946879093456 5.5207676598657445 2.4083059760606123 -0.3576448206102421 -1.0742683501508015 1.7987054621985088
Ni 2.2880864777296157 5.344565339562984 11.276618996964192 0.11157610700779494 -0.3895714941155097 0.33475377494468156
Ni 0.9249603436186014 3.3974957542271818 4.172384043034209 2.744730271988163 -0.17399966355033905 -1.7843304244237592
Ni 3.6931698558479917 2.645143982071876 2.6490120145129428 -1.3681374710659793 -0.8282564579282187 -0.009745509422538054
Ni 1.0787221012688808 3.4125858784473055 8.198382113189918 -0.6651803832689189 0.6854851562645421 0.3146755161375677
Ni 3.6572504719814956 2.6187294754886 6.800927078011133 1.5200837543607046 -1.1347067579425167 1.2354379518160077
Ni 4.228566014815717 6.807031019679777 5.9781043352252095 0.20839948118644755 0.5381496322689505 -0.03999710921822789
Ni 0.8944342986905269 7.413396929028886 11.206505590764705 -0.7210070033202356 -0.14558126030864607 0.712979762140385
P 0.23036020583614644 5.805805351193426 8.025138978014668 0.444871295129079 -1.5017445897318846 -1.0923720017300478
P 8.478812202101258 1.6317701751911597 8.047966977569741 -0.7882081837570812 -0.24201202703457034 1.0009456301972504
P 1.911666180521823 3.4612599024014763 10.334343482614784 -0.3752450501905086 -1.5011691768443887 -0.3425403608686359
P 4.0866898799015035 6.166257454565407 3.7309177970584986 0.42896310853925473 -0.8595938345889196 0.12641959977853065
P 7.011820389944835 3.8623385669611694 10.404019664459243 -2.3052274402598494 2.2664881147081224 0.6603125136536564
P 6.361695836036592 7.545569036850135 10.31566232523442 -0.4680598174304003 1.384104535918197 -0.6348513932680745
P 2.35210408929813 8.423403293672118 5.833279877900383 0.6938931778225792 0.280515068205775 -0.40409411321171695
P 7.154094824478536 3.9117186675135227 1.7050283379317803 -1.544029980763657 0.5973469685647131 0.19240927640577832
Ni 5.356432857770891 2.9850927073043376 0.6383403165298653 -0.6892330533427485 -0.5060684354636897 -0.43500828629207017
Ni 1.2100161394744418 0.9239645945698829 7.200010623567757 0.7857255265445436 -0.38005635553622286 -1.651695439863136
Ni 6.8947836676641066 0.7419317109736722 9.481445497651935 -0.03714986957741989 -0.6139712073849555 -1.5218123070160372
Ni 2.541477453836211 1.7063065176197716 8.872552196171897 1.5085405296077954 -0.2858776180692689 2.2509694502472333
Ni 6.5058440892346985 1.8764800300457463 2.703107439424182 -0.4521547161643697 1.3947437607995978 -0.9183952209978441
Ni 4.317957122598392 6.669690069069272 10.489275698010513 -0.2716002822146483 1.2863673916760234 -0.8594933044553134
Ni 8.19739541640528 7.0591003652308 0.23150712769498846 0.6058992290100984 0.004037146183851112 -0.3052351966602743
Ni 7.651371899408505 3.9002856579814194 8.307406676534097 0.4931175317299766 0.026219852928477425 -1.0999716684541765
Ni 3.099576691114716 8.361703061707896 12.273505915277354 0.5580921368291485 -0.017235647151996124 1.2564060694272428
Ni -0.017423797899756153 4.9265227321187615 10.11629345070002 0.7285683606072613 0.5022475190557028 0.6988631202333447
Ni 8.681284192762027 2.5973842367897095 6.058444989381443 0.5639537378162481 -1.1650277775235613 0.6147193984048898
Ni 3.62791208410062 2.4109528580773874 11.507957752547306 -0.291388263474853 0.8927052724309077 -0.0698481311413894
Ni 0.7836164818322482 3.3096435313379815 12.655551289383999 0.9066645628244773 0.6492670544727721 -0.48372709165401206
Ni 3.1934577218807023 8.542033214430797 7.919585052718478 -0.8426649200440648 -0.9137083570451361 0.2862748535076876
Ni 5.675959675240547 7.8720842021889785 3.5230425099688216 0.052723041425328555 -0.5434813288945092 -0.013425786487602686
Ni 3.2688087680764473 8.252722854457707 3.7302289197620673 -0.47274436739026326 0.7075467640502717 -0.05799457423691302
Ni 3.6489314412926572 4.441909774635675 9.23652563027071 -1.1556669051339516 -0.8914474887644067 0.2492034025766869
Ni 6.9785442671894815 5.992137155000877 11.526321175458488 1.6445122918511357 -1.2517755126337666 -1.1562829414513958
Ni 0.5637822486674632 0.08568511086862628 0.2919156015751021 0.5859207290056426 -0.8282369175441929 0.2682935864389186
Ni 4.644626176426582 0.45392216134876995 1.6234013570498855 0.15140069520390054 -0.49631829805546146 0.18770595739283802
Ni 5.9362122675192195 5.646023837930439 0.202165118908481 -0.9614737973548731 -0.16257856619759095 2.030661647658974
Ni 7.9133625263903955 8.658146605775443 11.350825836980318 -0.0454794724890378 0.17627843228218673 1.0086401706280306
Ni 9.23158943066829 4.9141211303301775 5.809736749483047 -0.49365720628353044 1.2211135647735356 0.7526382570722715
Ni 7.91843179427478 8.931325831159295 2.5783029693370416 0.6938312142363923 -0.3054732808130094 0.6879297611502927
P 8.737761268352518 1.5973082058414239 3.880021259613592 -1.349089710405909 0.03146670314971355 0.2550981707945671
P 1.7277694357516928 3.224009113148199 1.698151332910768 0.07008955772823412 0.3480067832998458 0.3350787623842681
P 4.694522256031453 0.9764677262295803 8.227158355471474 0.6772056898645691 1.0896705436384846 -0.43921641083614676
P 8.605036972422434 1.5010916909429886 12.264390285349542 -0.748090232690273 0.7392173556806753 0.17637382020947043
P 6.545628789863039 7.687019715352624 1.4301662966555926 -1.7824555759985496 0.27514171970900353 -0.5779289690494176
P 1.8764619255175876 3.389294402971374 6.220492284343467 -0.7291684560851055 -0.5271756497559502 -2.0092662127023333
P 6.924484146108152 4.068965546834316 6.216875904843804 -0.16236285064235909 -0.20319633971895326 -0.41054912480844136
P 2.3933552567073093 8.628093089032305 10.307328810923053 0.29278565804301193 0.3160412861368428 -2.454747630611585
