# total energy = -340865.659024485 ev
CRYSTAL
PRIMVEC
9.29084623553605 0.00000000000000 0.00000000000000

0.00000000000000 9.29084623553605 0.00000000000000

0.00000000000000 0.00000000000000 13.59809259883868

PRIMCOORD
 96 1
Ni 8.29406853665758 8.792550311556695 9.703585611461921 0.28803374518032326 0.11616269793721284 0.06797713937092163
Ni 6.107774465050491 7.488254858008668 12.248903068208595 -0.23973917183999358 -0.5392045558960261 0.624315269623441
Ni 1.0132689850012573 6.44492998532548 11.391679420811862 0.3490599071547085 -1.4243875518079598 0.3870839518069656
Ni 2.0955317944000473 7.711151550860972 13.013265636225997 0.3261272096179351 2.242191446944287 -1.1307318324551687
Ni 4.221602600488041 6.193027270419702 2.589485210827394 1.0206868173799197 -0.16259270726497804 1.1919693391094117
Ni 8.454763013735379 7.6629785129534564 12.155919349658507 0.16161363118116037 1.128769052301843 -0.834557203335266
Ni 1.5378952013028317 2.3979488404732625 2.1844925765154284 0.20482307668909888 -0.3595515507146517 0.9012385067128995
Ni 6.645082686509974 3.1293707130420447 0.5739838371084547 1.2301077978523458 -0.038483243676862754 -0.3551102271138465
Ni 0.027573373558712384 8.978543763026426 5.78352671749776 1.5120449432166283 -0.48940331610318294 0.4481751626913314
Ni -0.17841676633692743 4.076265892293777 1.2359510593047356 0.32850188049769874 0.5851686813309663 -0.9133664003246851
Ni 7.573191774604715 4.774491571141527 3.169688340428672 -1.3023979627763247 0.8917503647168061 -0.20363651258016544
Ni 9.115528000424382 5.99381294470843 9.413633164743908 -0.7872669028897344 0.40184671193843696 -1.12731483635382
Ni 7.617462657079027 1.9371879014284406 9.726335177637495 0.8811934151365663 -0.561802238690884 0.6074922845288312
Ni 8.636891473156984 2.594812582078343 11.991872735246663 -0.554146264807523 0.8018365731737932 -0.011258346522638674
Ni 4.703778940184131 4.574153053031643 13.32316645896932 0.3211811784665694 0.30246303323177587 0.5320689732925096
Ni -0.08173250371768608 1.7732230464637675 4.602723334395076 0.8321244255240573 -0.30613533987704056 -2.677779002778595
Ni 4.385140076524316 2.8171239516156668 11.641993401005552 0.9924069965986199 -0.022209446217503686 -0.2642613253510739
Ni 3.263521242327795 0.6863073812531966 1.4368693262218386 -1.2815432308145027 -0.952658255945772 0.3520151331282905
Ni 5.5080967925836495 3.6518693255478967 5.90176295620843 -1.775608471169729 -0.4207072962883658 -0.9081750859317328
Ni -0.046578728687663815 6.349224977903047 2.7813133137543886 -1.3887505193306406 1.3384443148769207 0.2749684273559329
Ni 5.136435069263624 5.296442023717477 10.92177071453006 0.3884042132802859 0.05542064286214972 0.5422644257682725
Ni 7.876788758154161 7.117587255239482 7.34404420038227 0.3597538965334449 -0.6512684011735171 -0.24719074302203237
Ni 0.47720852419577187 6.392250886977242 0.5037580464955821 0.22042864443683974 -1.072577849822256 -0.6438060313582009
Ni 1.3153329789162305 1.3985510889524142 7.314319066827535 -1.470841472395125 -0.7122850500662056 -0.1263967169603952
P 1.8874447105013745 7.6202034567285395 5.90387012014236 1.0000909955064388 1.4557745507596738 -1.1429384018236899
P 8.866328921783039 4.970101048500221 7.3417056943762296 -0.2649552660943049 0.5197505609364726 0.7554672418806343
P 1.9243386610376798 6.23043221750083 3.2740942253825205 1.3492393486098957 -1.0698128854826092 2.5642989938798673
P 2.011867723742926 1.997819964183396 5.052561954565437 1.0319109682305132 0.9301531328647206 -0.3130348952103512
P 6.641078331767806 3.6893950536305304 12.046156362745648 -0.689374206906303 0.10729213492046037 -0.7969028833176017
P 5.351202271630089 4.84011281834322 4.164252993720111 -0.36031542546386974 0.20993185867057393 -0.48323241140578066
P 4.961061055079968 1.962802764593536 9.499926544895308 -2.555116556049651 0.48334939659961923 0.854923939917076
P 3.9366895087866216 6.692224440481572 12.934682729393682 1.108522386237665 -0.13392824945075 -0.8314921912566969
Ni 3.0301351840371904 4.095219218683619 3.8244495822583056 0.5060972318190962 -0.1176981607451328 0.8275681736119425
Ni 6.728161433852115 0.2089864378175634 3.5219470603994103 -2.037262440804943 0.752417399310717 0.3007486216438304
Ni 6.891875435967511 2.6525737733360133 3.5695124769608984 -1.9433575258246658 -0.28212123635063024 1.5648633725692405
Ni 6.086396227784301 8.012202842532567 9.806727012238486 -0.7577683792099853 0.28934526490289525 0.67263246867159
Ni 5.589410279134579 7.238396129282187 7.6101182431029635 -0.14690974931208248 -0.19354750377527957 -0.45400128245480526
Ni 1.7218167940544558 2.5161005324828807 13.413824678698143 0.5670789137087912 0.9276668761077572 -0.7203372309467208
Ni 0.6482214151405105 8.110137653059688 8.136065617744064 1.1156440848841107 1.190704613464375 -0.12125039687276538
Ni 5.875354654771917 2.9378399171956753 7.995311154929933 0.4515011417407708 -1.600993028412262 -0.9817670003862705
Ni 8.278125444459066 2.821787956442971 7.8404290312783536 0.9738004372410263 0.1696141328881337 -1.5838041753378014
Ni 2.7599109202878984 2.6217839087987898 9.958658363114862 -0.10656682671866163 -0.3588534962063626 -0.20925797253200087
Ni 6.0324907377284855 1.0501257721524846 10.977087484134218 -0.15721498789283245 -1.2608029129433576 2.1494260448850917
Ni 5.0832449743705626 3.92920108669338 2.1518436136396715 0.2659466834732968 1.7588194246368485 0.9283561888652979
Ni 8.984861538489707 5.861232568442231 5.302495010062076 0.6122058879544167 1.7461135470344056 -0.8776833451007787
Ni 4.338685845176664 4.603177656777656 8.71414764714201 -1.4309117260797226 0.17348364314586898 0.35720079109428804
Ni 1.939296923531624 8.473446905583405 10.610021013379102 0.45294815859994253 0.3950775115354035 -1.0835040098164566
Ni 8.750063271566134 9.391744860017523 2.7171033461010365 1.6377916852978505 -0.3447764492880062 -1.2539349821789307
Ni 5.02589258034875 7.826088610061333 0.9640758121733476 -0.9568080164480877 0.35423013850173835 -0.3573463155332169
Ni 0.5755028904735229 3.548545824184449 5.806616328646797 2.1840760308587934 0.6175141875412076 2.1688545859233486
Ni 3.098432194964509 0.2024354621129175 5.7620286283146935 -0.2734856721628193 0.8333930078238356 0.49544515142188866
Ni 1.6401223828064748 8.893207340040789 3.6359392405341597 0.7322936319776485 -0.15088801723354012 0.735309793096153
Ni 3.989470806443824 5.900374903775763 6.5299402996070555 0.49860709408963805 0.7477320780199058 -0.46898695723036005
Ni 0.8442824276279032 4.0757177323638745 10.561665874884703 -0.04734146539844105 0.3934692865080191 1.109605849109831
Ni 2.4309313447300958 7.4298525983584 1.6774604357944638 -0.025481432100556114 2.066607212515647 -0.5242890722367745
Ni 7.697614787846267 4.03447566577343 5.7083702747696465 -1.1734710231949081 -0.18146563291008103 -0.5678319898247318
P 2.7641754187256127 -0.32601486651319556 8.516457949303568 -0.6535965350860614 0.49864617485768964 -0.06752462521453532
P 7.532627939791945 0.5440106379583226 12.514134431172641 0.03334515111934903 -0.5822813324808424 0.4053344133767213
P 0.8679815182922214 4.584215039541545 12.899423038716186 -0.11370369487375902 -0.11900582381296279 -1.1366276291143136
P 4.518956135344363 9.247653125223374 3.1362505847046327 -0.5924109647156764 -0.8403154459752818 0.1376625196822016
P 8.25629195572567 7.895082434458867 4.36210528136827 -0.4212045476397585 -1.398284941183637 -1.7522119466226596
P 3.731287479459843 2.88234569242777 0.9211604641697596 -0.9932287211689668 -0.6807255300923696 -0.2576499906821434
P 8.528829640196076 2.489705238231145 2.490871239437971 2.0831933990091027 -0.9682486541848614 -1.1024255293113079
P 6.065268843367389 5.0122629088713495 7.37124036558244 -0.1372683695675765 2.4698523474635072 0.9811471074140845
Ni 6.103064005991838 0.4065572128237548 8.28474703059536 0.47222423322073515 0.4252969725415773 -1.3487693509520127
Ni 1.1789247739869848 3.6952297050877956 8.20644935274352 1.0887796563930991 0.7060408689287067 0.472082051215916
Ni 7.021928702048397 4.241838063663079 9.458941834746527 0.7338164963800782 1.88602861019621 0.7906499604293545
Ni 4.342876016844222 8.70558799047389 11.436934203906118 -1.819576392110247 0.06854843849335936 0.4484996359102856
Ni 6.340287183791759 6.7189913685840885 4.804573473193012 -0.2445378787802176 -1.9644701394335653 2.5225417074374232
Ni 7.789445512374305 5.610611990321648 12.891413400147226 -0.8019615287874318 -1.9244344636679183 0.3331974862011552
Ni 6.821274295165348 8.828329360540659 5.674402011723617 -1.599945303874038 -2.200557059232952 2.747221413841133
Ni 4.773339506204105 1.175598651022493 13.329394113223785 0.4352512555408117 -0.3199575904721135 -0.9736579981258908
Ni 0.41810016022901936 0.3562472802742475 12.015397158001115 1.1461556232094066 0.21898008491577126 0.018651810773232396
Ni 8.979398520883223 1.3908675590875126 0.5198739484347095 -0.563375753825591 -0.17826383814333172 1.1408144135021514
Ni 2.91955553173724 4.658913443548569 11.704857125034447 -1.200513886245313 0.8393996190292318 0.15960971337725413
Ni 6.661118687171183 0.33687400763302267 1.0357379676194898 1.80965681900369 -0.5263225577270355 -1.6035967845836965
Ni 0.6243225712813975 4.084729853245319 3.6623874926096325 -0.44808337430847345 0.7073709005940398 -1.0422036084057729
Ni 7.362475381211765 1.5769910824050155 5.7139865913395775 -1.52558900044965 2.812090603710692 1.401023680271039
Ni 2.4863884061129227 5.01246730748928 1.667901084067744 -0.7086878196332503 -2.107417818774106 -2.1593029376791715
Ni 3.4889636270579505 1.9380054959001591 7.65549473628335 1.7471430167401847 -0.6635929841771411 0.7764531001036821
Ni 3.8777205075139123 7.179297056161703 9.371016981990199 0.8144056680880556 1.272761885077447 -0.41958141021403866
Ni 4.622855669176521 2.169988636404064 4.425376873548398 -0.9110920024682116 -1.1470747925895663 -0.9333675260369604
Ni 1.4673869689633652 6.074578271329457 7.118030428606539 0.5770349964802385 -1.9522908237585537 1.2831110895222546
Ni 7.70171205105113 7.587248825010514 0.9261431450241089 0.6080566416727333 -0.14060463302966109 -1.5504975907658716
Ni 4.045485318602823 7.636889816628616 4.716606811628472 -0.42780791188888906 -0.14494259828338263 -0.6696168217737177
Ni 2.9487845341011822 3.9456551754367184 6.488873830011105 -0.6275854557342805 -1.2045821427774157 -0.6370630562074125
Ni 5.3569068512395805 1.6586390394216488 2.0633743172919488 -1.5077609711292936 0.8865225406589636 0.8686860266981749
Ni 6.518160435621918 7.248160808711463 2.741960076210539 0.026268703888541856 0.8601733612414735 0.7418229116243225
P 2.3661462736926597 5.858984183645005 9.649383743410107 -1.9365500159845295 -1.9110608705744891 0.34747533627640803
P 8.271566106992777 0.576211782043888 7.447036018533897 0.3549893852652661 -0.5532962581024019 1.6276743943581902
P 0.5340796523808216 2.099610475912371 9.725858557223866 -0.2117920518077643 -0.0708140945990845 0.15862395242521712
P 0.45214275004520577 8.513258181848341 0.8851008316284582 0.4388510570769281 0.8593850610122231 -0.16589708904786268
P 5.152814831236806 1.1588565460447988 6.259392714407585 0.10819844878481366 0.03753862037540632 0.554484107762916
P 6.336041267046583 5.768389141670814 1.3058572448059362 0.11857567825407965 -1.3973706568994837 -1.2280941098564266
P 2.6896442499514395 0.8485459969809906 12.413386352395108 0.5953116833022393 -1.297929642592326 -0.8542837352299159
P 7.005725466154336 6.329491220426564 10.488970577333392 2.077401989138306 -0.8331302410807523 0.7865145981047422
