# total energy = -340892.6514869169 ev
CRYSTAL
PRIMVEC
9.05401155576460 0.00000000000000 0.00000000000000

0.00000000000000 9.05401155576460 0.00000000000000

0.00000000000000 0.00000000000000 13.25146110537439

PRIMCOORD
 96 1
Ni 6.009744945800869 2.1557691736849023 11.522078801275635 2.035034837026005 0.39258199880705935 -0.40975336838002335
Ni 4.744582659691782 0.38058989714630226 6.138156179002487 -0.4033752327678214 -0.10971565676028847 0.4428527220371535
Ni 2.874666734634898 1.313936245641557 4.798023056711357 0.15934823218575137 1.1918459261576702 -0.009008888366829648
Ni 3.5932383511736874 4.573289817591394 5.267283414722935 -0.6721429306296812 0.08819603752095778 -1.4107787027752736
Ni 4.978176154389706 4.469757196976247 2.7178485405955004 0.06608583588547973 0.9328905864005417 0.37736878140173075
Ni 7.3417167821958484 6.026594461057956 2.684123253448202 -0.5570999481192084 0.43661214044408025 -0.8209740653341925
Ni 4.845435292925898 4.438783423900217 11.608598029026947 1.0576009167974496 0.7099869980606481 -0.892591886781495
Ni 5.647376246642148 7.831719880376145 12.249292471717105 -0.1403441802794228 -0.06477868703828199 0.4743765036770476
Ni 1.7012849623146808 6.3793115840403996 0.5613052489339828 1.2179845322262508 0.9357578806460078 -0.6849400823943493
Ni 2.8178437589479146 1.5138850338938423 0.44452932581129223 -0.06575467779830611 -1.206564206204451 -0.8658598701032895
Ni 0.9494489078099936 8.976943677172697 4.710669049106897 -1.746587658457347 0.1835276576454323 -0.5689807587171943
Ni 8.493830681684846 2.4552758715379 1.2405869829052665 0.3442005221798782 0.35856861797609213 2.164580898248659
Ni 6.579178886189884 1.037046468321715 4.928840846149048 1.0087982934724498 -1.5616065561948396 -1.3680086587975988
Ni 0.6854312185293779 7.600697724922182 2.620410175068772 0.1244953861726243 -0.6030278209995744 0.3387497834779521
Ni 7.544300287772051 3.9493869444852203 3.857924226497276 0.5292191625485402 -0.24166647076969344 0.23508496089743383
Ni 7.564201004878487 3.8418071807642615 12.463356463776911 -0.3133927927704022 0.4725641330586572 0.7733616056625521
Ni 8.149751085599373 9.084432900779433 6.687283782573341 0.23472243535169254 -0.5970551483559072 0.4216280083304222
Ni 6.771694331064378 0.6044240729320214 0.30817229218537673 0.08329911443997266 0.6510195183875046 -0.4710114438595566
Ni 1.7730017867915127 6.339473933781839 9.305096361765028 0.8781029491367005 0.5989127703899363 -1.5775322262861604
Ni 0.1342990568296039 4.941498354117564 1.3874013997240542 -0.5235493658572725 -1.8509230247423285 1.0518226195527756
Ni 6.4397742723191875 2.112998023725484 6.9537705007688455 -0.8996919881613861 0.4618084372040498 1.4383576408348067
Ni 3.2309420841063443 4.375369127897725 0.4529549888409778 0.3223168347329094 -1.235728486473233 -0.3824166282382834
Ni 5.962754626518613 5.90058073008099 4.874656209390552 -0.41612970422001233 -0.6661969974588914 -0.8524281700784158
Ni 5.241991939215602 2.8289620849746218 9.38158374486032 0.48256675279732375 0.6174344833432076 -0.19415017035628498
P 9.359855928248844 5.525083714359789 12.401777415889741 -1.4661157847846813 0.29713056527526893 -0.20662362023294736
P 3.7762018139975497 6.164251650724128 12.761156480476785 1.0123741837491662 0.38639026817405064 -1.5995717225847033
P 2.234593397128318 8.339296814727321 1.341710331080912 0.37302644527263495 1.8675323511642354 0.20719337669348833
P 6.521224159075099 7.863264056171787 5.806882576672856 -1.0836096821563854 0.8233073414530594 -0.19953997391328862
P 4.740635110711616 1.0033564918189641 12.610156394177423 -1.2786417408969915 -1.1247969550279724 0.856965138716821
P 4.023014165372178 6.037567922901905 8.126988395482316 -1.120906875944947 2.3704740680734853 0.32457529174978295
P 4.7343154107387795 1.056594078982677 3.738343370635926 -0.5070693659243783 0.04142432858305769 -0.2950366588607177
P 0.4224357271383513 5.546007534756955 3.6485112801051556 -0.6474526269718527 -0.5495578741058923 -1.2653463093396662
Ni 1.4544997729743199 1.2088282270389135 2.6282283139320146 -0.6169400602052922 -1.4335108542654666 -0.7331845192230341
Ni 1.7778275748796522 6.766325302290895 4.852472976004529 1.371792037099431 -1.418263698298409 -0.3220445549081292
Ni 5.894903864919146 5.728590729101077 9.120636270853042 1.6209833554912598 -0.6375078570543149 0.22460180197792284
Ni 8.659455712634813 2.4574126182335863 10.327048887644459 0.13863953888349026 -0.38187721079504555 0.33045180513521794
Ni 2.225955870231348 5.258723752324198 7.071602121623387 0.32839749370935056 -0.2457208433447252 -0.2662631862724511
Ni 0.893096740716975 0.15250395759662394 9.089269553681278 -1.291769279417885 -0.6382609331702557 -0.5801848549631299
Ni 1.4958041730833092 0.9655922101761331 11.450123856298394 0.07107480445963889 0.775704909083748 0.14002639192868788
Ni 3.890898030696515 6.6793434145558965 1.6811198680747115 0.7807149607038296 0.6128982860357509 -0.06129432803410734
Ni 5.92347832496824 8.0922852751014 8.178284802597068 0.04531749298987679 -0.621734139159826 -0.8158760819859949
Ni 5.317113071987256 3.078273343501833 4.7773373568145985 -0.6585613352905046 -0.1986215758640773 0.1166146978729669
Ni 0.7412645907678931 7.1781470118387665 6.937364632071456 -0.7995904574520939 1.0875090172107915 0.4765197752722954
Ni 4.981498976581727 4.5876132636616305 7.04919434875409 1.4380735339354846 -1.3441439363648593 0.08490579680546023
Ni 8.348758256663729 7.066592537103373 9.12728825304508 -0.23892567479976273 0.6814855481868457 0.05384584217586211
Ni 4.926006940573837 0.24942352826884878 10.320714701253348 -1.4095810829227464 -0.4596242850685375 0.5020713984891547
Ni 8.294434188129328 7.100237243549013 4.7018966174397345 0.05676635825676675 0.6819007813473933 0.41291736793030176
Ni 7.228849475804207 6.156320336718106 6.914890764918774 0.875536473961105 -0.9545084217806334 1.0442157537397951
Ni 2.527744178962791 4.892000073671302 2.630375020040266 -1.5621737415522194 0.12168002821101624 1.3725427992225265
Ni 2.3343595489917455 5.133914204866412 11.352393951603863 -0.3716398493377535 -0.3307009450315466 0.5849272547441217
Ni 0.9434098821912527 3.1158746529390604 3.9076307492062528 0.06433748573580533 0.7149332863223301 -1.044949032361394
Ni 3.5922786259629125 2.580492849509694 2.4933814894113553 0.9743578524063927 -0.50530533204542 1.1620784650872502
Ni 1.2868919135228478 3.2820338705629486 8.189203940372481 -0.8740478052307205 0.11763079784230711 -0.23390508165671975
Ni 3.6662046292268102 2.433944620626725 6.973713771728967 -0.04976884389301107 1.0826630019724 0.18014614276770913
Ni 4.121078163088194 7.20252946459929 6.034940448787125 0.13765660614493067 -1.771540985968575 -0.04704141765951898
Ni 0.9952803136301832 7.272245352551772 11.25877275729282 -1.03002506406171 0.5071981781927587 1.155883392020132
P 9.252294272550731 5.358951658770168 7.981050406969218 -0.18474636054388183 0.3779169405957169 0.06687567877662676
P 8.60648069180235 1.7397192408027695 8.074936883814939 0.5313398084359688 0.02262982158437393 -0.5122989897544338
P 1.729207533541363 3.2311955964261716 10.308337867638926 0.5856407358713785 -0.638235736359275 0.5161260768100079
P 3.9177250665410868 6.154971289016168 3.895558130375625 0.38855950791122756 1.1078199608540018 -0.48101946291486186
P 6.84729532644142 4.031081289549537 10.399414884740276 -0.7045581137355931 0.6043321416332946 0.46107798679592854
P 6.713024337047226 8.041637135204493 10.26747077628164 -0.5787062135350743 -1.4303265430002141 -0.010943386385381152
P 2.4030704416763404 8.512735457534818 6.17109919956289 0.5778526072855275 0.2141790639827021 0.4311531742120381
P 6.777715248660274 3.908616731050152 1.7522536142159404 1.3175623292215888 1.9249661678016718 -1.9107384542380643
Ni 5.208292908701429 2.9505031343089216 0.5288031587298507 -0.02903315400755645 -0.3346571014658172 -0.33725185877618696
Ni 1.4053908150192211 1.2959640329680926 6.790246905870018 -0.0729563377530679 -0.09540489656457118 0.7419725498283093
Ni 6.9793480830371255 0.9902643913021735 9.210189497832001 0.20091448566331202 -0.12512067846144903 0.3411733053177802
Ni 2.879311442494589 1.4842422004969043 9.191902205561037 0.37119170605674134 0.8330155698797589 0.636452162096291
Ni 6.37067405714343 2.10155375328757 2.665240207225644 0.1412227262296342 -1.745046282112156 0.07751104700328586
Ni 4.08209158990334 6.528938176806985 10.321761344973778 -0.48606602419983386 1.6171824936879309 1.1111515963303962
Ni 8.32005704045472 7.007080520023938 0.5295193310333626 -0.605632348501957 0.10958324494748226 -0.9337907296173079
Ni 7.622735188724304 3.8341565411123333 8.403401026400198 0.18252775562600823 0.01975507113974017 -1.3609653787975724
Ni 3.170325477633375 8.293863785409718 12.52558558968421 -0.08021430486706185 0.07848163844667129 -0.2134480993539485
Ni 9.081354536895816 4.871157739376937 10.184476275177065 -0.05627836287675469 -0.20271271521431541 0.6710579250956186
Ni 8.428560313340764 2.3331644194839884 5.761774586365315 1.0844373202640032 0.96949332522524 0.7993510877477782
Ni 3.421483754490756 2.6629205694992253 11.53138179801215 -0.13299751010636449 -0.5899578751894937 -0.002729483116021106
Ni 0.8912433845788096 3.43836043178211 12.567288366295784 1.4107383364556414 -0.6880847986709181 0.10684733407355791
Ni 3.406961120169226 8.357323351469319 8.238671437179907 -0.30221415044576344 -0.9230193500334167 -0.3535053445205718
Ni 5.622894199755978 8.105313997538232 3.5478397270994884 0.7199014289608827 -1.119753221956478 0.5192383971867445
Ni 3.187066344753393 8.332008335532288 3.4146497866691283 -0.5695949952624255 -0.22242639159315888 0.26678589154514054
Ni 3.5235767872897403 4.261777500592293 9.223347692632176 -1.2051896944544276 -0.08484871831527967 0.1028163585372939
Ni 7.114017448933906 6.0585732294018735 11.392850896243715 0.4990511236055922 0.2584665730461677 -0.25059436938694263
Ni 0.21914600867120038 9.179137860257738 0.3923601119954224 1.1786181146134862 -0.004099623990670358 0.08642506166346406
Ni 4.6694977429658175 0.09395166572796206 1.5743268979463592 -0.30009221900675415 0.4408981694139439 -0.7914228340396369
Ni 5.806093066876822 5.5378589244767955 0.22230223705304905 0.6278433373813574 0.6179795572134003 1.5785084741565008
Ni 8.34634988962537 9.02931207923986 11.133267861757794 -0.04842698515313595 0.3102503904866786 0.7948064057998893
Ni 9.153605548046569 4.645133398228139 5.6355815859621865 0.03813074543345046 1.1506676521471473 1.3491863838847733
Ni 7.775521631477307 8.897377024792645 2.376795700528535 0.3026342687023175 0.5522302787317327 1.0690641802420429
P 8.468370801565056 1.3994423295147043 3.8969234752981228 0.3035228419548579 -0.4574365333885993 -2.009484756471042
P 1.7775559545369801 3.055067912226221 1.4965402642119503 -1.815811782861492 0.8544092050641866 0.2990828039056333
P 4.924087490152288 1.0761235816207944 8.258416425289877 -0.4937299685029949 -0.44346747280301685 -0.7624855821799965
P 8.434436366753902 1.8236499266884192 12.539420119137638 -0.4238067611492959 -1.8863093746614223 -2.020312957434798
P 6.366916642403134 7.608719579042428 1.2757500470664422 -0.8850608685117725 -0.5001042474604548 0.19634332135286184
P 1.9206817671022818 3.2890597834267314 5.796414328666277 0.22802728271970404 -0.6647957462359907 0.859632658246655
P 6.867186989536432 4.076188374455935 5.995716660503003 0.42505760283726146 0.4153809989794459 -0.04422965924233673
P 2.535693600991658 8.420565621254784 10.270492099893294 0.7724056695071859 0.22753903022937585 0.14321147452488883
