# total energy = -340894.0035313278 ev
CRYSTAL
PRIMVEC
9.02955686978376 0.00000000000000 0.00000000000000
0.00000000000000 9.02955686978376 0.00000000000000
0.00000000000000 0.00000000000000 13.21566920052777
PRIMCOORD
 96 1
Ni 6.29890163842671 1.934185305002576 11.487337511041153 1.9535262388275516 0.9891972314120706 -1.0931168503158721
Ni 4.792031092926398 0.25868326615671966 6.018733444141351 -0.9135942000647751 0.4694955214356624 -1.262335290427484
Ni 2.998056750343549 1.4481693948891166 4.827194897083478 -0.6974104469472182 0.1685062445359356 -0.31719005502930536
Ni 3.361514482138941 4.161163028051395 4.6793647943952195 0.12741384537099992 0.6495925561329909 0.3734072256508214
Ni 5.084263678433356 4.547582923514572 2.7389211033768586 -0.14254350192358675 0.28525001178759907 0.04589933363527579
Ni 7.484365099477629 6.229220546399853 2.374142347379895 -0.5466563841883811 -1.0182008177332722 0.5441091922864952
Ni 5.125393310956659 4.308344808540933 11.481892688118748 -0.18427559155505038 0.618265206774619 -0.18175642467762249
Ni 5.508743157010852 7.734917249479083 12.335690584915723 0.08682178288125048 0.9541286698437116 -0.1653270754770056
Ni 1.7422349804843797 6.54180575357696 0.39620161465362563 0.5914879386807749 -0.12266064695673068 -0.18362021735923859
Ni 2.8850699025358444 1.755481340728438 0.28274884170032194 0.09555119233444835 -0.5704748267642175 0.5218809770159141
Ni 0.7594516666360566 8.908172749350747 4.525652838221631 0.4133683394247913 -0.33387060100877985 0.8205644886005997
Ni 8.529247386268326 2.550244896257773 1.6455753777982196 0.44469363190063416 -0.18633453096660813 -0.65498133124873
Ni 6.873407207975597 0.7608295770472654 4.626078669168047 -0.5629286389858434 -0.6943076396521785 -0.17367441900043637
Ni 0.8497878704954176 7.276694316074017 2.65479001114648 -0.07947125605345023 0.19537658656421836 -0.18844977753739803
Ni 7.500997543628656 3.961221545512754 4.160728706355594 0.678009159602471 -0.5413156887017581 -1.5945675845018925
Ni 7.583654109187013 3.9150443905787973 12.587766924153167 0.36228000538940835 0.0014300475783072144 -0.0021476424706221076
Ni 8.035836268902049 8.922240799289563 6.5074618332032195 0.5989904177054072 -1.079933775966695 0.5663602903752117
Ni 6.709936106504272 0.7057673379414249 0.45115640203015184 0.5428323824566007 0.5557120666327462 -0.367977827105134
Ni 1.8026607764988576 6.711922609063027 9.259176013058457 -0.3108782538786646 -1.1741479946572746 -0.9627853170774452
Ni 0.18093065305135997 4.904449078637733 1.3150962973452782 -0.866976500206236 -0.22470773142816783 -0.5800807252850978
Ni 6.528216270163662 1.6925904756296877 6.886143398244339 -0.021044993595757303 0.6921011189191628 0.8656420976655286
Ni 3.4551058413275335 4.377348683786396 0.6260634375499431 -0.09749648898627726 -0.4946370536982965 -0.04603560210282394
Ni 5.917357703789568 5.555723942525396 4.864979078706698 -0.6618580037639054 0.5556783851813333 0.07869452578842576
Ni 5.328395813347199 2.9493784080969783 9.354777351654226 -0.14121629847173098 0.17535489202665286 -0.09735919207746459
P 0.06323760009082398 5.71589022610352 12.278876611735345 0.1831129387055169 -0.5208723332457417 0.9934526642543148
P 3.875856112828822 5.998641776670968 12.597255182738346 -0.37635756652839697 1.1008039345474847 -0.7577920333590692
P 2.3257701071185144 8.40761925233004 1.3704781827719366 0.3013692859469649 0.6622362130389304 0.715964812910638
P 6.310161496112014 7.656856728477116 5.891994580892815 0.8648681956139814 -0.4991665661375338 -0.6259844297957478
P 4.78532213201206 0.9891879786888891 12.403275916743095 -1.8291362678845402 -0.8698124269931341 1.9964366650378325
P 3.805244976422185 6.22911219171483 8.163464543523483 -0.3316928766311707 0.44142730244453654 1.5832328762153636
P 4.927943986173547 0.9181614826563305 3.6321420464080263 -0.5777795879557468 0.23403466525604855 0.5759109101781242
P 0.1624552762992346 5.344983109712799 3.7189558200484316 0.7397637151024485 0.11026947238122943 -0.5292592717578563
Ni 1.4144439991757165 1.133769246737876 2.460559723464258 1.0988504103655399 0.19685934175733194 -0.25811330347180705
Ni 1.9146724321413557 6.342469251363031 4.76731448631695 0.3197362184899268 0.5837273208987495 0.486574074184504
Ni 5.8359472171089735 5.504580531194552 9.200576896442325 0.15304851521996868 1.1294874185251065 0.4158137156414903
Ni 8.536335588580247 2.1677347990125084 10.369582183793963 0.2996790427287355 1.5942657369907574 -0.6346130520050232
Ni 2.2703647448434343 5.10318060052695 6.957164476542647 0.7806452838081588 0.8410926904609386 0.28122469267828987
Ni 0.3730498302870504 0.14105432305148893 9.420062855291985 0.4562527974931433 -1.272742601803737 -0.4416964969455231
Ni 1.5477112321968878 1.0656322089725965 11.417175143621652 -0.19879306844493508 0.38982166245310285 -0.34584397132057215
Ni 4.095427852470792 6.8273564668408335 1.7528076888754962 0.16919170063873443 -0.19205317861794022 -1.490988122546329
Ni 5.559940745684206 8.271336147242396 7.935612700034342 0.8415403195213185 -1.6694939014971377 0.6117770279471141
Ni 5.136472577500258 2.7061853471200012 5.072042172918473 0.5550068130356055 0.09137289258704263 -0.349738678389288
Ni 0.928382941276831 7.475741872461217 6.793818885914806 -0.31062294333474894 -0.46974723243515226 0.5745960480214427
Ni 4.9256595082309795 4.725970853290725 7.119281144451185 0.7223298358967173 -0.8127303372681617 -0.9494952848367584
Ni 7.726835795887787 7.280071370423899 8.609717896056345 1.4594859381729897 0.71249793740796 0.5835581423107369
Ni 4.704688187240797 0.21197607622185874 10.279280292251526 -1.0643711456417475 0.8907607471100273 0.06923440881679044
Ni 8.262496210855938 6.988028405615732 4.688959601754004 -0.8415369770872088 0.669173563588712 0.6059676203541887
Ni 7.2885320654127765 5.818917472446196 6.880275992050345 -0.6219925350275353 0.3111623607779867 -0.6979771180839657
Ni 2.17852511972938 5.283401530391409 2.5445978112566587 0.9695599167971173 -0.4238761809346506 0.8303627056379441
Ni 1.9835589231447106 5.056109519441553 11.630885797759586 2.0640538499661742 0.9676315894261529 -1.2520609050846694
Ni 1.1879465892493624 3.307409376084136 3.834619028576204 -1.0180393524547435 -0.45280803347765247 -0.2588504387481478
Ni 3.6361394313296653 2.6524323937915217 2.682067400145305 -0.05825631253873193 -0.31216740500373336 -0.15185423780155138
Ni 0.9538282331430591 3.4457241315159615 8.081567363715996 0.16012521956109196 -1.004519720701754 0.9879492179375823
Ni 3.572842236162079 2.8746317345452974 7.413395489654707 -0.36175472901355765 0.4811637018022101 -1.6231927044377528
Ni 4.185533802624478 6.880052961990339 6.179673560761682 -0.39614657622986615 0.12745112636683859 -1.3474148938066473
Ni 0.8492542236716795 7.596268400435104 11.456347168168874 0.1373951249534279 -0.3599377304094769 -0.1652885089295863
P 0.1764303218000725 5.693785870358834 7.939089079512162 0.6141105611762971 -0.5129955016008263 0.4023709598730231
P 8.56765912210897 1.4927302591048142 7.975167577801979 -0.4692900902930757 0.25202364563430146 0.5098584986337412
P 1.7164826836772529 3.2059081248888663 10.321953076080698 -0.37561194661162406 0.07317873817651914 -0.3927997712448203
P 3.975452127479105 6.132161837290526 3.849156615483453 -0.1934469736416733 0.012639800251197585 -0.021966219858446042
P 7.026069929615881 3.968932787263556 10.333344765299447 -0.3353253311774354 0.2635442446793913 0.5809358741965415
P 6.240028926230895 7.7134269036161935 10.048983244703699 0.32001595451387466 -0.37462155767389677 1.1758917168212586
P 2.6136143278820416 8.486284753656717 5.7650055989130164 -0.20057638559760294 -0.18946150663136405 -0.11872865889217618
P 6.752474349932874 4.042848741563394 1.5311013619385745 1.6119664967046303 0.62784050916788 -0.21077543761779183
Ni 5.281451146060995 2.9008355092066864 0.3610730257691778 -0.18980243491055054 -0.3495450743212432 0.08186443887597515
Ni 1.4859851799621342 0.9579727998451878 6.957626789865412 0.23131418100109194 0.379148756120289 0.229184793362915
Ni 6.787707681679511 0.7887417439091833 9.266007775949156 1.2683110483949447 0.3422315713789655 -0.09487216398955274
Ni 2.7335178164170464 1.5957394463333203 9.079349674838623 -1.0838562509495526 -0.7702855378403896 1.3067557255243882
Ni 6.347832808271668 2.2476915270023774 2.6361430728097344 -0.26880600729896287 -0.6101469485428589 0.23293988952997305
Ni 3.9517585696874145 7.005590894146539 10.590376525465276 0.36055736627134677 -2.014792284726885 -0.898686172604691
Ni 8.188571226999015 7.373030660616525 0.2631321289326212 1.1148910087681703 -1.346842309132629 -0.3667604097582651
Ni 7.514948209325364 3.7408461752901982 8.171433127651214 0.5536076186952337 -0.44914858234819427 0.5282940796311095
Ni 3.1554961076819286 8.350678865350467 12.546837747797156 -0.028969133538840428 0.15009431768765116 -0.06879475017621055
Ni 0.09648262336728908 4.904936674720337 10.118695940180354 -0.5828032664225834 -0.37864841944510275 -0.5566777729801251
Ni 8.812965099443895 2.1864801595214827 5.83000035081263 -0.6577223843289769 -0.25468293763401945 -0.9640269027940302
Ni 3.561320521321303 2.4775750208356992 11.189945436615684 0.8445783350166939 0.5796768049784597 0.6162944562014935
Ni 1.2033510136367949 3.1906752620860535 12.674025380032832 -1.0769744362280549 0.025076483352653587 0.4532659469506775
Ni 3.197077218059494 8.473805905764905 8.043915916581929 -0.2925511734347026 -0.5098214747482188 -0.1457524957791877
Ni 5.767241317247324 7.685083123925602 3.413488612721627 0.17741485987947508 0.5042632639341509 0.390209899030457
Ni 3.3309584609624623 8.34818670759494 3.457047196100862 -1.0560723959680651 0.0005322183543861801 1.2006727804206805
Ni 3.4850388230651297 4.491193339517199 9.41593995952686 -0.9404023213965546 0.012949103961500279 0.29722363920970746
Ni 7.172439049967746 6.173643622540153 11.450677509275046 -0.01869243420318071 -0.41321870122080445 -1.3769216450165125
Ni 0.556099720386318 9.145135415938903 0.20643644295005922 0.6485805699287088 1.139992174711172 0.47904562701794273
Ni 4.451634849926728 0.42831433147160064 1.5656078143398489 0.2735391511085741 -0.6273977652035065 -0.6678759278232111
Ni 5.8557670949110925 5.60348126994927 0.21835184647975214 0.2155371206724933 0.11374149009022992 1.3641987981332053
Ni 7.851254062965415 8.761568860514666 11.553838393062584 -0.7005515636793612 1.053126940186496 -0.945659713140752
Ni 0.15290742263729365 4.479572299548486 5.978451687028353 -0.5104827624813015 1.573610265523935 -0.8547799581400441
Ni 8.23412534249409 8.877941792229338 2.3325657517808716 -1.2360987253284583 -0.0841825454861905 0.002600927957956811
P 8.61339382874575 1.4845043326001535 3.6679830673465 -0.007502221914316112 1.4346100008669163 -0.32303031586016623
P 1.7918614262249013 3.3111656718315996 1.628236822283127 -0.09930526006024187 -1.0122286593102372 -0.33115165941572006
P 4.755939953256663 1.2865132343919263 8.193622361232501 0.07415344338496262 -1.3787823523743352 -0.36024651989914735
P 8.4905196159297 1.886364770679104 12.517194614841996 -0.72469062281941 -1.953120261638385 0.7032432515789114
P 6.3919873424185285 7.712957366647761 1.1364943670662035 -1.92022376802068 0.05460868848381563 2.14648675975111
P 1.8761252529444328 3.0705279755097474 5.950038379748205 0.5500371277351559 -0.24644332333304655 0.5335658695530101
P 6.788348780232564 3.7228863862476405 6.119806694330781 -0.4201691643967086 0.6294973280450126 0.10620661516576546
P 2.445502034068899 8.495160808271516 10.22594179559326 -0.4268468335272004 1.7091706512614695 -0.01865052522165175
