# total energy = -381166.2693159595 ev
CRYSTAL
PRIMVEC
9.20851096131704 0.00000000000000 0.00000000000000

0.00000000000000 9.20851096131704 0.00000000000000

0.00000000000000 0.00000000000000 13.47758660243696

PRIMCOORD
 96 1
Ni 5.91341112941835 3.2740584813184497 5.5468764760967035 -0.31687303800951877 0.02185309131934946 1.1259171846753449
Ni 6.0137102318675915 3.24663553538622 12.121795731020487 -1.6917480849096476 0.08542567386467224 1.2300849150342106
Ni 8.816762581054544 3.9894400799205654 2.6581711612990624 0.4151166895744657 0.20846710119958936 -1.0962343128989314
Ni 1.792657681803497 0.3792930453932058 8.679565895644977 1.7911294496234638 -0.8041593077696988 1.4515381440808228
Ni 0.018892181287629855 2.9358667041837774 7.115896258333336 -1.3351856987303068 1.3939783433884831 -0.5098405009116121
Ni 1.2064438678190375 7.244952619967185 6.529581150727234 -0.09714604762539399 -0.6138475373228977 -0.7035103891973691
Ni 1.9623060810343433 4.8058758788787195 7.177542635614501 1.51186882265008 -0.9981122745135133 0.3291446562880202
Ni 3.1133607548364703 6.798155663408498 0.2717698660185665 0.2159271570220604 0.4573046357964254 1.3502482494903842
Ni 8.119355996038632 1.4437932403520166 8.75526906505695 -1.171878739007124 1.1347111288178908 -0.23826901505237028
Ni 4.0110340383527605 8.423761746099647 7.745690271753278 -2.693876936781722 0.34795844656041364 -0.5859832068124619
Ni 7.715222071214002 1.4130276049055497 6.298170346975884 -1.6499249782262748 0.9110161549249537 0.7269868750527545
Ni 7.078029940009656 8.596283200780748 9.782530962146271 -0.6742496925600389 -0.7634890837438464 -1.6620474725214214
Ni 6.31243433060551 2.5894701436959764 9.654035398835886 -4.682603377659491 -0.5885139436541155 -1.4039110291211627
Ni 3.1281956661517225 6.03793782446252 11.666185308527705 -1.1339922483739953 -0.7625894547477124 -1.2110662078398626
Ni 1.0597062441017526 2.8923933234765724 0.6982427178200251 -0.07454399395516195 2.5067826448309534 1.5197019455412537
Ni 6.287322720948965 4.280834203855913 3.4833090032075047 -0.910502962733961 1.4987554251965738 -1.790164257496717
Ni 7.34812477786668 1.9530791529537208 1.8325609227733186 0.7173236409313775 1.10464156312602 0.46047274911176184
Ni 2.880026293125 3.018393380290103 12.084058331851628 1.8445055512517587 0.9197597054455385 -1.2800219090739695
Ni 5.0089695902740585 6.002494265398332 1.7464797613984093 0.7864199815084069 -0.40379869345848524 1.1863543069154796
Ni 4.156648223720908 1.9529778593320772 7.496799872310675 0.20508841453534354 -0.2871199751168023 -0.8232512914041435
Ni 0.29411708065534764 1.643940228208633 12.555895071680602 -1.8081673789423571 -0.993068798552335 -2.297659140994288
Ni 3.4949982871451715 7.748022787604397 5.077142039342386 -0.06862865691199148 1.0125168799746174 1.8913855036327492
Ni 2.0983342063905863 5.157659418335746 1.8779128397364582 -0.3068403363638651 -0.363321045059413 -0.12302960026037521
Ni 2.556770720927223 7.823329991040856 10.035653593271363 -0.21023113507854763 -1.122906679983795 -0.15363087008599993
P 4.112649957883368 9.154144009216068 3.7606371265009853 0.7683417838504574 1.6320540114831248 -1.392298384582899
Ni 3.1467784414677866 1.8675044596870294 4.4958262323899465 -0.38717445463824285 -0.9010053076561709 0.1155803430711816
P 2.28235709138376 2.4523462055237712 6.576590599680904 -0.2504637573463493 0.8530727456409501 -0.12547240537391294
Ni 0.005258059814406631 9.166234784235886 7.576789603620383 -1.3086809675715592 -1.5157059370079833 -1.5216806665341793
P 8.062521065785536 1.3492218317811653 4.059287557150435 -0.603219111074774 0.06149307430847475 -1.4395282641041403
P 4.811133938693127 5.709682030759975 4.4535204908849595 0.8430140758533676 0.12246395756489234 -2.000786714476412
P 4.541527151922203 1.1490748439245484 11.72842471392104 1.1669375929517645 2.628329232787899 0.37543531182444373
Ni 6.511724926933685 5.213914212392156 6.993007757406475 0.2802335324096142 -0.9718209449171521 -1.262505497456761
Ni 3.6926221429717576 3.962772231895133 3.1993369391853124 0.6544735383743762 0.7822969604789689 -1.0399376951897314
Ni 7.101032800633802 0.021584749921136858 0.4391888847221489 0.3352628533706162 -0.6179343057977615 0.47237618541756715
Ni 1.3304825117771064 3.823677672356408 4.526514516343521 -0.2788788181539326 -0.9245069903225368 -0.27469974707557854
Ni 1.5315871847838076 8.26410458136728 12.173198560600172 1.8688382144598523 -1.0302289525424 1.5446290478002367
Ni 6.196849099799149 0.08039766834959969 2.939879773303074 0.37901223054242467 -1.1989123460861482 0.051661432930033606
Ni 1.0362429579246808 6.416232667256983 8.750956719328252 -0.6499828495928742 0.5765706552493102 0.3478568879855429
Ni 2.2247486462017494 5.842210921913986 4.574643720241906 -1.0167643423970618 0.7468424763261009 -0.3514590035145044
Ni 8.9529656681209 8.24118459734266 10.93566031348988 -0.46519432295714724 -0.13149984251491545 -0.4607679117546774
Ni 0.8811642648906015 3.747882417833849 11.462256385179362 -0.2438598788765865 -0.6700783347911685 0.0261126379266518
Ni 1.4908855659052134 8.763408467981563 4.010552433224401 0.05023549911678445 -0.15265385088471128 0.7103582653571379
Ni 2.5626549594936083 1.2882706970849171 0.040093857148732884 1.246649504261111 -2.471810499631143 -0.7066743887476475
Ni 5.7677416929838525 6.895176535920912 8.460352685641723 0.08991867663901934 -0.13815977103359434 0.36562115394749933
Ni 8.051387975915802 3.810942301562495 4.733665497711238 0.6656609224497634 -1.9265985611987724 1.256640296925236
Ni 3.4719309669436154 7.0303390612376555 2.8977213679750236 0.1393357936195665 0.5162178651928658 0.4622563233747458
Ni 7.8173812928970605 7.176063748738505 7.023332305173239 2.598006670544958 -0.4198626888998833 1.3357708818098155
Ni 4.706875176488728 8.742956364920623 1.069303354326927 -0.7445089430969178 -2.725133837913474 1.1839894062277285
Ni 3.081342761886047 2.095903159471141 1.9628622751022768 1.2268247562257 -0.7420116305963608 2.0906102602984644
Ni 0.2415327991068579 6.588680453849616 2.661849961466935 -1.1195123095902655 -1.7540569702511986 -0.6566751740113852
Ni 8.767911429889173 9.006945959945858 2.406773284295227 -0.40569128249550773 0.41311020066739823 -0.0015264639468554357
Ni 7.147848870855244 5.982410502779732 11.499791197104937 0.643366115607305 -0.031813802076487145 0.050241412654055406
Ni 9.078450048315153 5.260942078367943 0.628691754646239 0.285381909379773 -1.1107412482658547 -0.941760635196662
Ni 4.463052220681619 4.340726359780432 8.089584879786482 0.3081410574531596 -0.10025194024422734 0.48892534802549986
Ni 4.486358962170696 9.028180786446772 9.924719581400655 2.101849580657709 -0.4196572577572966 0.09578104895706731
Ni 1.703160162825882 7.880450385136765 1.8261186484367882 0.5596594813162684 1.7815716307316996 -2.1464577062853873
P 0.12167666087156222 1.1767648366774743 10.375072864930136 1.2986960884447052 -0.45970064683242773 0.6974163604844892
Ni 3.9653229894583393 3.582976401798133 0.5632091116581007 0.41355397307303615 1.5055133127456977 0.498165121456213
P 6.509920058766218 6.93474550793931 0.15548663007397096 1.6875512732194806 1.0912797971071335 1.3241854909650614
Ni 5.127980387194183 5.526147196852902 13.097209106594894 -1.073739731340841 -0.988346453376001 -3.175134740959635
P 3.388796529107428 6.430874199840008 8.33214074447194 -1.4158571457394455 -0.44788874179916416 2.0858588616564075
P 0.1505453430399769 6.891907514495142 4.6277178945787085 -0.46677066630533154 0.2981646629667381 2.5569435819560606
P 7.920083816732573 6.508041522510283 9.21707865719432 1.550792239188155 1.5612221762722274 0.6467347749692216
Ni 5.994676239509661 0.2741705248515189 7.910696660559532 1.221741685275838 2.31332307278379 1.290253356993991
Ni 0.5152428984054516 5.908042567471241 11.298409347915372 0.2868001298835383 1.53079574146157 0.1454979565662204
Ni 6.78367067551347 4.806759895940337 9.237511422382036 -1.155109489968585 -0.9617985276841436 1.0806092047671647
Ni 4.966196056407301 6.753107627310289 10.487287780689082 0.024551206976802877 -0.9732589629152593 0.9400819619426583
Ni 3.6278034336309375 4.077989122259154 5.405725656038614 -0.01753003846396336 -1.4081512924547555 1.8210529766557735
Ni 2.4880568114086556 4.512916308063426 9.549827283442308 0.6134821835636789 0.27692683663388434 1.0482235893476075
Ni 6.373109209970002 8.26933501564851 11.916397129307207 0.5041869021702607 -0.5543846060705742 0.09231288790280875
Ni 2.312247918279669 0.8858670514881803 11.18445586526858 -1.0150854120327422 -0.0026073557158600258 -1.0463639104310496
Ni 4.13821278458178 6.074762660185483 6.419118614622719 0.47863862138751123 0.05692473821150197 0.8402899920539851
Ni 1.0977466032844387 1.8098315549276094 2.9117109379751054 -1.599021249397872 0.05912174586282076 0.4495273058438516
Ni 7.051159504740937 1.270737692029523 11.244984329307243 0.11435341264261596 -2.517219781003878 1.9067046504883227
Ni 5.811058529003061 7.877070861578293 6.5212244269416395 -1.2160569761862348 -0.9867166310820621 -4.0149408513986655
Ni 7.882292087348467 3.2663141235182467 10.855077554068002 3.5271264770491575 2.145123046634364 1.4215292564235582
Ni 4.163296768705149 8.452593594223828 12.215369857843704 -2.074972810871523 -1.9724125342090932 0.8649916085657231
Ni 5.456484810695308 2.097781695727076 3.572382930676428 -0.6538060799937062 0.3679739704503921 -0.9151024091791854
Ni 9.15979803500599 4.410020405495686 9.226742068699114 0.06535461414641003 0.4826860519840074 -0.35732883203172006
Ni 7.19907581787371 6.1516261019908285 4.891218517666737 0.00916469721840357 -0.1640088708862143 0.31543553423204385
Ni 3.7180836760485256 1.8493636929017736 9.708242220032883 -0.05608167348491632 2.832681283377851 -0.22057545442734913
Ni 7.507560938333644 8.621974946633978 5.190164541521165 1.053451156295134 -0.07186053358572786 -1.8862762074306418
Ni 5.4844786843131645 0.9492041113996869 5.690816554154415 -1.1968876023466355 -1.0593094148481241 -0.9028917260456063
Ni 1.960805093731807 0.17152693548678166 6.364399800210867 2.17844711470779 0.6895570123410705 -0.1373565584060086
Ni 5.236640817684548 1.5235849886739663 0.6157252502247575 0.2906866094221381 2.2782755942613537 -0.9290030784206774
Ni 9.147025830167843 4.996888023765298 6.324290288593335 -1.344017438089324 2.619021068013096 -0.5946905047784725
Ni 1.233682643530097 2.51994588520426 8.742587103627177 2.1274575110338003 0.1175284679364879 2.6384403530799725
Ni 9.010546487769734 7.527147441355085 13.461454524067397 -1.9499662893904353 -0.5956996627692772 0.3395565956499636
P 4.516848342285408 4.379079808339108 10.9973472082197 -0.2875020410465694 0.5994848408433223 -0.6112455809236764
Ni 6.687248356219859 4.388610617284661 0.9733313312240771 0.19104530617871612 -0.1505602015804762 0.4435533476486038
P 7.997085386203795 3.1724517702989004 13.318752990747054 0.5891271517580822 -0.24954433085587344 -0.14568127622162005
Ni 7.1011709282996796 6.917230919906033 2.756153402365984 -0.32582150545205824 0.26851264442826017 -1.5196800911643829
P 6.408534352012073 2.9284722698037973 7.6291224928169745 0.0114087560575739 0.06154063971695853 -1.3083356684169982
P 2.0177229005844293 4.891855746631986 13.145674421146914 -0.823130192445247 -0.1967492985420289 0.5241458617906909
P 0.7421617904624613 0.17878232134977812 0.49836185593299925 0.06104107437272068 -0.4966952217789059 1.7543230794283915
Ni 0.5562787862354696 1.7077460013330177 5.377044827495793 0.9744984917493152 -0.9605656837183071 -2.0060572188467325
