# total energy = -340893.8185873886 ev
CRYSTAL
PRIMVEC
9.01599759681625 0.00000000000000 0.00000000000000

0.00000000000000 9.01599759681625 0.00000000000000

0.00000000000000 0.00000000000000 13.19582383394719

PRIMCOORD
 96 1
Ni 6.452695277878764 2.0518336513283826 11.473214688265179 -0.21897494270944867 -0.7774943968840029 -0.26403583960382915
Ni 4.35546607939738 0.40240740771817524 5.864104818050636 0.6947940923702937 0.05437291832392572 0.06615962654620865
Ni 2.6544719367809564 1.6333110497708283 4.574926276489856 0.29850456280466015 0.11372683480221059 0.5646589914133888
Ni 3.3961909988734877 4.481545787716658 4.802936343962708 0.4194860222867549 -0.9864903740038687 0.3515700751710719
Ni 4.9079032910569245 4.727159590207629 2.662521419302942 0.816056316317601 0.42619480176549823 0.13366419715608593
Ni 7.375924400603709 6.022244511696895 2.7658844204510773 -0.8492261182013503 0.12267813045822744 -0.38239888762647045
Ni 5.193295674290505 4.569352586867217 11.319707414107938 -0.8414233343274798 0.3262246544277479 0.142068104949065
Ni 5.600963014920112 7.533253556079352 12.150014962329811 -1.4045142099228005 2.185343327606991 1.2551169183021738
Ni 1.9799310716769067 6.354556145652267 0.47193517364172616 -0.22764573101056926 0.3356066098632801 -0.9028235918118321
Ni 3.028933358807882 1.5456214585870978 0.37170793640616595 -0.6188519325160244 0.4851967342210031 0.3148590929032835
Ni 0.43516523124766815 0.025415195207466382 4.582948711019497 0.9951819882405957 0.7296826767173628 -0.21939377541442218
Ni 8.504592041189284 2.1508653673022766 1.1858173436121346 0.5353034210694071 1.7436301184909198 1.3570603873162113
Ni 6.708920909366573 0.5881847399429463 4.645497193318194 0.8573027245618977 1.046722579322049 0.298280362608996
Ni 0.82037011583418 7.2154757100108995 2.3683600769509883 -0.5340728910964156 0.26296214692367614 1.0952832618395718
Ni 7.405307536288243 3.6753623438676306 3.89571061670878 0.6391122254269573 1.2893084765822183 0.554042135129491
Ni 7.571724817191933 3.922481817932495 12.653752263771494 0.3326040755915304 -0.34293759630705456 0.43432385863053585
Ni 8.081705696866676 8.918868107948613 6.748040420695699 -0.42969047362358254 -0.381050344018376 0.3331758889346004
Ni 6.7960515087085 0.7276117308849248 0.42632775054868677 0.16239858897630097 -0.8733417803026314 -0.8221673143113454
Ni 1.7316575499386397 6.446221791710768 9.239095600523815 1.420039045031277 0.3606787223405595 -0.5829359353457058
Ni 9.252667381482983 4.84378151720347 1.3752948411897539 -0.7413973940511296 -0.908279472720081 0.4141489263445577
Ni 6.421310590760671 1.7800193602521837 6.905612106502706 -0.974026180098587 0.5904582118646798 0.37070628177989057
Ni 3.3164445014418513 4.241377647684557 0.293475224946126 1.4653159145912056 -0.3572974645731524 0.3020503711743895
Ni 5.862832660810659 5.550527525193423 4.823996812402568 0.161514900819767 -0.024630139843854357 0.7548581475417258
Ni 5.613837859276514 2.8051833501294285 9.224197566339978 -1.2310513927125377 0.23630572067841238 -0.5485399743643391
P 0.14343640500730903 5.452505600933756 12.396552904559249 1.2500539019569696 0.16258370840391353 0.059709757155806835
P 3.9240506014885272 6.106778503773665 12.582415888759781 -0.7847438793575645 0.7298845083155235 -0.33045900422406954
P 2.1952511227410496 8.652670783282806 1.3013889069052305 0.8619309673625286 -0.7287331683198999 0.2646583036791765
P 6.198570373796445 7.8357042064854205 5.816956560993654 0.04475390717692292 -0.2764280426205949 0.9794877174337905
P 4.883388793994559 0.922390634962239 12.641836721543608 -0.6708190696119349 0.16614571472355902 -1.2545525611582715
P 4.035587505923436 6.280002862750944 8.093592387902726 -1.4242757088204439 0.868498079057085 1.4019276801425469
P 4.685487650000843 0.9550195297282191 3.601417640794079 -0.40778878845448474 0.827683359033568 0.7749351207972589
P 0.17392400037927952 5.5258958201642265 3.792783088237406 0.03751188090252894 -0.051013257823073435 -0.6155570638148367
Ni 1.3718741717578078 1.2857082841428673 2.5447220030403312 0.5019829525404065 -0.02616071755576785 -1.0254274173886986
Ni 1.7993045787944415 6.492410746639234 4.8251193040849 -0.03312763579190423 0.7802765876148303 -0.23920078283802032
Ni 6.140308998284491 5.65944077437083 9.109750297928704 -0.49078271294921283 0.2930836488994049 1.336125179825441
Ni 8.679385183722596 2.177769103688484 10.189418697181129 0.24546450435954498 1.404021329446782 -0.04588930633294677
Ni 2.318598983833443 5.1306435080211505 6.847998981207296 -0.1693585652339019 0.40033207506612345 1.2933204259550888
Ni 0.4074212038992643 -0.06846117342539802 9.384711172114415 1.3811786205206535 0.7090539447234175 -0.9024250708218329
Ni 1.4246177568313043 1.1094815980152508 11.39699524903538 0.9728501575126149 -0.09497860766042998 -0.4832326685160968
Ni 4.060498706873534 6.80009067556541 1.6647191784822863 0.5134986664894898 0.7914202629364757 -0.5833259716952728
Ni 5.623953808413687 8.054801960480468 7.945443321029106 -0.7976616158604972 0.47750862154812596 0.647985102436555
Ni 5.1833600451023 2.7030050510460213 4.863703265165589 -0.3924585858553176 0.6223524894701152 -0.084227539791513
Ni 0.9155835568886511 7.385535453883768 7.004990036778621 -0.6485381467265476 -0.09162563202779704 0.26638299967976703
Ni 4.993843778735654 4.732001180837452 7.215701109947111 0.6525246421781213 -1.5269419149331185 -1.5163327719587048
Ni 8.307051537093507 6.992744509044122 9.40220941996239 -0.8579912659884901 0.2661677983451674 0.3681300364122821
Ni 4.580288991772201 0.3495141570870346 10.357098217727605 0.7469399211359136 -0.17573027308820058 0.12163580523664211
Ni 8.08026313727492 7.31998013643601 4.927834956616237 -0.09339429389244562 -1.816169423311227 -0.812573242865007
Ni 7.198931354692974 6.4023950281138005 7.168275160168717 0.5682991592691374 -0.6865884166310497 -0.8820657904391906
Ni 2.3547351016068743 5.125297021534212 2.694600338224566 -0.6150952936870697 0.2830607174457641 -0.809240064726716
Ni 2.440134629438696 4.99989351302357 11.323996324094171 -0.9338246681790369 0.35565761497688425 0.36612997526311786
Ni 1.0174192480690167 3.382928466626802 3.70620516953907 -0.39517752744837753 0.7923741422093128 0.3428203540028999
Ni 3.6573123169758115 2.8850560715253435 2.5365147405629975 -0.30434019564983067 -1.598839215294053 0.404698065344303
Ni 1.1710428285933419 3.2257525831077833 8.121501408004438 1.8254832445129852e-05 0.9520039101912249 0.3063477129981627
Ni 3.63799103444376 2.795527216862127 7.096621422046819 -0.546826076997026 -0.24437435661915977 -0.6692990334229828
Ni 3.9903181827347143 6.985883334985843 5.973194780778034 0.2985022488118149 -0.23383309076820372 -0.22725543755068606
Ni 1.108327550341848 7.239656615167672 11.465507813646232 -1.4314105200930123 -0.1592541298100483 -0.2874889284204468
P 0.11477184431941735 5.608581532764061 8.044411925020862 0.7330965874949181 -1.1538378223450128 -0.4212012052056488
P 8.623080279656959 1.6380895284185124 7.857453497130343 -0.02673304511947009 -0.3173322370341245 1.762893594706222
P 1.912112738869584 3.0737789301165264 10.314673441733872 -1.422824578196214 1.292614658137316 0.5642026206022606
P 3.791281023062492 6.351634962478966 3.7595429088444203 0.48333191309812235 -0.20510255560273064 0.688796480025962
P 6.965408004780389 3.95062976196659 10.474541502091002 1.5990091652130138 0.47686327465464323 -1.1681388123487173
P 6.339111742023054 7.8367590781868905 10.16934818526111 0.16248394960125565 -0.23489649903571158 -1.1767355528787926
P 2.2362288311443046 8.571076006374236 5.743244470654273 0.7050587075210953 -0.5771833491326447 -1.2485194675903142
P 6.716115675330445 4.1098883408962035 1.6933801327711988 1.498604758551322 -0.35585661836156773 -0.056399461835651254
Ni 5.379007189733902 2.857999063182512 0.5145880543709049 -0.5038192344181968 0.2828977095053386 -0.5796842611776275
Ni 1.5490836016073066 1.1576991523696196 6.911273251300594 -0.6493056210201914 0.8556541332148812 -0.13399561235357568
Ni 7.052574668112108 0.8700185089836195 9.106306186903392 -1.0769474396448613 -1.4853427513350934 0.5379922807554799
Ni 2.650964713773505 1.4990267837734517 9.204310980767907 0.46054088334553595 -0.6711404575070958 -0.5802969550609619
Ni 6.4291094285535895 2.0123976784888145 2.630257672433625 -0.5377593388090673 -0.41864424311174997 -0.6474384859044657
Ni 3.9777228342992146 6.537815309789682 10.322855459418351 0.6062810378295495 1.347194036045093 -0.2046410425852798
Ni 8.214637563246782 6.891783369616257 0.5357666323773395 -0.42370340280221225 1.0186448472492262 -0.5194749386775829
Ni 7.816923883800277 3.7772791790250326 8.305912816615766 -1.0547467351781061 0.27804706628125664 -0.7733569776768616
Ni 2.846566778417864 8.417894209724885 12.40041896426515 2.147240607197999 -0.3325169151943628 0.4031569461094282
Ni 0.18705940706194216 4.7436228015485185 10.24276996048265 -0.44996336494000566 -0.5514705177475727 0.24994825116251146
Ni 8.517584093512516 2.380962638184447 5.847452270763329 0.5618495469890517 0.542257483789737 -1.0703800708399889
Ni 3.7303959922930354 2.7909651221532057 11.409082996814531 0.284710080123729 -1.5577573576520785 0.5623449985682315
Ni 1.1899583912402127 3.2147170022308673 12.574762208525783 -1.02098763644979 0.7239318902765145 -0.37060395187407147
Ni 2.993193944922183 8.521136396507211 7.8514623668258405 0.6062018478521819 -1.5901987660102355 0.892038071160554
Ni 5.567252200460317 7.738899441881296 3.7827013998905366 -1.091874236158023 -0.07440669704634928 -1.7856807678040665
Ni 2.8711263554674713 8.443688978424932 3.346420889758494 0.6681399801178751 -0.2738823933806057 0.8209583816049087
Ni 3.5127948938744327 4.185099791611264 9.29157501687207 0.2346303898585185 0.6338527768002309 -1.0518987242063498
Ni 7.241378670680328 6.157736921352366 11.463423315036149 1.0547400503098867 -1.252933794607926 -0.6359042600126209
Ni 0.48808823467038864 9.064413354759118 0.11367189263070512 -0.29971092440793545 -1.2171406961687168 1.038525131112921
Ni 4.777387711993004 0.18140908146099174 1.609006625449012 -0.7667145326596795 -0.17149592329187882 -0.19202772469664348
Ni 5.793256208500886 5.557397715249149 0.2529465132158046 0.860184416985067 0.04814673490855579 1.5886674169673738
Ni 7.9047577309431825 8.718099876766287 11.438219094168977 0.1269235359981427 -0.012020164389327686 -0.33932416792418335
Ni -0.1730007622405571 4.912348177799015 5.9341753470205845 -0.06700963325132975 -0.3665220684952139 -0.1425627851972964
Ni 7.995828321170086 8.927135777608854 2.3798798168908872 1.192382001166798 0.04739751544735708 1.0233715633009344
P 8.541629758707561 1.766134724181554 3.5799081756812856 -1.3063574616447051 -0.7174946192916031 0.1864844262809111
P 1.8249731235302098 3.2925070282161872 1.4287912620501966 -0.709070914004282 -1.0442242383802274 1.369416337778403
P 4.524371775596847 1.0870948763507224 8.089251185131292 1.4078275905667494 0.35235631851779314 0.14181125174325254
P 8.514482590390246 1.6702135273273786 12.360580877939382 -0.9565038549441076 0.133614317754757 -1.087737845392146
P 6.4704567928522305 7.779823054299859 1.531309464237411 -1.194279475299827 -1.272570595002247 -0.47827866694493115
P 1.6842063553673898 3.25921996563647 5.845710380056286 0.8700703086402112 -0.143053865901102 0.36540363862005454
P 6.687426771449442 3.909498781606711 6.112384650987118 0.6803570910093573 -0.21173625886916436 -0.31876974081159937
P 2.5303306679130984 8.501598730036395 10.189471891566075 -1.189986761461744 -0.6537209764790677 -0.39843280116088153
