# total energy = -340870.9322057731 ev
CRYSTAL
PRIMVEC
9.24688958150605 0.00000000000000 0.00000000000000

0.00000000000000 9.24688958150605 0.00000000000000

0.00000000000000 0.00000000000000 13.53375759245508

PRIMCOORD
 96 1
Ni 5.218630116051915 4.479905349958154 0.5406480678997937 0.6171028110354017 -0.15344857887186475 1.3049973480723847
Ni 4.39399249835434 7.45885557427524 2.972716896013768 1.239649161683878 -1.9170222303642468 1.851194276125844
Ni 3.8164964999458775 8.295634358064282 5.003484584279702 0.09784513057494762 2.9731483623883825 -0.3134020487417828
Ni 8.076778974170288 1.7003273130729741 8.222042062210862 2.3410449641790905 -1.6524305182569476 0.7664630787705058
Ni 7.009789626014812 3.382882104266438 9.546022816495233 0.19460037051982615 0.5071480416811137 0.5092800004224519
Ni 6.356857501959603 8.646304153712915 4.467939874769764 -0.21278192652485933 0.006302030958627855 0.3690864867882805
Ni 8.372346554480732 2.622297691074257 3.7267776285680743 -0.8208617081260443 0.7612550522070051 0.05395177162610708
Ni 1.4893225384795568 2.7629521293204764 4.93949703269072 -1.959763992207147 0.5157548095135183 -0.23850684209478928
Ni 5.364277874701326 1.2092434983086455 10.563341572284434 1.0992715570633582 1.2414785015831329 1.377206780357099
Ni 7.219102219804925 7.350768681325398 8.445240710166669 -0.1309218585242584 0.8035432714522549 -0.5460909986032143
Ni 8.453460270363701 4.646303128949721 11.022000243852775 -0.7652942552733851 0.2987290201106404 0.2708495200915529
Ni 5.917556269154306 1.784233589625876 5.367826830943447 0.05614312285047105 -3.8704710789866437 -0.9141364457214902
Ni 4.976074954022031 4.550653302559681 7.956523174460075 2.0178410988555378 -0.23458873798730565 -1.567651476837339
Ni 3.122471198350323 1.1756772889316307 6.228654925296604 0.9462749781272477 -0.28292213498537083 0.420185876567257
Ni 7.400036109303562 2.7501266933959805 1.1576819170119035 0.4506843022664302 -0.4579733797286758 0.9468997561954402
Ni 7.551796062002066 0.0169162598992593 6.570490242587441 0.6317267315961637 -0.1415700822667239 -0.6157295848369589
Ni 5.4500057885124304 4.131436314042779 11.872922145339377 1.3897661050793484 -0.15057537108912777 -0.5145335355119074
Ni 0.32120828058083545 6.034178041237753 0.38238292834268617 -0.4899648450336078 0.9914731719304408 -0.8241930864921225
Ni 4.051783606722227 0.17044699196296967 9.019356045724377 -1.2918903783767814 0.593435549325449 -2.361176187711327
Ni 2.5494137069669205 2.9131401107809385 13.44436723536114 0.1716059665071819 0.19822742574945215 0.3607887655558625
Ni 3.1288977866470242 3.5571119987793076 11.138769966170392 -0.7886833236212869 1.0826316345138323 1.458745203352223
Ni 2.090795721712978 1.8188262037524363 9.999876804208943 -0.3143947516723553 -1.4600929756293692 -1.5542082068482395
Ni 1.4902472274431109 0.6320470991243747 12.023714873382001 -0.6689226239201705 -0.47100990119765984 0.6424163500995259
Ni 7.4041417283017426 8.16245140664358 2.3833756319821773 1.481880760928422 1.3833753710616563 0.5372590021338812
P 4.4291769134175745 3.2281908875534673 6.1361379451150855 -0.9811057126531878 -0.2962893003208962 3.01611946663327
P 2.4758731936954606 0.9816405568194314 4.137052874807407 -1.0771199606669837 -2.601817559650616 -1.7685430796825152
P 4.295032285474776 2.945494977615698 1.600529331992431 -1.2660150532719165 -1.26322283523876 1.037501060723781
P 7.000478008151822 0.4440791006799814 12.119588474501223 -1.0697882028922607 -0.555699725337572 1.2340343866002617
P 3.5054773670544446 1.4771443848295487 11.765233793332825 -0.6484579283079155 -0.9570520141380935 0.5971451369665522
P -0.24213997668524867 2.2266325304590797 10.163351641386715 -1.3498998650120302 -1.0358946354686096 -0.6748346185292313
P 4.076482048938757 6.764127509067385 10.360456491479987 0.28286171406108057 -0.8757581030536078 0.44678316743981117
P 7.292901645986181 5.093020367242722 2.0128213248612754 -1.4276744500893477 -0.38124857607211116 0.690881644689765
Ni 8.245590191356731 0.09726895676522274 10.3704449816643 0.13531098873088954 -0.22272412533923575 -0.13703259940768658
Ni 1.8129821695027741 5.864516110204841 2.0537887447025778 0.6450602154802761 -0.256135610920146 -0.2588473534243542
Ni 5.986584300283622 2.0233489087113394 7.957375737684472 -2.7602183403214333 0.554729905225135 -0.3726212394144163
Ni 2.1071812101471568 8.13563542670051 2.961768578685287 -0.2467405428584912 2.4342636517256206 -0.9032694210999992
Ni 7.57126076468488 7.913266224745012 13.365208311947125 0.05172416784716899 -1.3800619904177072 -0.7599196212250332
Ni 2.906158709106105 0.9437375562033475 1.353389562081245 0.31552423729110823 -0.9200718373693186 -0.5378637255974156
Ni 4.893463242018105 7.043864414321781 8.36076297583429 -0.6717557224935914 0.5500299286463044 2.290422514036533
Ni 1.3168403061078044 2.394630021357594 7.348857349237732 -2.6550666487827437 -0.49709657098238264 0.026529156638780114
Ni 3.44134094054233 6.94680906070714 6.695109649516668 -1.3055275095442418 -0.952334039837134 1.0510011520927447
Ni 7.4266024232264725 2.533240896994359 12.33576318508987 0.7264757397442908 0.11587010639745851 -1.3738316932372792
Ni 3.1615115663915785 5.042994694314443 9.190165515761059 -0.7107935531223435 0.860248694564099 1.4852553338276098
Ni 7.680669962852606 4.739511776475977 13.453610426240825 -0.2331160100965211 -0.021597266554801514 -0.37634548234353893
Ni 4.677233974780606 0.5458827321224736 2.990851895966992 0.29926123846502656 1.0569702251919861 0.3800093043483713
Ni 4.842216979657934 8.67454415465986 12.444304100320819 -0.9008566978934485 3.153911312804484 1.4192857118050202
Ni 2.7499879900514475 4.742563250055705 5.76515088355924 0.8073603312055 -0.7143869269005568 0.21901865146319052
Ni 3.77810341417911 2.583664186176966 4.317457842218891 1.4811261421505846 0.9101049559645938 -1.7474852305709518
Ni 5.8388467445765775 6.955122014489491 6.3489024028061465 2.19495462544451 -0.2282373418479811 -1.0603471120840189
Ni 0.8694619152058618 3.0187673310877274 11.710124180482927 -0.31525915655517966 0.8541901470748451 1.0290444453159955
Ni 8.389055684052154 3.659530548382563 7.151724758475553 0.9892368264007544 0.012816435038377927 -0.9316006639445247
Ni 2.01268724496156 7.5173144105511325 13.00641512375367 0.07091745294616819 0.29057656620683503 -0.2383399774996218
Ni 2.0255774091135046 6.771857908802697 4.758780445098518 0.2559990853422817 -0.06232534040178298 -1.0822341419650976
Ni 5.135861206924185 9.366914263010651 6.991634282904389 0.4222720696723244 -1.9530145892984558 -1.3089018253331135
Ni 1.9809149321738402 7.374394484344205 8.93468875015447 0.23621907450187707 0.1522386177241636 0.006857903462097867
Ni 1.4275995501623184 5.542123303061693 10.974185502236354 0.6543804644399376 1.4394429034791854 1.199584175342192
P 0.5270865795603088 8.209813975356823 1.31761704483719 -0.4574429611465025 -0.029770289283897116 -0.5281755517753742
P 7.108527913543122 5.1628621246599655 7.717246034805989 -0.7325484283009319 1.6609979482109845 0.5830408363546863
P 6.256750674765233 -0.04148339628296549 9.01004535255035 0.5650935078476462 0.4240055074236633 -1.5666993973367147
P 4.7752417580277084 3.607942151105878 9.936160186486283 1.633254716659445 -0.5034939898682942 -1.907537173691947
P 0.7853901193284837 7.942994974923277 10.854967203543248 1.139933810669411 -0.1564274589945306 0.05880807127714388
P 4.558078554937021 6.2149269929436795 4.838359177301986 -1.4759217151315096 -0.8138693359686112 -0.12346411669463253
P 4.263722317168834 8.279896151904591 1.1612345720098787 -0.44702562246792044 2.3229099451412765 -2.780650125813224
P 2.381841572991641 5.2084307967839125 13.259793770101952 -0.39751543155293473 0.402146759677359 -0.41455541775435706
Ni 5.081267570515948 6.553779263638091 12.681008755278295 0.06281873509843375 -2.2473254257367428 -1.6225244747261345
Ni 3.309091924974818 2.7095513416752253 8.098465704432524 2.4306188558841813 0.5855826289399334 0.4706697442494216
Ni -0.24852680335651706 6.097214087883238 8.967156429042781 1.0180558075149755 -0.8821886891702999 -0.08092084401578321
Ni 8.689043277608386 0.6213345774816001 0.10015491102047518 0.965888638593117 1.182475026465731 0.8662997858541854
Ni -0.0009894171910029216 8.724532840029594 8.224789313121581 0.5959873692130252 -0.10983469883665602 -0.07541791191968301
Ni 5.118005463037954 1.9608861692232575 13.226811964149904 -0.6685945511567906 1.1961851769629723 -0.43948791932997855
Ni 8.475079498331597 4.903486870383031 4.990559281947142 0.8920491269041476 0.7995104961437779 -0.4758237776465354
Ni 3.7627165898255686 6.224830411743344 1.173378512168235 -0.18509371658097154 -0.5898483461948227 -2.266100135241085
Ni 6.441318591890638 6.116225692973911 3.8352501168157187 1.0981253592740572 -0.1834806064575808 -0.22280125843407436
Ni 0.7640214820697112 7.000246835910933 6.525720501728005 -1.4882218726551015 0.1498945429720193 1.2736509725506195
Ni 0.2953696968722423 0.827228596173454 2.715873440119045 0.6129306819355831 -0.6498841192314808 -0.3523702024748641
Ni 6.309069576323125 3.8023580056931348 5.531165738843575 1.9597822470395925 4.19422464616608 0.648339143341864
Ni 3.1670227126143615 8.597979908477576 10.757429162289629 -1.9553825753100003 -0.02841120415284139 2.5003155490493714
Ni 5.957789485958546 3.2386583666209003 3.140454549313524 -0.38822346472804753 0.529586830300604 -0.3922117599518342
Ni 6.175415033531011 7.764622473853685 10.824001219531747 0.9585190856019234 1.660009101935154 -0.5029082925681533
Ni 9.20940274495884 4.455817202457569 2.3634005009914807 0.4529622996673296 -1.8143115441668816 -0.7430729819813395
Ni 0.8321266736134002 3.867160208259008 9.387556094744069 0.7051610374269146 0.6163978145485771 -1.793421330981434
Ni 2.2139180572102104 2.914730575798252 2.513976851816636 -0.8610639913765429 0.4686393440829542 -0.2540931265688205
Ni 6.226790752346079 5.67284658183934 9.991472306219201 0.18307437215809763 -1.4750796788461886 -0.07089945522403919
Ni 0.9346386168019748 9.425816949989049 5.7647449451042405 -0.3084526751563075 -0.18195979893768016 -0.13454942797451666
Ni 3.6632570449056865 4.833571137848702 3.0780639355645993 1.2659646596499552 -0.05625085207292893 1.3068786242554975
Ni 6.079265875100653 0.2623915896760477 0.8892178949121958 0.7703649849280733 0.009757850717712227 0.5410737478942811
Ni 9.24075894771296 6.774511766128098 3.052079250999765 -1.5576730254683884 0.6590837834528778 1.645275909490037
Ni 6.10733018514452 6.729729079623171 1.2330671847656542 -0.16152338546019923 -0.8384359695643818 0.44382331348053883
P 8.213346287197599 7.419731984227265 5.170815374435493 -0.3848355220924211 -0.08924607605202693 -0.5001914078576224
P 1.4520298325794185 4.938125718957769 3.9477560983223863 -0.7711188323749624 -1.948707734392986 -0.05553017185682049
P 1.815164435456762 5.456571080153664 7.665303481656263 -1.4322533277092817 -0.02003017917799776 -0.12312781640113633
P 2.005308227032398 0.2867580685546626 7.9434906082077426 0.3907066361612174 0.19883652008836078 0.144269483475758
P 7.3481333177792685 6.244452311549963 11.965506627815234 -0.6135477466942917 -0.35024184327795166 -0.42233943257515005
P 6.986644661257051 1.197056097769002 2.7742176149634568 -0.15637012339403392 -1.052935135890664 0.27838439501601736
P 0.29192338110507604 2.6998513544475427 0.23921148673767273 -0.3519457133429358 -0.33759844348232826 1.002424785845938
P 8.680998483625466 1.9334876352331487 5.662848844765393 -0.1477834101662874 -0.47573353192557427 2.0684694625353663
