# total energy = -381173.4675419729 ev
CRYSTAL
PRIMVEC
9.20659836203112 0.00000000000000 0.00000000000000
0.00000000000000 9.20659836203112 0.00000000000000
0.00000000000000 0.00000000000000 13.47478732005217
PRIMCOORD
 96 1
Ni 7.637176927500035 5.099019108624165 0.5956392761692058 -0.9837804312718734 2.6926901155624723 -0.17842504631154432
Ni 5.3562790788545644 0.4607911547088175 3.588753107888953 1.0578099474844622 0.46748723275638204 0.7028758409371637
Ni 8.892008626404687 -0.012596467497020068 10.647682022998376 0.42679438302271006 0.42481771891231357 -0.8857573803581648
Ni 8.565202014256082 1.3314858345428544 1.683108831823909 1.0904513876685673 1.2033912077931082 1.6200238197914683
Ni 3.710590464938591 3.8883790805174203 4.117207234548216 0.5095574224535547 -0.26890730876351754 0.49334841679386005
Ni 3.589882757473725 5.033458923675853 12.27526125848529 2.038232775138012 1.6740262421498526 1.1588136782930494
Ni 2.0586689841204966 1.4095854060800719 9.599829379554187 1.1493980414061045 0.6991901645554603 1.5500967557830274
Ni 1.7532677125146277 0.13964660038119434 0.41266274257066365 -0.7232024683096576 0.34916403683274055 0.13634431509141035
Ni 6.831461496275279 2.9147629200548666 1.085508550263046 -1.3468268825136613 -0.11831393995226078 0.4684760790322125
Ni 1.7837507587671007 2.264068187349935 5.331555680362752 1.235080568476589 0.9219883376657411 -1.7301955902525685
Ni 5.2368695017193865 6.625086393649053 8.146586285365016 -0.5902579229284156 1.1032439114475452 -0.2364414749253283
Ni 7.853624048428951 5.835519335461699 6.199088814415121 -0.21687717964015554 0.6710586964265669 0.6909171259133907
Ni 9.17442102259756 3.8413517775099812 1.72777740440251 1.3834730729817852 -1.7137315311592745 -0.6550222117889944
Ni 3.259623671044033 2.223577568981353 13.154113904880582 -1.672159878365075 0.1137286345744235 0.6210435408507046
Ni 5.666790012396441 4.888298491702812 2.5064990900482114 -1.7362736781258483 0.6213585009879622 -1.1239873146424837
Ni 7.7463579741651145 5.0817199108264015 3.1993996303445686 1.3137177586645181 0.011234178152922587 1.4229055679457947
Ni 4.302924572396036 2.8628561200634914 8.390156964905955 -1.2332275744282504 0.16709213779722834 0.47403043319153854
Ni 2.2481591858626886 7.049842002801603 4.288863335144027 1.4733848076422689 0.5836051934985885 -1.3110270992062325
Ni 8.796959707796855 2.8161694611851193 3.8105750407786636 0.23071999906051877 -0.46705991541097625 0.7247538719571776
Ni 3.0014614542015106 0.014410167319350834 2.7605257030318966 -2.2420394947474547 1.1056702615008505 1.5408083885025656
Ni 7.06699389503004 3.3771182757779683 5.811985429442197 0.2920904317482002 -0.3187031492397221 -0.8319349352210705
Ni 5.150916702017457 0.9788823345659712 9.70681833521573 -0.05725409652646268 -0.3422364564749719 -0.5996043971403222
Ni 1.5029311040425677 4.717064973959005 3.875294663322007 -0.9424862005087769 0.14495185425476326 -0.460047231538569
Ni 3.8603265761588323 6.102298928109814 5.954278926772225 -1.2818029122337924 -1.8712583938655707 0.4487857996921368
P 1.3931608351001834 0.698224715967697 7.847204287585746 -1.4301177694235176 -0.9975438036045529 -3.017802510762648
Ni 0.1659010561341925 4.184095010940081 5.912022482891342 0.9345731163092871 -0.3977293473359537 -0.8996153692871797
P 4.465264516391764 6.905141900732707 4.005905908344646 0.8730479032112963 -0.2936819446050361 -0.47960998416184497
Ni 1.5451709760469003 8.093050838172777 8.998651413978312 -1.3948388916165655 -1.152318814597325 0.8425610474763489
P 1.7161743288386344 7.9086334719742615 11.286791172675787 -0.5436636201086444 0.06730968099025182 0.17165764568072372
P 0.2844350857916868 5.881230094943284 2.2495217623789574 0.8558202264791003 1.291683147461982 -0.12437223033119871
P 2.360691434229942 4.0406009732200445 9.792854914960213 0.837640727356596 -0.7981596385428382 -0.7211761819082483
Ni 2.852498697220232 7.210543172338575 13.271128845854397 0.7530208372226709 1.1379499474701626 -1.1977178115574147
Ni 2.6604398546129118 3.104796311083949 1.847070057742035 -0.5384499371181888 0.7566532917689356 0.600629753081043
Ni 6.578814031684412 0.3505209674905318 11.466814229609337 0.8876278579080004 0.8253793934907399 0.24013383617525091
Ni 0.2038092237405221 3.320691036127891 9.85202295885957 0.5970510345908492 0.6949702129368418 0.8777314247298948
Ni 2.959562226326245 5.598421815032845 8.373124758452596 0.5302720292930868 -0.17708447312324985 -0.7525187007752717
Ni 1.7193782249714828 9.030393002188715 5.728886675145966 -0.26109886846269226 0.13226011771970772 0.5342587818549767
Ni 3.9861531521577893 2.73218687347293 10.838121425002914 0.16241273004368803 0.8534951778903495 -0.18049067059132143
Ni 0.6648185748239043 0.24305326872868008 3.676757137643752 -1.0051650675952368 -0.010590631031652729 -0.12955531719403493
Ni 9.118610625019038 6.972699917465007 4.460060026495502 0.7843317315208105 -1.1863221681259635 -1.4300452643143693
Ni 7.128273011869805 8.016866239036803 13.307308935000568 -0.867808509189228 -1.5862888894328682 -0.2119990256122478
Ni 8.530032809579414 0.5676217568833327 12.96304108892794 -0.22686103032574478 0.3286265790010211 0.1841591205818441
Ni 6.643048466508786 1.7797458886010404 7.713588008948849 -1.2283795023073296 1.5029936316476373 0.6833256867193779
Ni 6.5139627547884835 7.766980753870804 10.051948839528725 -0.5589241458121407 -0.7201690807999725 -0.4826500565397494
Ni 3.879338201200015 7.938812700489999 9.604383883625797 0.18348214911947755 0.5290993491412243 0.8155734631439115
Ni 1.4528564170696894 2.885329425983844 7.861163331599035 0.531992097307987 1.1437177031918755 -0.9153245524923205
Ni 4.463386370382853 1.4181383356990835 1.7113252136283725 0.30748825436050914 1.9777041216253362 -0.5380982102057249
Ni 5.306747581168576 6.252044245928138 0.22735233635810706 0.2527109015093132 -0.6956546405983761 0.46066506762822595
Ni 5.912256330482648 7.152256199875753 5.985177190598236 0.1251088513869071 1.3014556534677135 0.618824935932831
Ni 6.396247191700558 2.973510222421834 3.5406219337713742 -0.4795202526615161 -1.110869803423919 0.5338558899896032
Ni 2.0497846169705007 3.6933465067293243 11.893911076654367 -3.172027305678905 -1.8268125048473698 0.12348339996834218
Ni 4.8593069143397685 2.4546539742639917 6.095050573439148 1.4283164545487208 2.0079636918408257 -2.1465939747529355
Ni 8.00360873779743 4.879257612385406 11.036214271993765 0.11212040954703917 -0.6807270727542664 -0.7497413951404507
Ni 8.107247412416605 3.786360767160836 7.8196618287609505 -0.7751441514842715 -1.4374410425578084 0.4137465486998165
Ni 3.259273820316883 0.39150874215559056 11.3734749762655 0.24881105223427472 -0.9158326024769905 0.7548784592566999
Ni 3.999180488445089 8.724816805219271 5.222692261331532 0.03656802893202089 -0.21136627712425535 -0.16409268884927225
P 8.66722953421075 7.256705055126222 8.282452656573373 0.9949451896394415 -0.4107095616457056 -0.1425933813249157
Ni 6.581741729874773 7.0830870284789444 2.2567710377094303 0.9261290993069922 -0.3582140628501508 -1.4040786650472787
P 4.726096646678327 3.8350544644212796 0.9489700973946379 -0.8373188252408031 -0.6201266854633901 -1.370808075919607
Ni 8.826227483102386 8.24406666652654 1.6214347519263885 -1.2139828672660253 -0.9124356609802996 0.5311829711431303
P 3.4404136375978873 1.7314388684600783 3.8415672119051205 0.4088683946719087 0.9489216717214752 0.6010354731598939
P 7.5786321702908905 0.9668953438620389 4.194337351307305 0.45889203488820324 0.233151748430463 -0.2748668687810621
P 2.3232389932287156 4.2061356067505375 6.241534914216511 0.6967172775349355 1.5816997274002889 -0.3362956655105047
Ni 8.530944262789621 7.052419850264814 10.95117476682166 -0.07086680221389084 -0.6111044273601217 -0.6602808890847726
Ni 7.1067571921500745 7.921136032170836 4.196682271839019 0.19705166027379611 1.4687452519877284 0.3297090134319225
Ni 8.958323752395795 1.6128210587600296 6.03527581472613 -1.4340160760366594 0.08954380979810385 0.8610015135697235
Ni 3.260608777038903 7.929468003435858 7.382431279206076 -0.1378941760770335 0.5189573756112159 -0.46972177851385555
Ni 0.23519635792473553 7.2729454941444525 13.025645035231832 0.9588073062663036 0.6238118476244611 0.07248608298486871
Ni 5.64540308504987 4.492203022382322 7.456408136121771 0.2291660243098376 -0.13409845648002713 -1.2456146352386934
Ni 5.925688757085595 4.073183123835418 12.06893587148871 -0.7967270198613698 -0.37287603573769973 0.4055066772885274
Ni 4.930078033803 7.699174158990266 11.768743693078145 -0.4907408039676839 0.3302494593164248 1.0388709444881141
Ni 1.7846345921830586 7.523033524468274 2.0144671860646985 -0.7597542992917625 -1.4601454261338596 -0.5234236389126857
Ni 7.035396850409537 8.547414866759924 7.880284515157404 -0.31578777536514 -0.05417905714556475 0.526493793197577
Ni 6.53273500827951 0.4433207141867116 1.4886268126011701 0.18826003012409515 -1.0225701504455615 -0.47311640601770133
Ni 5.395766178032111 1.7987483070441403 12.844975675112865 1.2320662071302972 -0.46085841458595467 0.14161070569667225
Ni 1.4093184147356679 5.664147718746649 10.918377181811145 -0.1840436780499024 1.4154216008639235 -0.2186126742740235
Ni 8.675009109590798 8.532739549415787 6.139422693559481 -0.9344288774219391 -1.0389331651846172 0.35332382463738504
Ni 6.2204103749153035 0.45148144272739177 5.970570002079911 0.7335285328260142 -0.3945013273169593 -2.0056792666820233
Ni 3.303281359153132 1.294677855407431 6.84420803132105 -1.8438020974268312 -1.7316948005059143 1.740467918712854
Ni 3.45154441468011 5.7105673862806166 1.5674141170151803 -0.05412120732443582 -1.1968022417216808 1.135649324361444
Ni 4.516490028125005 5.738012255165734 10.178854428822996 0.7095288274773071 -1.102251722737605 0.9052442854381829
Ni 1.0122654592145568 1.5248796338721946 11.707312667370013 0.49711328315293096 1.0353629313348556 0.9188181674678757
Ni 5.936810327569735 5.224560280082552 4.777809187450154 -0.6103948028876068 -0.40716452460692454 0.10605774829272703
Ni 0.6553007937258051 5.232533194022341 8.034678244347784 -0.6089758110528931 1.0186479325730198 1.1607834004249105
Ni 8.537480947428477 1.4478480277125934 8.776815671191475 1.109601478234457 -0.5579424986251617 -0.09023183700406395
Ni 6.232019895097836 3.585914713699996 9.5679340411558 0.6683248424351717 -0.8117157799607181 0.9907820594006871
Ni 1.4169598911444725 6.682848590021151 6.315605678432653 -0.6454050004142047 -0.7421273302386187 1.2744809246510826
Ni 8.210895293633863 3.348274003984251 12.734131916834015 1.9279540467854022 -2.034546584535677 -0.10914770007196042
P 7.750639042273661 2.2675022484348557 10.877117812502641 -0.6294415351064128 -0.5783349462385846 -0.02876755905099562
Ni 1.476250382798331 5.391715274875636 0.2620639731100547 -0.9536792410111189 -0.9362751866020584 0.48674968053041967
P 6.523648095971691 6.131437811042184 11.940816852567114 0.5603225688215641 1.5127797645001237 -0.41667143565609527
Ni 4.5117946631027275 7.9418784976516035 1.9790153388268856 0.7945904331343412 -1.232723381098322 -1.4446609573450153
P 4.926699212306577 0.12205187078496933 7.675750732147758 -0.09648013190662094 -0.3847956699934212 0.8606798685642467
P 3.9351393921804556 0.10000667167547178 0.10872992335901695 0.5181191959806367 -1.0479019443421307 -0.7092488343430431
P 0.9005351055403236 2.2044094317727607 0.4785359518537938 0.6996732748394661 0.9324383293544716 -0.9616972262195889
Ni 7.22558675360603 5.6941059889083965 8.760201444291079 0.9732821028437108 0.6981414115759719 0.689721820053709
