# total energy = -381172.13039348164 ev
CRYSTAL
PRIMVEC
9.21081881415010 0.00000000000000 0.00000000000000
0.00000000000000 9.21081881415010 0.00000000000000
0.00000000000000 0.00000000000000 13.48096437833892
PRIMCOORD
 96 1
Ni 7.858081108022222 3.053727232598746 1.920983499782125 0.5858554229853459 -1.2932422644189858 -0.18830296754688858
Ni 8.905102513509988 2.4170201722084395 13.175930762908003 -0.7065509757959058 -1.2674170758257657 -1.5337023735854038
Ni 1.1098944546186889 6.08817622144844 7.0653326452539655 1.1826948557860213 0.5018829366274324 -0.09036296326528953
Ni 1.7567702589645384 0.2777218452213406 2.2506064667794585 1.1934248406090155 -1.5836529944719175 -0.2753196400477645
Ni 4.31094873392841 8.410601284577684 7.985772531214694 -0.06736521681853559 -1.1464885810687933 2.2789489661792945
Ni 8.238441870381068 2.668724217564541 5.95231756522573 2.1855796119875133 0.7009948218643669 0.553494233045821
Ni 4.873158691861801 7.878068584818897 10.72925728065384 -1.0431394899564808 0.2134038763795744 -0.7188395633552717
Ni 2.8837415716390042 8.112133912172403 12.570581014041474 0.9688274095064671 -0.36459811199962366 -0.5973842495605518
Ni 5.1252772240639155 4.591998447982303 12.592825141444226 -0.3955390245528543 -1.2392100172639304 -0.3478453180213171
Ni 1.4794417157059712 0.7311234795847752 12.850540167149413 -0.5539413478855686 1.6195376241836688 1.4787447864026015
Ni 2.0434569941242215 5.123287687203049 4.992054704181856 -0.17979595851714197 0.26837637596071195 0.5931848667672236
Ni 8.807559942414693 8.292850177034508 3.569058728247952 1.249124962384797 -1.3150724729201997 -1.0122728822846114
Ni 3.1380614895343943 4.386237966802153 7.32215882694492 -1.652868634235631 1.357331638699727 -0.6123424135322809
Ni 3.70192939485184 4.427649808128352 3.493766732128569 0.40915018757838567 0.6465370571361189 0.4441642417597254
Ni 4.3964803973081 1.17298856340082 6.958563596966399 0.22911923023230218 0.7992063346397977 -0.5187946247811065
Ni 6.9206776570769595 6.33716307525845 4.7070139423417885 0.4351787504316635 0.21862398712793313 -0.36742169749134784
Ni 8.007885864990481 5.400800446837623 2.4193072185165567 -0.6652454321788994 0.20341334082576581 0.6089670693021447
Ni 6.127239303980559 6.080890463777394 7.054858102114252 0.35286899648815356 -1.1876779108229094 0.19557430439732124
Ni 7.1320935810005 2.42147820850779 8.46376705177496 -0.7200983754630372 -0.9038818578730174 0.4545031617918882
Ni 8.806077000587841 3.195325150015928 10.141595067129552 -0.060110849248967445 0.6974279304487151 0.8942859866544662
Ni 7.002663155218528 0.8047096320623407 3.425148895311891 1.2650218361207117 0.6490801352729467 -2.050852777894868
Ni 7.388734625233568 8.667012058340745 5.182837472910821 0.2323595915464708 -0.31934566791972746 2.2501567245379506
Ni 3.5726279205330727 1.2702363882945047 0.7924970074150081 -2.270144223403471 -1.3413553178761288 -1.0164709795263591
Ni 6.589640829393777 0.920685814822698 0.7898129748165975 1.857921824657665 -0.0463724166169524 0.7390155240825143
P 1.1818862143619207 3.7969389907770488 11.75978210967025 -0.8904280463609567 0.5670544882287589 -0.43935910706159814
Ni 3.9950176490777394 3.0145167769658214 5.537049641777465 0.5999936621589408 -0.4149881344164014 -1.1007558549183687
P 5.5266662857438735 5.8209980005078155 10.7943427684606 -0.3947188426444041 -0.6753871485985917 -0.6696584736449306
Ni 2.7765276408033825 0.015735762838451503 4.4893226875695955 1.5340744122128418 0.569837964511167 0.4563695255766656
P 3.138208862635199 3.533868795021363 1.6860781457540306 1.6849158924791627 0.9795663931905259 -0.8884536962434053
P 5.053893378361505 0.8207668524769229 4.168772377090568 -1.8249307144436246 -0.7470358232838296 0.46235942461151336
P 6.154530960085881 3.8159777532372923 6.2729627471384015 2.2793140628281967 0.3486305329267738 -2.3177160596451634
Ni 9.6368191698255 0.9150128715235863 5.0383353843259 -1.4139218763899457 -0.2376609491547262 -1.8028061146304437
Ni 4.800264271876139 6.787019465465645 12.792343450723408 -0.1135075197025529 0.9079082054235911 0.5294245936911269
Ni 6.44139270080277 7.19632983131387 9.029387775910106 1.0286387252371445 0.9998714232964652 0.14154308568353044
Ni 8.132812200379101 7.1161680752947625 7.065805160258422 0.010115748277763225 0.22811958532319426 0.3454333661457148
Ni 3.293926965273259 6.914276138010743 6.466926011599113 -0.6745800793162641 -0.535633036494684 0.030921629279520937
Ni 4.388264346938222 7.457299960383085 3.564029621182982 1.249389014679461 -0.24162224779531935 0.6879346462462991
Ni 2.211904448344311 5.82408362480592 0.3516672196321182 -1.09535113896303 0.2402127690423024 -0.9015190140677958
Ni 8.995608019041844 6.912222125418273 0.7435009778886331 0.30013309954701856 -0.04412038735798208 0.6188717300103664
Ni 6.914165608185139 4.795050948435161 9.216503717674666 -1.4398370535938108 -0.15400599403723156 0.6529671290321786
Ni 5.1132571055295095 3.495855745832479 7.904994571417846 -0.2686270585189373 0.0578639621963197 2.185212715566398
Ni 5.2539892059794635 9.227029841399661 12.754731072152335 -0.3748897237336189 -1.8636648977890293 -1.8733160477255482
Ni 6.461720977895057 1.648579981336084 5.591324391558298 -2.54894822245541 -0.8461343666499039 0.32692887958362404
Ni 0.3470977324252839 3.7563653339616785 3.954411754396568 -1.3363992594224339 -1.8822609156236616 1.6829199450950563
Ni 1.9441735782756684 4.5196382554870596 9.540464794355449 -0.7001445580489296 -0.962937012163961 -0.21938297678114474
Ni 2.5013912724192893 2.315839327687022 3.4799219503898207 1.0782206499303302 0.2281445250238587 1.0089636154057207
Ni 7.694920663793511 0.5103769962165189 12.086453009242083 -0.07960186809404356 -0.01962214510630169 0.5212623695953088
Ni 3.944312091582027 3.9226666674012955 10.561702354775502 1.0268772624613478 0.9982729684610938 -0.6703179616058004
Ni 4.702298003116029 5.222948746622415 5.483813872357306 -0.163530388587899 0.9836037964846932 -0.9184168182643989
Ni 5.099772466805855 2.2219166083802495 13.048184995884608 2.586554205733642 2.2807726496515945 1.322289045273297
Ni 4.055624836783786 5.8960845953679515 1.573646286068033 0.614258142497755 1.3041072321579477 0.22920330530567623
Ni 2.0726184464460067 6.833202510930405 9.27882688092321 1.2059468843354262 0.11594929637482612 -0.1703661805628098
Ni 6.469006735566103 -0.07318179753223185 7.462522494642861 1.372219868665469 0.5077345103122031 0.5299822659668099
Ni 2.107794563444395 7.2141527656924715 3.296769423955035 -0.8846790596923215 -0.7685220181820636 -0.5547805559574123
Ni 6.85202021373944 3.650247490563294 4.015588170704475 -0.623169843165088 0.5315179858850458 0.7260587068115302
Ni 2.0142679093460356 1.9145700066514681 6.143342578489143 1.0782509889476333 0.6044959209046686 1.3869211794313856
P 0.2286346285888426 6.000958978228294 3.913834413253677 0.10838151132989723 1.4164729249465735 0.9324563270766005
Ni 5.303414459661933 7.899050830046006 5.8649474224135 -0.3684951330611847 0.3869155445499014 -1.2292068833046315
P 5.868470560604619 5.710624758823687 2.9603525570105917 -0.8563611865842349 0.47856148829267264 -0.129623451427809
Ni 9.313519429934582 7.883935876394695 9.243708792083265 -1.4646916507436452 -2.2146379628060506 0.04957986781065654
P 2.4433170598833276 7.855225754194125 1.1380795601476408 0.4896640259637373 -1.132998002781526 0.43290409546487385
P 2.630711168375657 9.069985380854355 6.729616721620226 -0.6701384986051426 -0.7758938851661025 -0.49798437290397457
P 6.907183807534503 3.4819842527192106 -0.048745495255006474 0.2707399910968821 -0.09485802292216566 0.07316254022660304
Ni 2.047878187148371 9.25954403176476 8.813611450366496 -0.20307164121563087 0.5087678366727237 -0.3708608050798839
Ni 6.478613619574828 2.618230508901236 10.99926690729368 0.18793144314008278 0.12007900227248354 -0.06887034060915236
Ni 6.5600188361319764 5.788198274759908 0.5192166190191775 1.0945556396449279 0.046091395041423844 0.3823875747725608
Ni 6.464226320608741 9.56184310479097 10.10658474486957 0.381524198331001 -1.0383562096352246 -0.32738679305664903
Ni 7.476449252668931 6.856404563488388 11.193271620438994 -0.6969587041217804 2.2171291046590205 0.16420273206457528
Ni 0.3606929009745431 5.8363616462667345 10.84733629334631 -0.1583089922879596 -0.4024401225480617 -0.17281335655172175
Ni 8.853328501033438 0.6925052796007107 9.779118951635269 -1.0302495213676903 1.0629035599572856 0.5489068707854547
Ni 1.0707116314421654 4.8860998922762375 2.2332293360307918 2.3935700306610004 0.4956870922293657 -0.8152813858247894
Ni 4.194597670842881 1.7025830119623082 11.206402563720719 -1.419301138423988 -1.9395085843922208 -1.8495911933047824
Ni 5.357979350234976 3.9658930400311556 1.7622184582849223 1.1664940776564425 -0.22204869653876597 -1.164161315758208
Ni 8.284145953268213 4.989721603779738 6.215236703553091 -0.2005288201891192 -0.4842287138807789 -1.8086422616962463
Ni 9.170853057536563 4.561575113484876 0.2778213220643839 -0.24979398497283434 1.0116306207149222 -1.0831540826762054
Ni 3.050107380810223 3.1942474842162922 12.68116610455801 -1.544777914673275 0.5773052194224897 0.7940348177411873
Ni 3.228263038045841 2.437910309247545 8.722453818863578 -1.5860839725109137 -0.4322114402732234 0.1735209241417076
Ni 4.3850129279017125 6.064375465668436 8.634058511918871 -0.6413123184020697 -0.8824380861769447 1.1021853882760437
Ni 0.12984675479174582 2.2571848335666407 8.066078897088968 2.0259668132864657 -0.0950804233456169 -0.5129448508685489
Ni 2.5924402162603646 5.893643728385869 11.516639520389036 1.0151018670929741 -0.38177205267574893 -0.15471638984069483
Ni 1.5458609300750146 2.4154635438311867 1.1767548672082673 -2.089778765536104 0.4386399695073865 -0.774027521381325
Ni 5.107656927698921 1.8004663833532142 2.1879609248729026 0.09635774739614372 -0.30457493736845614 2.641924712084147
Ni 4.6697101262005285 8.465635926909544 1.4296968466111308 -0.8179172807857398 -0.3056108348321382 -0.16014758815859517
Ni 1.5791488292193387 1.8518443306213497 10.315108471689811 0.5362981808825086 1.259243795986354 1.2658055083642714
Ni 8.709860787399792 0.08583193607257913 1.4036108866867696 0.32620048605803176 1.03145691141223 -0.5001081041151968
Ni 8.970130894240183 4.988505775698096 8.344325758981926 0.30214190244693123 -0.749542134645451 2.3620884151129515
Ni 6.8479766642861035 7.767594024127965 2.075003127433407 0.08030326503644235 -0.1705160758771128 1.4849660847219652
Ni 0.12039092821134643 8.072324753317458 12.211758830365277 0.5086760482898658 -0.6045949083763782 -0.740126497758506
P 1.745155416457346 9.027136651795308 11.01878739557718 -0.37529261559899235 -0.840680028403552 -1.803180724361043
Ni 1.1096365516922801 7.8594903632986695 5.497766420676018 -0.3406608844577359 -0.6451733440193728 0.08782836976889391
P 1.0424436285440106 3.764912973808367 6.717942008790832 -0.4897501579196403 1.0632514302150076 0.04277775728715859
Ni 7.591768704048827 4.695647791942204 11.662880611563457 -0.11349286441453359 -1.2878874278649755 0.9185677420199664
P 7.115375944877936 7.895357291707081 13.471528044175107 0.19516344211214776 0.7900164406104137 -1.5345814337562473
P 5.008631414776776 1.4859629754165913 9.235134440862053 0.6740527460578843 0.4874978715503539 -1.3711934842834836
P 0.5403195259725704 1.7319102590224986 2.973253229822307 -3.7745259936478868 0.8498470396148008 0.7332374839481566
Ni 9.024576044168823 -0.09518183823677495 7.170349795805713 0.5844035210301677 1.8359833727133605 0.39821965670881093
