# total energy = -381169.7133926508 ev
CRYSTAL
PRIMVEC
9.25657276372088 0.00000000000000 0.00000000000000
0.00000000000000 9.25657276372088 0.00000000000000
0.00000000000000 0.00000000000000 13.54792990841692
PRIMCOORD
 96 1
Ni 0.07423956292570424 1.0795107438665563 1.073720757755234 -1.2360293055431038 0.7854020817668538 1.4705730492250866
Ni 2.74140800440771 8.596689978286905 8.004198061392115 -1.5170886762881228 -0.11472673682163467 1.5143147130874113
Ni 6.212150614246602 1.5672580630956536 5.087451134651422 -0.48668823116486504 -0.19656932132073887 -0.17416884213835165
Ni 2.5836297258026093 6.68606861413067 0.42005122741785184 0.7698157972928226 -0.9444692923770766 -0.6122400836264618
Ni 1.989385539729764 1.8784825443664486 13.978212239672127 0.4498805754182123 1.3310559928326495 -2.814929358711068
Ni 5.814266101042633 8.552341739343108 1.882593388222625 0.9565565625589139 0.9720132634336163 0.6916352350263378
Ni 1.6623600891671588 4.415135164629551 1.2494604896783361 0.729493443524692 1.1033580684279063 -1.4073000001980538
Ni 6.745208855961588 0.5424731016251795 9.803254585249848 0.2050223371840985 -1.6585286607348853 -0.6175440123378784
Ni 1.1926538297797358 8.823698162769832 9.898077062831247 -1.497988208013246 0.36208562999041516 0.5073732703180424
Ni 6.65719736444048 6.512341261073438 12.294014044615547 1.6506088916671766 -1.2335921568565207 0.6220231311551545
Ni 8.488323283794097 7.2277262117168295 6.022624143212063 -1.4644543379218584 0.32090401354578285 1.265796509503207
Ni 6.305197681218645 4.161579130158978 11.474567631358447 -1.3287821091968084 1.1500580435876067 1.036771124536292
Ni 2.925798929008098 1.355208499805208 9.875952928850955 1.3367201330969622 -0.6797245996316811 0.17615193400665147
Ni 9.494651565316744 6.220481529514692 10.042348150815018 -0.10303104565126128 0.5123745801873757 1.8369485648401076
Ni 0.9347749759422762 7.998067433412053 4.87403067297075 1.173507018639166 0.006369393861453546 -1.8433557539180316
Ni 4.248701990718158 2.9056103443417602 6.359642063810115 0.9081586308715004 0.6118862998314688 -0.9100761596091873
Ni 9.20379154359017 7.044612694124216 12.694938416235116 -1.169677874701063 1.6148697863943542 0.6978107677094305
Ni 8.197898320975968 5.140183976983928 8.080852664088313 0.4403777781340996 0.1658801197669982 0.01057366175078824
Ni 0.8769130667763845 9.343584301788717 6.665866144605553 0.40513849531583135 0.7648918776286441 1.1983433609565555
Ni 2.1312517701728133 0.7360715389113103 2.3455127286383104 1.0488761353299418 -0.959574009228999 2.1406382713901326
Ni 8.159659419895435 4.207306598408271 2.2755237838138362 1.2414836437894556 -0.8365217832608044 0.8564930841764088
Ni 0.6290877763530051 0.9504926360814056 12.264087545658066 -0.28804325826202004 -0.22941927797122424 0.006566340363608045
Ni 3.2720965635575507 9.119103161603777 4.4184943747970955 -0.19911008546472161 -0.16400989932747884 -0.7030992698018794
Ni 4.135438569362217 2.3529003991666024 3.8931468579913533 1.005449688715191 -1.4532926648780842 -0.0910767015028625
P 3.713329605873147 7.674142934643681 2.2399202289297766 0.15081088413870156 0.37276702096366127 -0.31582762746413995
Ni 4.0484360442458 5.228084389634795 2.160827445031784 -0.37978921791776526 1.6400511707559884 1.248370600717276
P 4.773744040630738 1.1315882208646375 11.218972373961694 -0.2555666257905534 1.0777745635318472 -0.6857520367726835
Ni 6.389413978006513 6.823269532023589 7.769967899029006 -0.2669203602404758 -0.28066933439545216 1.1421326180929428
P 2.9762842755327217 7.775604226036495 6.132022945540862 -0.2399438316516319 -0.5588971492289472 -0.851700547883772
P 2.8021681464296453 3.811153064265561 12.886154211754574 -0.18469005338464967 -0.27454908043032716 -0.03938210134204831
P 6.994256939614873 5.130464575837823 0.8451121118835816 -0.9111763346519017 0.7040536632953488 -1.936473140000007
Ni 8.212301547817242 8.679054960570754 11.430753496649059 -0.9049496370158996 -0.16906674502509592 -0.7184346146073692
Ni 7.811667832574804 2.425184973976062 8.255769486714378 1.0300602881750196 0.7733958013345971 0.119951989776316
Ni 0.9632852193041835 5.153272770527348 12.380531525331913 0.7471042146279198 -1.796044627536894 0.4951445894623344
Ni 8.63872407410068 8.239191890988131 1.9807889608303473 -0.7740545179645185 -0.11504323962078898 0.6353360462139768
Ni 3.2014966849467497 7.689212634706403 10.114071777329757 1.12219242752559 -0.04028378722071126 0.42430812626574665
Ni 2.8332517169521405 9.119112418176297 12.430266163825156 1.0053756409441459 -0.10188047698658582 -0.9979271550859007
Ni 2.571679490679161 4.597165663237314 6.330432949222941 1.0005856757546703 -1.504440905617125 1.0832481850519087
Ni 4.70813345460827 4.930309708235705 0.023376548242259983 0.9056384355528081 -3.2424989293369064 -0.4683223270631676
Ni 5.755690510135442 1.5489948455134968 7.655664038921805 0.5201542241327946 -0.6125560722049838 -0.7687559885697405
Ni 9.130099969757655 6.122361860801634 1.2315212521343828 -0.11696642478543083 -0.8092356938513418 -0.4872273914977867
Ni 5.083080181107431 7.059275104996054 0.22494674578270077 -0.4229086748150587 2.508460032533377 2.5123650240147377
Ni 3.6366481591166404 2.8932435634549067 1.493618326069252 0.6652793707406284 1.2703008251314638 0.97486410261885
Ni 5.286585927961825 2.5572947769829257 13.234741922345501 -0.7114833801005167 -0.28490985483936093 -1.2120601963220157
Ni 5.914033439664269 9.237494724135853 12.600021521614014 -0.24637081822389825 -0.6298534258328506 0.8853172074969528
Ni 1.5089971956541457 2.8919198735845324 11.050788782186752 -0.39720381384978687 0.7601075688661232 0.389957930920651
Ni 1.0695321586898887 6.71657827715692 7.571504207226311 -0.6109157083880833 0.6725039135135257 0.27933056097937053
Ni 7.290439490540505 1.9063725973695091 0.6513285431470488 -1.2504251692534594 0.1961224635913074 0.7821342096488595
Ni 8.441549822850034 6.1125684070753685 3.6621407598369946 0.07487798025581298 1.6811934493222531 1.7498444748317477
Ni 8.75387583625072 3.8520856279494424 13.568386747917229 -0.832018238963496 -0.7989903619742498 -0.39569509051474433
Ni 7.927597146816534 2.1349173728907727 3.2797776674347294 -0.15574251711236403 -2.415129501999331 -0.500422292921506
Ni 1.8016529924496205 2.2234564890455273 4.734350844956949 -0.6614509981334737 -2.167853141242028 2.3994000070792163
Ni 1.0880453037300881 2.7853026712980236 2.6158203823985087 -2.6400123255527825 -1.4667637027813256 -0.410882339778144
Ni 5.007361417893016 7.350135126722629 4.041943484280201 -1.196756733195726 -0.8549923312611661 -0.41563476686146483
Ni 5.714970847619522 8.337107915105747 5.956306355049061 -0.5466234740679167 0.8381431209143114 0.27286372230810424
Ni 8.354306626848093 1.498639091004154 6.282323764864227 -0.4863897260878398 -0.3550302658055305 -0.8412094185444609
P 7.878204075849281 9.036525278151966 0.05799335249567712 0.2388727100746402 -0.14826394934713175 -0.3675687645921734
Ni 3.0659712066799685 6.055640486076755 8.315502149186583 -1.2202347617130083 -0.1447255971765701 -0.08978009417862604
P 5.857355446123697 1.4291777708133255 2.79202479426212 -0.2679356888788676 -0.5127921273407685 -0.28335767986089266
Ni 4.8943386674225975 5.820106998302816 9.485623630137892 -1.2719450456031063 -1.402060091955353 0.9004887730310686
P 0.899784206159047 5.0530518598522285 3.3026469555028877 -0.4370983360518795 -0.6302506612712694 0.11362707599955268
P 6.668851389243285 3.7035361521468815 5.520361592614197 -0.6532988013399845 0.22287530620511936 0.8864415509093831
P 7.380413375435875 8.701372556916715 7.160121759973533 0.6627401492585425 2.202254758650349 0.28572463743117243
Ni 2.7017250780140425 6.107236621303792 4.6977577624704905 1.1662104849777528 1.538851264776195 -0.9411726239036758
Ni 6.471056947633793 6.33066251222144 2.6352758465212545 -0.24904142307752591 -0.8571798258307882 -1.0246483731308291
Ni 5.79728029046825 7.646428756518502 10.590037331055273 -0.45399125515247624 1.9541397040418347 -0.4664780747655773
Ni 3.425311351910242 3.6818572593048073 8.502450664774274 0.05703401009585662 -0.15590372528057667 0.7102950162193703
Ni 3.912993875131699 3.5661130765134796 10.967360219720343 1.0588041930769314 -0.8486874720890609 0.5055678416781874
Ni 4.944546316771619 4.734227732542432 4.51108139011489 -0.6031280940228645 -0.6038521166730827 -0.5032157965062429
Ni 0.6898932755802886 5.485815138311932 5.690116950403055 -1.5702907142323987 0.07214026960967576 -1.1516498135547586
Ni 4.98648784686019 8.618591028869462 8.471804930131979 0.40695395125801526 0.15016759412774783 0.43059164528161326
Ni 1.6156236545131752 6.963756533161144 2.6829101687096877 0.4172792444434233 1.157726872986774 -0.4316655950720824
Ni 4.1504990128524195 0.7463713271544252 0.9653697994357099 0.14882676382913723 -1.1149028358427124 -0.2491897757299321
Ni 6.515886528348636 5.974913917128965 5.66974045731456 1.7123742458004314 -0.840527561986088 -1.6114548471755343
Ni 3.9572773180678564 0.5753052386967213 6.593939799152621 -0.2436063681048837 0.5907153221808085 -1.0583992443290289
Ni 2.6009024901251157 3.9510198750442687 3.680390092560372 2.3019659958997583 2.134226711436834 0.20983647074329023
Ni 5.88455125618775 3.5738238014227233 2.2976886467132154 -0.49599562460872004 0.048466065921187504 -0.238652366533718
Ni 5.959946039363964 4.355809791348232 7.8480989250421604 -0.1841724903182828 -0.9132391307182014 -1.2042995785399904
Ni 8.648915560445309 3.7618988418861106 4.64725112582907 0.379472715118611 0.18756197561580604 0.9104214587637481
Ni 1.452060018083012 8.611500494319065 0.6798230503356719 -0.37354066590489216 -0.8132664122772896 -0.5072693977503263
Ni 4.160912656937532 6.29365473528608 11.924386144686435 -0.47423740699602196 0.5610543047812661 -1.6624840458382075
Ni 6.048438872656118 2.622294429219066 9.615426695272747 -2.68268055384527 1.847681377876579 1.826316796157874
Ni 0.9952851905061685 4.38530123139727 9.056208453958707 0.806772834133146 -0.6538284485912094 -0.4958398157571461
Ni 8.079682633321774 3.7267794057448516 10.281984151529862 2.0958522254236938 0.16420941693279462 -0.8572178781575752
Ni 7.310146733435798 8.327740263715407 4.081151548503588 0.1693045720675149 0.5458392876037244 0.0030662976301495583
Ni 2.4657380181866184 5.34823470094569 10.690928417580848 0.41448754063089904 -0.34196289109861105 -1.739217848355837
Ni 0.5672242508866743 3.4993639320710406 6.953853851879141 -0.648912756457147 -0.22235080116021708 -0.9802909300613761
Ni 4.43545334131117 6.111300256640115 6.554055079478015 -0.28001884529564675 0.30342719691725806 -0.48753309566366354
P 6.891249800611202 5.97728359969411 9.886981209351402 2.8845440336854127 -1.0116807572265674 0.13561463601423743
Ni 0.8639529395909927 1.9621619599481506 8.635368566562143 0.16390602675976287 -1.025702525426956 0.8576020009698715
P 1.7655338464761912 7.179934527795553 11.697364075344728 0.9420426852134549 1.0481469704734012 -0.5483522838335653
Ni 7.252959628406622 1.896051519009598 11.739592559181423 0.18386010128418656 0.41483489666798884 0.5237650814125044
P 2.371459827069402 2.0877921621909445 7.136344402141153 0.19342203394100882 0.09082113384863068 -0.5666935053449144
P 0.24216582198459036 0.40783162603406814 3.522935793993475 -0.11298147199575381 0.5944917585041052 0.16519620632609613
P 8.892557805746854 1.3992512718558427 10.360697415954531 0.1327008048015521 -0.022326431411342194 -0.2745611646151852
Ni 8.390490568829163 7.661155963397981 8.746434477601811 -0.3742335782068587 1.1869649439162848 0.06935242245189346
