# total energy = -381171.8283824955 ev
CRYSTAL
PRIMVEC
9.17448171583845 0.00000000000000 0.00000000000000
0.00000000000000 9.17448171583845 0.00000000000000
0.00000000000000 0.00000000000000 13.42778136195075
PRIMCOORD
 96 1
Ni 9.109810866814826 1.2847669062785048 11.639818259480522 -0.4431946787576045 -1.1853862865752554 1.491375844903051
Ni 4.408714653341467 4.102910826352349 9.460530204298081 -0.43332112839763437 -0.43355149924088565 1.1302248109117632
Ni 1.8808972094787906 2.0776072735155626 3.925746078318746 0.9944124570644229 -0.40200817721696575 0.5554973795187788
Ni 8.006184928977254 3.8908059818737275 2.108242703105208 -1.0979096437188252 0.41681850275692084 1.3661183837534214
Ni 1.316703277385823 3.8555209249134443 2.245192027665149 -0.2710387532842235 0.007070533693536211 0.8824807664894221
Ni 0.6030588718472971 4.257170563151672 6.7928725566637675 0.48842475423999754 0.6121462383610747 0.16817868599318778
Ni 1.614139976983423 8.848292263420946 11.807585585817709 0.11706721202935323 -1.5264451778023582 -2.0778940982833762
Ni 0.2810886904978789 5.901971658273749 1.9814706311937436 -0.4365905431775255 0.8346219951349303 0.27820570334630795
Ni 2.178141244958823 4.771565408094245 0.2579203716362558 -1.5583834212718517 0.22834841350454865 -1.0390023278596558
Ni 7.819236513563918 4.2241424287114695 11.49881381396987 -0.06298251436980765 0.7893962905279115 0.5871265763882856
Ni 7.825410939807878 8.446908685154597 5.6730362269533074 -0.20655317200632814 -0.9446868077045214 -0.6679072952817788
Ni 2.0546802435249885 8.609067650774202 5.486765805744176 -0.8035021338016742 1.2219514872937989 0.435301906273089
Ni 2.2520600447323535 1.3560434552968192 10.328931603548892 -1.0347610360847985 1.1495456227275622 -0.5038254050657839
Ni 4.885494122949366 7.057497639591384 10.668425962563374 0.035895685455344634 0.3118969249511661 0.06243718338929892
Ni 0.002277106380016174 7.173362170103972 4.050865826060021 0.6154421355035272 0.8717875484416342 1.2468883597447946
Ni 7.431009142182918 4.89554935499005 8.046692100971804 0.691661460278583 0.5216071545292371 -2.491119741482716
Ni 0.6849108460237285 1.9995874803823734 6.330312616380555 -0.2171818553647679 -0.1786551600444794 -1.4144222130651318
Ni 7.14911401473579 6.026203316177855 9.925158072776522 -0.01850294390019394 0.9186237920688824 1.3807623589188414
Ni 2.3387038507471507 6.169719734802323 3.159839237269494 0.614158126584781 -0.5110669171195457 0.017105549332035057
Ni 2.4998994957789167 1.794436893099772 12.85445542696433 -0.15017556454754782 0.4373608456846468 -0.7913536713645983
Ni 3.841704155339293 0.8837319583201366 6.93907434610786 1.3728922121421454 -1.7564884625108266 -0.5404656819966369
Ni 3.255023568381621 9.011120966211143 0.481084136463272 2.293955981111088 0.5075537617599646 0.5625077493983409
Ni 8.766786167207957 4.37224608823041 0.03192444428099226 0.8086091160109364 1.3896198093094714 0.8331986324248425
Ni 8.601012455763508 2.6789028099630245 8.142633326831517 1.9602280763277593 0.7650384305088372 0.8222346772141711
P 9.094929857353156 6.2236289897941655 6.291801811623278 -0.42937808458948634 0.9216900896990319 -0.21551732317815145
Ni 4.393081336373105 1.2622343790048558 9.371678100516684 1.5611370727575888 1.0156785655320508 0.07295968018717756
P 3.8574659150527006 2.6437278467842087 11.159439640666822 0.23365439909849436 0.42973932458364694 -0.2203276000826012
Ni 2.1077179227468803 6.202940533360094 5.64052736818236 -0.006893898906355869 -1.099572890353861 -0.06422281453481199
P 0.2740885608929138 2.3954021482028316 0.22880515367903853 2.0446217093834917 0.07747196623523431 -2.2960367748995165
P 3.561286119460186 0.9153985996628595 4.740826306860385 0.33552304901053825 -0.2577484639332206 -0.4861932938063175
P 2.3091895428321147 7.250684702621201 1.1832696142474053 0.1961900836044492 -0.804293519354718 1.1530680340585238
Ni 2.1793522765549636 8.770657798522892 3.019800864691215 -0.3041118816891085 -0.18031994934141204 -0.4939515975954977
Ni 0.5998615649438497 7.035607326042961 13.396951709626444 -0.31827351790147124 -1.4655619691637407 -1.3884124192649314
Ni 8.040717678430843 7.382696321082333 8.057984970605816 -0.153940945127251 -1.0866353563565865 0.3336579707773415
Ni 3.7278671853020624 4.144003330285034 1.7716750037813993 -0.5747099478914877 -0.8379019514377828 0.7189046122652522
Ni 6.674426326975771 0.09768162505507737 11.877759362124994 -0.8987638199201617 -0.08179476198030429 0.8348119996585495
Ni 2.9903856411794996 3.0429003749394212 6.003977216595957 0.3353150467647903 0.057602995225449184 0.03826444279783733
Ni 8.578103774736514 7.764107052494148 11.250023886609972 -0.541611365565306 -0.24582085925769923 -0.024626026078796298
Ni 1.3611719906168396 7.454679305198396 7.6310220196637095 0.3523270079417545 0.26737930215476535 -0.20168838771485909
Ni 6.256491983562166 7.0406532910268815 4.099246538325844 0.7130386404027784 -0.18560356633785452 -0.2794747998667187
Ni 7.2668317905697455 2.1451773318911433 0.301786321413739 0.27983732541246 -0.07978827307323677 -0.16051628435192353
Ni 5.127205020160914 6.633388869933819 8.209947417165187 0.03437384949417951 -1.3958907299198475 0.3657078001240347
Ni 5.97649597384535 4.607727512307265 0.5877475791897266 2.349217472687554 0.6118305068928689 1.6072930024883612
Ni 6.513496741915885 1.9631097407895277 2.5486196638709306 0.12059425134600521 0.621076450971169 0.1442751399027128
Ni 6.79323586614261 6.305437843906188 6.233914501327751 -0.07841093310973592 -0.658786306817117 0.2023836140096708
Ni 2.9708348204872577 7.023735546608067 12.298209348445127 -0.8861651573195447 2.1767501866213417 -0.13481450871044526
Ni 6.530478707707223 2.039175369301671 7.985649686389057 -2.9936703936011346 -1.2685193077510089 -1.9654029356604799
Ni 6.149691841057056 2.311648303951552 11.62472623693771 -1.4030075434702869 1.1931523036739193 -0.36522417561939685
Ni 4.748032862305602 7.630104571484815 2.1362661577295405 -1.2188643637280427 -0.9693560283164273 0.4239900808046956
Ni 1.7182886942515279 0.6729592485972699 7.835969850898775 -0.32629510265436706 0.5460637449097047 0.3150408698967865
Ni 3.8980354735234157 0.061295630280121104 11.563159041996634 1.2985783319199184 0.29417096842631274 0.1426946827894704
Ni 0.9641646401638184 0.05524230719577513 0.36603613482990044 -1.4643316963010653 1.6542534303982994 2.4467041914818184
Ni 5.292795241969584 5.225362800820838 2.9568107076246757 -0.35703418360943673 1.088707408394267 -0.8873707475918717
Ni 0.36533979166211944 5.711114913618325 8.794739895770695 0.47757675578190006 -0.24294482326148484 1.1742922335446226
Ni 2.4794862737985137 1.9644583896125027 1.7175740021201689 0.5287825892317539 -0.6761523088993904 -0.647419202630756
Ni 4.090406007674017 6.039396220990358 0.4928201335676905 0.538886253324659 -0.6244278839419053 1.078942101477387
P 7.2834009046805805 6.211252613860878 13.140319435233357 -0.01956892327086307 -0.1297844024857055 -0.920330490347344
Ni 9.138976544421881 1.612635361970036 2.016705228504187 -0.29920390286452986 -0.4328403321064739 2.2243557043144464
P 2.8421076665065685 6.509588412673795 10.044759369721747 -0.8697772028798247 -0.6460290071514487 -0.8349300132936525
Ni 5.268583784528558 4.176462646854322 7.350031496120973 0.32046178380204166 -0.516548251949091 -0.4711574825191176
P 3.7050594235747445 7.536460635865053 6.926868615535848 -1.00086464044767 -0.034978572957713956 -0.4104676208382286
P 2.8235752132928993 4.08159850515663 4.191347326108707 -0.8036317174010031 2.642894017975952 -1.4290145090570099
P 5.302336703030087 1.1849210209694152 0.35573686157363066 -0.4858140560900278 -0.4726065562608183 0.20537329276561403
Ni 1.2694913940999113 3.4443114766511362 11.63256766652272 0.518655785210397 -2.7779774640770674 0.5472711349542445
Ni 3.005248301677591 5.176591255630806 7.750367348567023 -0.10292537331133242 0.6918946593353117 -0.16702040401902846
Ni 8.948211544584346 2.8805946176111936 4.022976318869807 -1.8633540514168296 -0.15568363884997058 0.6003389613135016
Ni 5.432173969307237 7.695702116275773 13.026545769120471 -0.10307424018437088 -0.2919107116372263 0.4076486633321947
Ni 6.548800147839747 8.861264980670514 2.499957295014187 -0.4829385343144457 1.1124577167363292 0.3344701822659917
Ni 5.518175561596808 1.9809632823508148 5.572368308075929 -1.0458136943545344 3.4780428321486294 0.8665129303062561
Ni 1.6499388049238868 3.7106466829842124 9.101269424269319 -0.4748899529783563 -0.5516396963355854 0.7208558224543521
Ni 4.477881071548325 3.3198596311840958 13.165563939323818 -1.5215148303802764 -1.569764923635916 -0.838102497484363
Ni 5.671728863298383 5.0205975417733715 11.681471324250513 -0.41568978846911636 -0.06476814551532072 -0.07604243287755937
Ni 7.288098239356519 1.0288722602212481 9.97175251343804 1.3280773698203 1.0797250023899987 -2.0005707418108645
Ni 0.46093330466203297 8.887421428250796 9.507822823023737 0.1650509389974835 -0.44179188487280685 0.996481937998942
Ni 6.101617556482983 8.593214146242905 7.575443926434459 -0.5046347883409568 1.6252729840055493 0.16913822169297968
Ni 4.664077179454965 5.2531614806413405 5.347291663795918 -0.3707900997429485 -0.3944005400730369 -0.333327069800484
Ni 3.057707988546779 8.48480846942473 9.249646483345568 0.27797507539274063 -0.8785685759192096 -0.3007892450737788
Ni 0.31888296822743817 4.95538532521755 4.375603948565164 0.027514403370184876 0.5470135104174837 -0.0041657013419154065
Ni 3.936366458437629 7.495386480895945 4.708800943279714 0.6447825363388574 0.04313334085436442 -0.5578710219572779
Ni 7.153481068067329 6.738308243672195 1.831710977711898 -0.3815954178885686 -1.3813740243609114 -0.004122506808805803
Ni 7.798667325393104 8.326264249629968 0.1372640092853021 -0.009888462758305551 0.2899260771070297 0.566019104985709
Ni 5.650856917228533 9.141894029630766 5.028060065260499 0.01167872188950892 -2.3830117955291796 -1.0310077396899535
Ni 8.654600603892737 8.571452275439526 2.3590326674950957 1.851810312443288 -0.3001325853263863 -0.18253829714896952
Ni 7.308346320664722 3.5458454666093915 5.9117553256534805 0.4014201659239796 1.2045767434607773 -0.275612488697835
Ni 4.378126931057124 0.7903219719859922 2.6801982467916234 0.030660919418966547 -0.019259362450244254 -0.16252483014152008
Ni 0.059743307961431596 0.7134902742444715 4.442997856890397 -0.3778194957859042 -1.9770034960138851 -0.459949272508124
Ni 4.599186069761757 3.033267169061029 3.6014520007321877 0.18788233506970223 -0.7023477363478355 0.6825687539486954
Ni 8.503084037148307 0.3249005108328073 7.612679478223072 0.394930701544894 1.0745619701318205 0.6270516947179975
P 6.952559916889431 4.648150279069356 4.006688861349893 1.1764995256085868 -0.30544756978139653 0.5783107778688685
Ni 6.931871460455359 3.5097622297334703 9.599386903621946 -2.1607658953779434 -0.017439021412053838 0.9928302001789675
P 6.5736171210788426 8.26285940598657 9.93920328694722 -0.09906563324561002 -1.925022217850588 -1.0470753346757773
Ni 0.6827163099798129 5.422724253064624 11.467567363893078 -0.2166090135804334 3.696719269781053 -0.8950190081657489
P 3.023065145311722 2.478394510465629 8.029585362228136 0.3726551779761453 0.9395088630480076 1.8730288555024324
P 7.459394988837913 1.4076132174324798 6.105464416697088 1.230397818288939 -0.875718250954608 -0.9848525812901296
P 8.838181984489529 2.799638990305542 10.313462509804552 0.8906018529346598 0.7607536870905544 -1.6528804613101726
Ni 3.1461132950650534 5.020313132837915 11.513611335647258 1.0763342315408946 -2.7799793249984446 -0.8683299289103369
