# total energy = -340857.7944930431 ev
CRYSTAL
PRIMVEC
9.43386173679008 0.00000000000000 0.00000000000000

0.00000000000000 9.43386173679008 0.00000000000000

0.00000000000000 0.00000000000000 13.80741024115395

PRIMCOORD
 96 1
Ni 3.3756904311914755 7.251535908230465 8.1824920222381 -0.14481610000784736 0.8959296929054764 -0.7306568677051739
Ni 5.332320517465758 6.033218706467152 7.492507867839587 0.41871469133836925 1.0379435475778382 0.005125751262339559
Ni 5.274358871169531 1.2795523980700858 1.7980421541351648 -0.7385414126595732 -0.9686165790472416 -0.16213145135784335
Ni 5.880484485514038 1.3690231424505264 8.918303046625736 -0.7264855099363037 -0.0011713946002818536 -0.026749757290018446
Ni 6.06723721176406 7.996084575326365 1.6999818786751806 0.25003309756683395 0.5687886973110463 0.7926299669738607
Ni 2.0468555395908727 5.353867457592807 8.442969434301986 -0.4567248520335554 0.34909461704738587 -2.035070832470263
Ni 1.9199229303923457 5.288424758967004 4.904999600887455 -2.3133870932525062 -2.314148911119195 1.1100573348249527
Ni 7.543004499371133 4.7444682932377535 0.3928316615824735 -0.08321015427059218 0.14092396404229277 -0.6502718415882027
Ni 5.423904446867416 1.259458272645124 6.402578920135398 0.5909258955297177 -0.10077567395818127 -0.20054733213188042
Ni 1.1711950625625211 7.691229334430758 11.575953018717367 0.7502373609402627 -0.6835275183175389 0.1838035370146383
Ni 6.176509631856705 3.769120199605847 10.873114284363902 0.6676095615357018 -0.10314597396257075 0.3490005146716828
Ni 5.461394613270608 0.2863139291067717 11.242476384804487 -1.9430240537446473 0.18773243975539927 0.6244381683545505
Ni 2.367701176071133 1.4922293762768188 9.42470330891988 0.750733840960707 3.219692215855036 2.144947440288448
Ni 6.979670881706261 4.454046860745992 7.743250478013324 0.9871280075878676 -1.2276153704477955 2.2527090586461593
Ni 7.523683950605723 0.7011632805152164 5.303895348771884 -0.6650202035419709 0.2928231961491667 -0.4301093063285561
Ni 8.756444394634583 8.49502265301434 6.1163649899626655 2.6260324663339225 0.20046762793388057 1.3807340767840672
Ni 1.104469358745265 4.25816215636857 12.326882749868407 0.5201580807875364 1.274571941702992 -0.7849251421304353
Ni 5.7799666890807195 6.849483590220593 11.59391697817005 -0.2265314149004679 -1.1078587845117371 -0.41243348631534776
Ni 0.6063076878753539 2.3821632860600843 11.119990898012217 -2.0272518506464765 -1.8538283713145816 1.1576841926742965
Ni 8.15891302830047 1.9973088979327036 7.27367435148622 -2.260762782188571 -0.024862310459318474 0.01948073443243097
Ni 3.8616097797308826 7.885887636786938 12.617142863325066 -0.26834860804657007 -0.7590449319295637 -0.43415288027031035
Ni 7.64472983010229 7.172159395871014 7.889070621725145 -0.11726698674498515 0.049215799603018466 1.1827393358707115
Ni 1.8556500306175732 3.1031272989013345 3.628725469758766 0.21827945930432083 0.5179587591433725 -0.8888316484081143
Ni 7.145244588435607 2.671226242466778 1.5389600102169825 0.3927702035584655 -0.09730494180076146 0.3250717717702272
P 3.067778619104465 4.615441366741414 1.2707364543096975 0.6153369773842307 0.35639963534923136 0.3585336509730987
P 9.238722272557073 5.655326508275745 7.8845008591167645 0.2120756444864541 1.0827864149241417 -0.2212300572922125
P 7.463231764820204 2.7205276037206985 9.304371572754146 2.005106939118321 1.0645950887270954 0.15966242099206052
P 5.626826812074426 4.040881453651329 13.152704135525832 0.7424502607956762 0.07910127430854119 0.5409814452907908
P 2.3413807019229433 5.964521325554207 10.79363871645658 0.5840355961677877 0.46635414759320337 0.5668583130575527
P 7.289516635442153 9.430135326487813 3.196014987990189 0.3826187169467604 0.09510330616375233 -0.4396074756269784
P 8.523192164056095 4.275171409017023 2.336904334545411 0.08159678703688528 0.674249949670355 0.538816062208356
P 1.9190644489774764 0.4514225464542157 1.5697643988320662 -1.2680634511605129 -0.40052542202385216 0.5141856652541854
Ni 6.951878725132582 5.037323662048595 3.652170502860228 -0.15458860601357893 -0.8865842471348345 -0.07940826402599872
Ni 0.15871811943060402 2.4796245113020006 2.0009145198751543 -0.23457871068497665 -0.6006449225896945 0.5318568572817034
Ni 7.3530065246956715 1.5870679879656175 11.180757231392407 1.6603081212328115 0.4009496540454643 -0.9037813277394113
Ni 6.0296998760523595 1.9936013902838727 4.008387460405443 -0.04933124213496021 1.8790277533983444 0.1821847704642927
Ni 4.216275810412311 4.459895855001145 9.960804198009994 -1.695549718043925 0.02595322953065208 -1.0502087380984364
Ni 1.9202248139668052 4.045079522108657 10.195736599357584 -0.18156436327147438 -2.3743134964242336 0.27368853220224476
Ni 8.259959120989093 0.24525681959410658 1.1581159566990624 0.5342806362318476 -1.0270891213618376 1.737236042039118
Ni 8.139243426652092 7.064547335437897 3.9295609421832105 -1.3230392931757602 0.5741023962144758 -0.13723237412331848
Ni 8.770698959666094 9.27765581980065 9.01443032382301 -1.6106030406982002 0.9022409798354849 0.3127759851220097
Ni 4.242209496230724 4.2265681535290405 4.700595176007083 -0.4763066308202249 -1.7766266280215983 -0.13634405798109422
Ni 1.7419153939399485 8.483900130067846 6.603449420422254 -0.10044734408448508 0.6671681031229091 -1.3038825177416513
Ni 5.383725629879194 8.301100191870905 9.035803680894745 -0.22130410506325757 -0.6929238719307744 1.4672961782460279
Ni 0.536332018701807 1.7402172988336135 13.714900972855627 -0.08503075241909872 -1.7953483728008177 -1.1851733992335007
Ni 8.06275367597341 5.159454435640875 11.78284326615618 0.2068313653683793 -0.5390649449943683 1.730898272746548
Ni 8.436023281930908 6.686041936235868 10.185809346688716 -0.21305086391552985 2.2434993671224333 -0.4263629519122464
Ni 5.508762032875647 6.223169511834104 0.07555579837019713 -1.862113751251825 -1.5940762466877707 0.5651400448148653
Ni 7.0635756476826055 1.1554876828289242 13.381202643192754 -1.5437487020778125 0.32619045875570274 -0.08254192455897398
Ni 0.8664643486413783 4.413339747502466 0.7127207044861651 -1.484987939098836 1.3143335378716463 1.806575866085521
Ni 8.961630886650038 4.510697200265661 9.618572940437787 -0.047388259475976455 -1.5445691410965785 0.4144890832927958
Ni 0.30034679838828854 8.573701059607853 2.9474129210366034 0.5651295032919041 0.9217386835487804 0.4676888072442268
Ni 3.1893622287180374 6.940567524952052 4.581837007973218 0.04090830817858761 3.6765258255523134 -1.021477431602015
Ni 8.933131190448721 9.140647846304535 12.326979918643936 -0.5373554185024294 0.5496658604386663 -0.3324981461412854
Ni 5.2924624517754 6.179915255931077 4.958185826390202 1.4801640353476315 0.372076679764856 0.34362742328522755
Ni 9.1308271962729 3.8364496705720215 4.687822670648934 -1.5130016507029427 0.03496417478001076 -4.438105350978272
P 1.112686252287585 9.609048513663588 10.249944512082642 -2.5862312751765844 -1.575145471221539 1.4406407804420285
P 8.796123216952607 3.157834262910421 12.836887690718832 -2.40472604727782 0.6344896390532815 -0.6893107006582193
P 3.8414118818272 2.2234196952028853 3.4117560844776866 0.5291469145497081 -0.15818120846084371 0.3899165361597543
P 2.3905688568364414 3.0444864145625727 7.976664971013086 -0.056553470915012276 1.1331885215257773 -1.0869508307144764
P 5.155020520641001 -0.19137154493925218 13.529798229017262 0.6312719034469322 0.9637949892888819 1.265214668857808
P 9.341560798969049 6.628419908960907 13.442852929414409 0.6030607311200389 0.16109478256321288 -1.032684613171744
P 5.5082054350352365 5.996520984446917 9.650606561232623 0.9726262144272667 1.1401474693421139 -0.8337861294971962
P 6.707824722905463 3.414982465179722 5.947251698322782 -0.3813532199707755 -0.7552952350791444 -1.452338528494931
Ni 4.344849911546961 2.065242136047798 13.35561801025731 1.898811106672859 -0.03811814702796016 0.42475395555391365
Ni 2.60352885089423 1.774443349087962 11.967600730656258 0.586881293146699 1.10473720816362 -1.3426989763882167
Ni 3.6152916506953168 1.0386681733747913 7.859302071124926 1.5841371331971879 -1.43569294951845 -2.54641260051775
Ni 3.1911735301647948 9.10911988049692 10.270711271846947 1.1842439454406959 -2.399875146943422 0.706783403521686
Ni 1.468267367554094 7.369742195354771 1.2293567067268287 -0.5596329989537072 0.9626783591859357 -0.3324037866552662
Ni 5.158643123534516 3.912071505974132 2.281799261572506 -1.0089242775273526 0.08501661135171165 -0.5617945253814003
Ni 7.249035934879472 7.511476533563516 13.426905929593584 1.3126684914643973 1.0482647269981882 -0.8845859857578829
Ni 0.7483514567479203 7.657201395272148 8.459303222452586 0.5161592440407885 -1.6477115155147235 0.7274226770385924
Ni 8.521088412896578 6.749663899553212 1.599643325614197 -1.228866212135761 0.4995756286504945 -0.7161625307437408
Ni 2.50163371065244 5.967464690405188 13.594196599152669 0.3083164066887593 0.8684078333361237 -1.2932877729449406
Ni 9.360098337213204 1.4690315103519447 4.022692024903973 0.4267187925897683 -0.5975948229094612 0.9274997544022736
Ni 2.2882020235095584 9.449427573668116 13.240933383706306 -0.843200995053193 -0.7938283581573362 0.7450144219784266
Ni 3.686404100203938 4.33231230934519 12.26212589298833 -0.15881010029409423 0.0458175725547469 0.1458054605043102
Ni 0.20154596478470824 3.909505495591226 6.621840733810029 1.6687107434742101 -0.25331073987684116 4.111980969573815
Ni 5.195982348150477 9.203656608611258 4.1319502942040645 0.008043696240082922 -1.1618995163072248 0.17833480059058318
Ni 6.749456354595772 7.704700888941014 5.748798153403944 -2.4742103673218874 2.116756836786845 0.21741891107623845
Ni 4.61512061544355 3.700611495926939 7.605301005119366 -0.7100530754118932 -0.8148478978317966 -0.9244907923726207
Ni 0.6399290275946129 5.836900044451445 2.911748206872721 0.8986347505414652 -0.8801927417861939 1.1261051323164348
Ni 2.7703666950916253 0.18251975250439692 4.099129889343294 -0.3765303446608354 0.3866764319559018 -0.3497692745169073
Ni 0.3474557301826969 2.239485561681153 8.944565030831376 -1.502399449707064 0.520259382252091 -1.7167376649754498
Ni 7.7002198046326304 5.729457793528961 6.013858535482596 1.0187757164001359 -1.7149173239372595 -1.2399034437865293
Ni 3.6055842070041026 8.56060685956567 1.4029020265942462 0.9534920647009772 -0.5281223299399356 0.2614199992475369
Ni 2.803536152835365 2.4306439013459435 5.632111661399808 -0.4312179660117025 -0.7130864629215783 1.495872961442456
Ni 2.3659653455179908 2.6741790411794604 0.8777991334761631 1.645047081308683 -1.4784084861091056 0.6177340168614974
P 3.7597052056273905 8.872141274546195 6.064684408787536 0.7732826727955006 1.1874377697876455 -0.37191315760379823
P 4.7095064017706605 6.694919200097318 2.968744769116849 0.5727865056165297 0.4278032839031987 -0.9558335683499602
P 6.7018530884481855 9.122648038177386 7.662546621312423 0.9458756858063001 1.326253686348 -1.8603867412583897
P 0.48608821466387064 1.4339752802678327 6.273314260324171 0.8925294089746758 -0.6852043917993296 -1.3278120319740552
P 7.035434438225956 8.366137234443528 10.974060378118484 2.6762355695508746 0.5843919510659419 -0.04723322195535091
P 0.5428121383048147 7.232224793326757 4.871737691299036 2.261675009590195 -0.18477078602391403 -0.13193564450075343
P 4.376670327067336 2.3154941854130393 10.574004265244728 -0.472373871424722 -0.8977238086914217 0.4207528048143205
P 3.5559526605906173 5.662949068530848 6.350718152201764 -0.38408835951375137 -0.4513677014867001 0.9685790409410867
