# total energy = -381167.49273624056 ev
CRYSTAL
PRIMVEC
9.21694148325765 0.00000000000000 0.00000000000000

0.00000000000000 9.21694148325765 0.00000000000000

0.00000000000000 0.00000000000000 13.48992552346986

PRIMCOORD
 96 1
Ni 5.834065819568589 5.814848496790013 2.8204329122565164 1.2417263559278808 1.0977121829960386 1.5410341313601268
Ni 3.1092430053355717 6.659258581374759 1.928263402519854 0.1888909788398747 -0.11242559949228378 -1.735153448478476
Ni 1.7557904652410183 5.533870038802063 3.5321485351728716 -1.8021497119933674 -0.5373014253360424 -0.05471538926500899
Ni 4.103916885248432 7.83487023753041 13.063131385893115 1.1951382237556967 0.21595569626715067 2.7180435067255964
Ni 4.372544641786362 8.869149314555758 5.137638337320254 -1.7234780690230769 -0.25902553087343133 -0.7914202629364757
Ni 3.020483859840281 -0.034850177054231136 7.31612602952337 -0.027148535390333888 1.1722245523823167 -2.3129014118653393
Ni 6.087301284000897 7.116658514329 11.872726538821583 -0.37672883382488664 -0.05346326202546276 -1.0488511956292774
Ni 6.089227624749445 3.2736363718001633 3.0072953384187633 2.1651822792780844 0.06206385921028021 1.0465837397513396
Ni 6.408262833697941 8.605609309659926 4.126501156713346 1.0618380948072486 -1.4404106667090935 0.2441164749720828
Ni 6.857644027651047 6.476615670976558 7.013048111187128 -0.14726764687213345 1.08021968263823 -0.9694269907636789
Ni 7.575311951311002 5.945360386739476 12.989300920352 -0.999251530324279 -1.3770198611572737 0.44956767216348387
Ni 3.6421849898453056 4.3653185597439625 5.871085664623815 -1.1585285429524628 0.2798689499813438 -0.8710051617496547
Ni 7.978672956950715 8.68430355516759 2.1120363099313195 -1.0256901841317818 0.5355620740474324 -1.5666515748179148
Ni 7.879277461102197 9.053829168999076 6.139871952553492 -1.1425496510257032 -1.3206651365166289 1.2290526171149543
Ni 8.86631049661053 0.7726156413946094 4.470695850548497 1.545939281971228 0.5012656147584077 -0.3082552144335208
Ni 3.753101662419587 3.9171724359358575 10.349497938496162 2.1363964653946432 1.9923000171616396 0.6832184717175525
Ni 8.299597638882236 5.341641509368025 3.228274273101345 0.13966258083136593 0.3893642632007101 -0.6815351704778585
Ni 3.6595404904649973 8.594254037879013 9.222225453105269 0.07830320388727804 -0.1765154879936573 2.1050791433386005
Ni 6.3035122949072875 4.043002119663969 5.388362185226345 -0.5792749415543507 0.6811723878218011 -0.10630637396842336
Ni 7.3335607958389355 4.338294487616009 7.496743056206115 -1.7062701897852226 -1.4442675785613384 -0.08782528444510036
Ni 4.282485907556405 1.207917035694694 12.995236630601115 -0.5215621602239147 -0.43214227759818474 0.9648324294144608
Ni 8.852964365491404 7.599211480310927 3.765901228914843 1.0509623284350094 -0.35216631399417414 2.372205448942295
Ni 0.2616910864548814 2.92284879979546 10.937280724220534 2.5698728884232196 0.4850383542662679 -2.0955395792792815
Ni 2.3029634072424163 6.740902248124219 5.656109723862427 -0.6720362298484878 1.0504992727556617 1.350432083366416
P 8.183335140307198 1.7327849795550114 2.738765281459468 -0.7295425515950726 1.11016377849583 0.09486059402532696
Ni 1.3013491704699556 7.077219222161362 10.641757011039841 0.571969151921557 -0.6452296511786049 1.0836994136567142
P 6.510027083481275 7.244589660691891 1.092151330260072 -0.2790418260943581 -0.6926125113379427 0.45417971701419846
Ni 1.1215082102514586 0.3892535551625482 0.23529837481149962 0.5623023182557542 0.42124182863559717 0.09774742865481875
P 1.4883609110825682 1.5532389614606943 8.372711026383937 0.4865601902274329 -0.139040888086967 0.5597949784528681
P 7.246460699792155 6.506533862698023 4.7142572133077145 -0.8563904971602734 0.041288060115509534 0.6725321956482998
P 7.98884846023491 5.892768519221706 10.199206492343905 -0.1787891145191824 1.3010476193960174 1.8978343445818864
Ni 8.972729301791073 5.723379570528823 8.375948937890946 0.3557679153025034 1.8829219462464282 0.1937493353734405
Ni 0.6261630513273788 8.838917746827352 9.464423630234293 1.9765754073375312 2.0544824042276555 -0.34631165498561
Ni 1.772629817143396 7.137396632435376 8.309038551938396 -0.033802293261425656 -0.4200534647544508 -1.128324508565257
Ni 6.028119303395989 0.8837618158092686 2.1750212005498684 0.5641540267525122 0.4990737493134115 0.3509625234940601
Ni 1.766694106894282 7.390189683681414 13.123039661478815 1.0461517944202436 -1.0718296588023217 -0.17363019602606228
Ni 8.035882512100171 1.3910853117515916 9.636730662568278 0.3443959260201359 -0.3948797937023006 -0.5040927997945577
Ni 6.572158485327979 1.4882503077860008 5.082869428248383 -0.912608439112738 1.5483340074556495 -0.14108080133513123
Ni 1.7000464037710785 4.70184752343286 9.993552566094866 -1.99615924300673 1.5111725679140038 1.3175019082972985
Ni 2.490260873037828 3.6964359068115864 8.282855064864355 2.5150963069029713 -1.951229472373575 -1.9033938409475348
Ni 4.804478165705971 8.125591002557666 2.5063877553714846 -0.1793455012432847 0.08913603283672392 -0.6372330061263736
Ni 0.18995102321888976 3.5151571037377143 8.017629281390008 0.6030633022232 -2.040755027339234 0.90704225787887
Ni 1.7119731259175899 1.9054459424380115 5.937954574340154 -0.3798452679666813 -1.1407465363786935 0.5755666394648281
Ni 2.954361522375772 9.00869380705822 11.449681833169437 -0.18398582822877346 -0.15779014367001212 -0.031160998983836657
Ni 8.060832772417488 7.996434002991153 10.737022395455707 -0.6963282696266331 -0.2539990241931174 -1.0115732851144255
Ni 0.9093434366111565 3.994465706353668 5.489010263408488 1.162326062321682 -0.37354966476595663 -0.3639838754543925
Ni 3.095426810206035 3.0538768384622372 12.439869827712354 -1.094350465612657 1.779237326171568 -1.1746814985632414
Ni 1.0084992919837779 0.7974654370508768 11.322769158829104 0.7510223187354034 -0.16463853405041323 0.2732668712837939
Ni 8.14208932762896 1.4825726718955439 0.6522525255993384 0.30837168540672694 1.0604995785014832 0.1651571255580446
Ni 5.421616909727593 4.205109684666169 12.390779476225077 -0.10484624448312911 -1.219366500175442 -0.6083284072768814
Ni 5.613568930920213 0.13481896665662244 6.927373875971928 -0.8843980381167931 -1.7764836746858308 0.8465596271127807
Ni 2.010602026649411 2.9792011793965205 3.552639639250248 0.35560002226607146 1.0635555917189876 1.0109317948756846
Ni 2.3594724748469473 4.6146736918550335 1.3415958667025347 -0.3964113998554786 1.3633950712849874 -2.0656980704378167
Ni 5.338581484829661 2.76479668900073 1.0140119446235218 -0.9435714631531555 -0.034943605954720465 -1.5560827981631329
Ni 5.635560553054352 7.520249943503227 9.308641652101608 1.3718457731555018 -0.24301064350241372 -0.2783244883123594
Ni 9.251412741375251 6.034967490841784 5.924316266179263 -2.603713234011432 1.9409831120552181 -0.8983856106451368
P 1.6876035329072527 8.973300752156671 5.2805101456611165 0.671916673551488 0.053657894534772106 -1.2780663280094957
Ni 3.949874143954268 4.22471411898273 2.8662042431526347 0.11317096229874057 -0.10889367507962536 0.5040220944576222
P 1.5291643105745363 5.1831285515042635 7.085475758250113 1.6888617645007882 1.0384726806084308 1.3518942697342395
Ni 8.162449551138733 8.221917256926439 8.294105263513528 -2.766756655660583 -1.1452313116229245 -0.08135227512624699
P 4.954917082920316 4.956216671654983 7.380796698720434 1.3564885739731414 0.7290540419944284 0.6593527208435483
P 8.431676408866402 2.5086947557990515 6.428246084305244 -0.07635970700766204 0.12782239366332826 -2.253784808208841
P 0.8029808547730349 2.427576454708287 12.91667142227278 0.3406544566998327 0.3189659159828055 1.1298697415651897
Ni 8.386061765973755 3.3615106909229158 4.280676621963391 -0.5882444920428128 -1.819315939360009 -0.565647066358271
Ni 3.606202050695397 6.021317200657097 9.009570338183517 1.0095757950684225 -1.3697618940432796 -1.2406516348064633
Ni 7.78606653292007 3.3698243720482277 12.125446776230715 -1.2656478997404847 1.2335718451415465 2.0586697028361254
Ni 5.301603116010647 0.22305366818735692 11.292915485697302 0.6251542205849685 -0.8087124743580202 -2.5540449202520272
Ni 0.3758429054537581 5.193746467974728 11.980686416600964 0.11696205391005664 0.3783193182404581 0.09170790732895819
Ni 4.508476093267625 7.147304844419533 6.861961242993726 -0.5944128256370537 -0.5648731643067241 0.4424673136732767
Ni 2.72803030983347 2.463688431037524 1.0985561828254593 -0.21932204163622226 -2.2148601061191853 1.0545163643348547
Ni 3.6528766418468153 1.2410427230166126 3.308565814550268 1.0395872538288482 -0.1553159710979067 -0.7413927660654394
Ni 5.760874088065151 5.380500134228684 10.475170012526664 0.12403001650043156 -0.6306741219619332 -1.4960781354747266
Ni 1.304658052425595 1.0415788945987934 2.6954898982892197 -1.1031184416132744 -0.468115096148368 -0.8740336641633334
Ni 5.1676072222193135 3.005626150334735 8.398706487853815 -1.465495120481547 1.6136911927052209 0.26031725310166137
Ni 5.887477994869234 2.4619556460579695 10.51595036966518 -0.4957469989330236 -0.5791903522603443 0.8870228773341498
Ni 0.7623728544383356 8.940377837545126 7.110445374144329 -0.4073524722480145 0.3947481532204427 0.10104718245201307
Ni 3.924158877502361 6.787355632682503 11.083700133298795 -0.6880801706852279 0.0664136515385437 -0.8486375926877321
Ni 7.36752522482649 4.221497406440896 1.001028960994792 0.44223128640307063 -0.4329033241339254 0.6546182914823564
Ni 7.5481404081209575 3.923015976771165 9.85719621361596 0.6203717115946606 -0.7594527088909436 -1.3220267927508458
Ni 2.514565947458501 8.29844552120966 3.4227314589612154 0.33702020238135505 0.05900450355866612 1.4843117389674179
Ni 5.147173263178497 5.094516877071062 0.8794132628658959 -1.5739303678675152 1.5996064324773807 -0.2910329370179633
Ni 3.775572565505519 6.260893157963339 4.153386053026452 2.602730301272872 0.441354283114756 -0.44072590550213775
Ni 6.831818157902573 1.7938656500843255 7.62816189318743 1.872040266336918 0.9302788598093075 -0.8549524791621663
Ni 8.094723465873997 0.8821267304083481 11.896509012665975 -0.5716441644819704 -0.3171543166953635 -0.11740119833000427
Ni 4.052154542454916 2.0681157408644286 6.449600815789984 0.5750922709315708 -0.6031432635315161 -0.3217506778167943
Ni 0.4219008832268132 3.6720017952115844 1.983342922516252 -1.2478728351452508 -0.9695902558144205 -0.28937868924399196
Ni 6.537723992330013 8.846945702769865 13.145729927769606 0.25721521713756995 0.7996287668891972 2.2018094435828144
Ni 0.19398620015532161 5.957950728665391 0.9509855777687605 0.2488280215151392 -0.915729501240223 0.5357783038232966
P 4.603945172088001 2.834845443493379 4.4683086627309185 -0.4207561472484302 -0.12728117644787756 0.5461480770933949
Ni 8.814704841820484 7.777540862143004 12.826612688042824 0.0034627617376198428 1.4295873508413444 0.8506584797725028
P 3.2569905756667787 9.256389889720781 1.1105013388547322 -0.6163006268490806 -0.12763418891192213 0.953695696071351
Ni 0.9017523636900847 7.96279216695192 1.9143688633885818 0.6451262928315212 -0.8439173043939271 -1.1982096635921686
P 6.4062627574183475 1.8968926208368038 12.783498601346736 -1.4748207687578472 0.13551230610841825 -0.09358121309227109
P 6.064544655732166 0.4109990849618255 9.095945982637783 -0.035053134949391246 0.03680482753317532 1.1845054266321988
P 3.1174553001056973 5.607310627722778 12.604877964167033 -0.2518976615793984 -1.10952357380867 1.2724235279014215
Ni 3.0613702118046744 1.9044781635930474 10.209701823494008 -0.8417568064074986 -2.299438087271582 -1.1157674978358527
