# total energy = -381172.90466660634 ev
CRYSTAL
PRIMVEC
9.20437552572053 0.00000000000000 0.00000000000000

0.00000000000000 9.20437552572053 0.00000000000000

0.00000000000000 0.00000000000000 13.47153397442765

PRIMCOORD
 96 1
Ni 4.43410666760032 6.840194864024933 8.724245856525943 1.1805176456290443 1.3629338153778527 0.97363614374902
Ni 2.640680115777477 8.53739887396702 1.2698715463729193 0.14640324198930915 -0.19605021559247526 1.2896558326193077
Ni 2.08718419713797 7.037076456796062 9.617906961508755 -1.9822027808266376 -0.9446973492274826 0.44337851263363637
Ni 1.2980286515831185 2.1876131386398767 3.3204370558680347 0.11189338113789762 -0.5317846092828713 -1.2017521295277884
Ni 1.856807881781795 3.9559393583688967 7.7481393189685805 0.46367531520945954 0.023081821520127988 -0.18072386964805007
Ni 4.846030086080279 2.268473577746673 8.656713353199072 -1.3090424646760357 -2.1887186718371274 0.30728590854171595
Ni 5.014525384690297 1.7724773930969384 11.099910830482749 -0.8863520765193703 -0.26843165467867963 0.515984409025821
Ni 3.5344341849532315 8.420632165884058 10.750149162202874 0.4570364697367032 0.5092285783592263 -1.1076716082015956
Ni 3.553275541680791 0.2562415310572573 12.705071085038611 -0.8777841323447012 -1.38119944645626 0.7910088864306699
Ni 7.0718689963320545 3.4069167662411597 0.010953206890960418 -0.8507741794147605 -0.09253837365005353 -0.12916785194762914
Ni 0.707323124391177 1.1186721898375265 5.456335410544163 0.8417804605565825 -0.8017694673812837 -0.9906326783070164
Ni 2.573073977446297 1.8271882012985088 9.446643907174275 -0.3348918431844426 0.21481515490480424 0.1860349974483183
Ni 2.101708701737916 4.224716328472204 12.611929247650632 -0.16986558677730745 0.46351719236504046 -0.9324897514176973
Ni 9.198917343927798 5.0762315183012205 13.066323495740903 -2.830861713670609 2.087128472397451 -1.7135374128705971
Ni 5.970501032507137 7.953105114775282 7.036303289250818 0.620942496496466 1.5579992984595554 0.5221257460368685
Ni 7.176476724328495 8.076544995123745 2.8349357002074376 -1.8475055144203474 0.041610733562250916 -0.6977115231274048
Ni 8.429118600130668 8.924783427261012 6.374473711396835 0.013602164164466897 -0.0819971077990975 0.15875559290707497
Ni 5.096757275752348 8.920825545779405 1.6674389003252894 -0.2963952297711412 0.37519465656854734 0.4467949945143531
Ni 5.253710287436934 5.999522428580413 6.477436617484525 -1.3048286837050043 -2.326487892300522 -1.2710685565354238
Ni 1.6743863629818416 4.615690588226259 10.007113060721842 1.2499258610195378 1.1799514887129292 0.6539965987379576
Ni 5.662292517596374 1.5258921724172498 3.3485113216983864 -0.7698813604234355 0.36947035249026045 0.9749612903183468
Ni 0.35013352505163464 2.911196712857584 9.971736963776701 -1.205526508968556 -2.127382949042123 -0.4363465454875195
Ni 2.766770856281063 1.5818179581899183 6.992534642689561 -0.5164454078226396 0.2859987170281655 -0.3221581976678581
Ni -0.21936880264953676 6.0481951664286475 9.117884782998429 1.0428651532491717 -0.711428358492865 -1.0388205508661528
P 6.450177859326895 1.9867644600116017 1.5519341121286734 0.3430648659135382 -1.05007632628563 -1.9559605593006573
Ni 5.618415259403761 4.039616336390511 10.695292924867793 0.35510945578289815 1.0954647817227585 1.4145512824438284
P 7.166821334388481 2.1480619369504175 11.619171074306351 0.010301124815691936 -0.18567041502004797 0.7269781333020061
Ni 3.5222291829890184 1.7025977740077187 2.345852001587208 -0.6386129171930357 -0.5505320650937036 -1.0492296620146186
P 1.5583283918153543 -0.06412412306491928 3.481596467173771 0.4224026817129176 0.3115601104370376 0.16417882080517532
P 5.135793032411645 -0.19698928396493073 8.858881018842032 0.10261247005660391 1.0757217947678763 0.02545854928242067
P 5.73700443384337 6.573985914696902 10.637904563822039 1.024668427735487 -0.8137554360985663 0.15390880633773496
Ni 7.2508848961827175 3.4239540653631493 3.0707683693829075 -0.4683426387781418 -0.4566027246333943 -1.0774403201208798
Ni 5.1553707391822945 1.1642430531292447 6.501995732296677 -0.2505246924912718 0.8591063534295398 1.1246151780344698
Ni 1.4696442335007294 4.685275667298242 3.433274416033558 1.0443201405281435 -2.2345624696441195 -0.6437070438864914
Ni 9.07891990003078 2.9715498032643297 12.510704127664635 1.023664669061321 -2.4793389467977045 -1.060820709286328
Ni 2.3405070207119305 7.348488094394267 12.660750175945038 -1.0968547200917498 -0.9402840506511355 -0.6523246103521734
Ni 7.868958713601198 7.141463279779577 11.196124167987966 -0.5052775641312781 0.562270179466238 0.01534537210781873
Ni 2.834450629616552 8.72437655865859 8.298841709632116 0.4418523057970971 1.5285730227786385 -0.21620123661905347
Ni 1.494523660581625 6.809737585367632 3.5274268938556785 0.7566746319251743 2.0804783140707848 -0.17846669818275715
Ni 9.265860767220197 2.384954950187937 7.403631508246153 0.13929157064519238 -0.25986499605559116 -0.1468765820813019
Ni 0.078629298476234 3.739176314434344 1.438248108538489 0.4885018873348362 -0.41136056496614315 0.9701450998766258
Ni 7.526822870455073 2.0756879320902306 5.755012794584683 0.12922493043780972 -0.173477729608598 -0.4952142663580052
Ni 3.935634505930696 3.6820815729682703 3.719302226771351 -1.2513201702639032 0.06396904665279306 -0.4078795483960782
Ni 4.492333547257644 4.436361739607283 12.991111781902159 1.1510941981616045 1.4085189602068193 -1.4726165620176768
Ni 6.716184312393077 5.696680064608666 12.77017915584861 -0.22708445919046052 -0.04308603255619676 0.217558007757264
Ni 2.180617813230524 1.8723540720665277 11.822052079053554 -0.9289809669334905 0.21319458858224574 -0.9913358750216282
Ni 5.975011176521062 5.194305247710666 3.489935631411763 -1.260386137120913 1.0817664583000595 1.6413094686431215
Ni 0.7505597580463009 5.432311990388359 5.745569105282057 -0.9194887111723391 0.38415932196100294 -0.020341025550197227
Ni 4.62931306402342 7.936408377548221 3.636370803168365 0.6082309624670686 0.42225227217798245 1.372391618356643
Ni 0.23400191888083832 8.370063326674867 1.8238709443543895 -0.7776635754720155 -1.2641674585402163 1.4630762266274093
Ni 0.3446385128550772 0.5205249250226088 8.776542357023732 0.38838930088195045 -1.0191462123656772 -0.8873216395214911
Ni 8.905067654857282 8.048057452831708 4.11101375700605 0.16077802265374247 0.4940341300069749 2.4475835087629783
Ni 3.679605595948381 1.1325984100274618 4.675174785582159 -1.1968521211230096 -0.15040799227332804 -0.2665480645027216
Ni 8.09067371157553 4.732761040701995 10.73244822760455 -0.6800650136902352 -1.3263465031721222 0.7763811092151661
Ni 5.883179121772228 8.733792634834602 11.031570182983584 0.6564892832528242 -0.34477027864041915 -0.7125061649380762
Ni 8.542498098015416 1.4265033253512072 1.19857169213809 -0.5784246777389135 0.3391472760266869 -0.0867546770887409
P 3.3934599692036937 3.6476480040782846 10.94240187451563 0.7892301972636924 -1.1756618601986397 -0.49481805936085105
Ni 6.606974396627324 5.675666475253991 8.436305376551223 0.9745900230218569 -0.20348481749364958 0.9529210226888556
P 3.633675762010656 3.536413125694035 6.421045090309601 0.24515700042145522 0.37389264992767224 0.273041128426233
Ni 7.130141897867071 0.678082664180082 7.940203341582795 -0.9758321229590742 1.8364204602507794 0.6321057122021371
P 7.86587524779576 6.380215400857828 1.2820075155205928 1.0031896890364207 -0.7093257103275654 0.2721762093227764
P 0.571629458888147 6.237050543730098 11.283554690354231 1.8173320761607603 0.22267964525454553 -0.012938819548855136
P 1.6193626060119581 1.8697308250380207 0.45828309675533774 0.23602315644098706 1.3300280657887675 1.1036786849921187
Ni 3.7558270297837115 5.860784876086761 10.893688637415025 -0.42896773652494513 -0.25872548313450927 0.5812652325115021
Ni 5.5029095507695915 3.3900451458788656 5.32238781508081 -0.3728834919368675 -0.5450180772540097 -0.26452537764573797
Ni 8.088943288974269 6.671027646000597 6.710857740268875 -0.30007267862272835 -0.03023823005925115 0.22409195222103984
Ni 5.715576647589457 0.38284035309057474 13.197711354366966 1.8511107152731021 2.0691528617556365 -0.603946733269418
Ni 5.755919425575238 6.523251396728017 1.7438094450443458 -0.6288355260912977 -0.01693020009643536 -2.0041301770273483
Ni 6.15018885177212 9.234289759122722 4.918443669755281 1.4991842852038761 -1.7987136897286249 0.06976302762675081
Ni 1.1391335166598835 9.019487247177896 10.825967444389612 1.7856987655261956 -0.2567796722620481 0.6905270895638236
Ni 6.36383161239908 3.4019003815726103 7.4797461713252344 0.955564888069606 0.6944631913934363 -0.8869650275130208
Ni 7.604084398726267 7.847411270465284 8.880354826973637 -0.1651797512658639 0.8335591010880548 0.3117352025623212
Ni 3.607737831742819 6.240262870793077 2.7863439608639426 -0.7585862471255903 -2.076534756042004 -0.20724505586703018
Ni 0.6709676818887271 9.266781204774059 13.431213475656056 1.0287500540040284 -0.022302777262258367 -3.6011685916672365
Ni 4.638397782680039 4.535023441005774 8.753439374421792 -2.2973241262523727 -0.14468137420219596 -1.4175761853130813
Ni 2.7795281207775933 6.5399021120773835 7.296626960859454 -1.8280728596170326 -1.7826607500308203 0.5130662069377615
Ni 7.018649296967741 2.5317003094001906 9.54295204974754 1.3478671508527174 -0.44204745252703864 0.12029703182056058
Ni 8.199809992336974 1.1875117144908818 3.520219867808937 -0.0930839617408784 -0.32282179939378597 0.5743438228013206
Ni 1.5528149708677195 3.2387896426526863 5.394339339103773 0.8241594050407096 0.29788184161899667 0.7907857146762703
Ni 4.735816893380817 7.233737144554264 12.91986163129524 0.41581680096528395 0.08220922380990357 0.061303326895171845
Ni 8.20704463151033 0.2985917833480119 10.749880394437147 -1.3899689651187739 1.148665534115454 0.32324191765034005
Ni 3.8033676294406953 8.103016779172822 6.09225835300714 1.110455598704636 1.095725748693629 -1.011288406884155
Ni 8.556810901977974 5.663995327071018 3.349737344520131 -1.0934150982825814 0.12798154494901184 -0.3833653653047978
Ni 2.7514547753847958 3.9191218562144075 1.3115121413096462 -0.689551870134748 -0.9562832542928691 2.1703656232512363
Ni 2.979318296218927 5.446385480586913 5.272097868450439 1.2139772108390707 -0.09841025904979826 -0.6653153661848865
Ni 7.530191671902208 8.008727156155176 0.008525092623871881 -0.0460469149567336 0.8990710667479355 -0.2107515263583919
Ni 1.5324733009273646 7.83140486140362 5.734629704954405 -0.5458354309489826 0.5083320346868858 -0.16839285888652292
Ni 3.892953816558105 2.3346254247427507 -0.06334911464456729 0.5413488559325386 -0.6166268998402477 0.7675961639336845
P 8.286616458041719 4.000506944726905 8.30965961220266 -0.047265617855183115 0.8396076212749798 1.1569408867503688
Ni 7.302116450430688 4.891812650009386 5.546823626464358 0.8209223861606507 -1.7020270982381527 -0.22279894444122916
P 0.6240594228312467 7.425583943905767 7.680390512816552 1.0110942885954781 1.4347935776326322 0.5613175857449816
Ni 5.175427073480952 3.7356326298519744 1.5991516382042517 0.12491293332601712 0.021001027731699314 1.0141611004462598
P 6.680167590910448 6.86506508673029 4.938987835957486 -0.31392989622079487 1.2070671139827986 -1.091946484156855
P 3.438432548085402 5.849822464820262 0.7061817818243878 0.15307294070000088 1.6953293745030027 -0.70202866244552
P -0.4065268931016651 3.534820768725854 4.368010046857473 1.7133193833225204 -0.14699768104019845 1.1747048956020092
Ni 1.2652150527879302 5.878650569007227 1.0966369147980648 1.0989961919147846 1.5532000772986991 2.1762981866855875
