# total energy = -340868.72527981893 ev
CRYSTAL
PRIMVEC
9.25696950094435 0.00000000000000 0.00000000000000
0.00000000000000 9.25696950094435 0.00000000000000
0.00000000000000 0.00000000000000 13.54851057344701
PRIMCOORD
 96 1
Ni 4.5395437394789395 1.1601667183093443 11.046940514527485 -0.9676516440308109 0.17632651191130277 1.2280781690168268
Ni 6.4294743837048625 1.8817289693348593 2.859020554300058 0.37277961936915155 0.7121192139123026 1.3528337508293735
Ni 8.289930837351614 3.9537719726261202 4.1071905036329595 -0.4760078686328835 -0.6473760080976464 -0.0809000180801768
Ni 7.010978687662895 7.6508852115844945 6.451407847008344 2.9360499148741885 -2.103397641871119 1.129426483380184
Ni 7.56135180351862 9.072209550691445 2.0637228391918385 0.18843563647001094 0.4566042672952911 0.7338208672554524
Ni 1.9986907777418406 5.671708125344191 6.653334749080817 1.1468061123092121 -0.1474836195376815 -0.010822030316168458
Ni 1.0916281168494877 8.440837952559418 10.198816977824071 1.6663335014912852 -0.5906487306089311 -1.273180203561788
Ni 2.812285818572042 7.148361370572908 11.972723544643538 0.42032240214512123 0.7079154602436002 0.6889479180021618
Ni 0.3508289577075857 7.274857857464986 12.596768251493085 -0.09799656855114736 0.42598757085069866 -0.11646943054435424
Ni 0.7739779888761561 2.2541831332648075 3.569504064344055 0.16893021944723163 0.27546362182479656 0.7865590781894325
Ni 6.357066369034549 2.403331424286041 10.64003839035813 0.39788489907721153 1.7005723680694973 -2.0538810231982305
Ni 7.948913341514274 4.284134696680599 10.461007676407053 -1.1036010376766479 0.4030929256407122 -1.5566684954632737
Ni 8.448308326867643 6.643236321159078 10.422219123214578 0.12346745912874219 1.0050061734198692 0.16527153964872182
Ni 7.790600650784064 0.7526434514930481 6.676164287022511 -0.04192646503045683 0.05288759202765085 0.18635201446810487
Ni 0.37310955736368095 4.728858020739816 11.880756479321613 1.6730067997464027 0.6982905355593264 -0.08471913471595087
Ni 6.97108114953594 8.061357748852588 13.37274574576029 0.5017263564449101 0.29706963013034643 -0.3972711767526126
Ni 3.0496252570957134 2.9869370602985565 4.198100423049061 -0.41262169106675384 -1.093461892360117 -0.4957886508042365
Ni 6.760596179250388 1.0193311858120104 12.322654576319032 0.24610882281176322 -0.08999503840290952 2.0470696567033517
Ni 4.4778182674996945 0.8653359456113631 8.64306940892525 -1.962928505978058 -2.032894136533918 1.5023984212657997
Ni 3.8094558196332557 2.1795349319989668 2.1362067610112567 -0.615179882981076 0.4640874630462137 -0.47807580690550566
Ni 0.41529449263011975 2.070885882115885 6.010390087801151 -0.29427921186940287 1.3704908017895043 0.7128607200640175
Ni 2.068414271285282 0.33813302417136293 12.338371058971454 -0.827217218030427 -0.222266726086843 1.095895955722906
Ni 1.5377585002579606 7.49009165305428 1.1308952553600988 0.9433148670576592 0.4015181249544246 0.7156403396916836
Ni 0.8690785383409984 6.605393830239589 8.428962186512301 -1.1154491952644854 0.7575552347579148 -0.10292485909070015
P 2.5708640565416445 0.7758080917271304 10.357524941147789 -0.7257949116271822 0.6616158058461121 -2.258323062398827
P 3.0800066306763796 6.101870236532478 0.4801321577226547 -1.0620764360703001 -0.5083418048788988 0.835873093933212
P 1.9342437567581126 8.494713514484912 3.207772248073609 -0.02042792883704869 0.7336406329238462 0.2300448273703651
P 3.5399946972811525 8.913063732714965 6.935170588130858 -1.3773152809105054 0.3779647631145168 -0.46822873890809685
P 6.344893454269595 4.0158492094426785 2.3871659786175714 1.437958348513859 -0.16201266639179196 0.7106215463208536
P 5.829669051237085 7.438798785592223 3.032211046254779 -0.12028006253969607 -1.2150704439032494 -1.9892715147479612
P 7.835126673612524 6.0049960517300205 12.518945835418954 1.1248892576314626 -0.3896517125341418 1.7276499410125794
P 8.24354416367315 1.3646624293911507 4.5233458944175595 -1.095553484781823 -0.04513571599637388 -1.1489879504518794
Ni 2.158965945985487 2.2212190652207027 8.469769684731574 0.9691333707826599 0.13056396096420742 0.938779698191467
Ni 1.0425939499217647 4.329382763122493 9.373144369013769 -0.2833227128578991 0.13229817004649475 0.2599385296060039
Ni 3.669296045902341 7.142159201072894 3.217757740968632 -0.39709968417175484 -0.32609044284272876 -1.1067835491696874
Ni 7.865896839908116 3.9580116646126964 13.215582770629934 0.7469193523106232 0.22242690581379115 -0.18285197173464635
Ni 2.482395199957115 7.7469818109571 5.291668800685419 -1.0560250876698976 -0.4486916973164337 0.4720609681699935
Ni 0.016619037169216748 1.6230985011842733 9.55791903247941 -0.20141096568375633 0.2264527391437326 0.30610474374942126
Ni 6.142517589181078 4.396171797365182 8.951798595484904 -0.7469275798407395 0.20374758423673295 -0.5506040559822195
Ni 5.154678613278094 3.8257851136601584 4.172927946151467 0.896600493720256 0.44495151354771106 -0.6742039269237678
Ni 6.457134208281044 5.606039184399265 1.0814852554746137 1.1499076340526713 1.4610527684394772 -1.1587848819376432
Ni 1.2647519586245066 4.214735197066263 5.022717737347421 -0.44653017088874064 0.45235012000462743 -0.07455479258843935
Ni 3.2637759872648555 3.4208019592480468 6.460525961870306 -0.18433472692775996 -0.4333807779909762 -0.2605095716181255
Ni 4.658838304175478 0.12672791112715273 2.7699796170064235 1.0178089816114921 -1.3864606948551992 0.6441253623708326
Ni 9.004004200130096 6.488080256995294 5.33102758319312 1.3263598729085608 -1.1195092242664721 1.5374829236737586
Ni 5.541332968272253 5.054110897683836 6.19195350858089 0.6297948046807734 -0.7012521892908116 1.0061289741704025
Ni 0.9091084511304175 2.656565079274674 13.305504045713796 -0.6781634257921483 -0.32636606510161853 0.07974944941550137
Ni 8.416556921815333 7.0728892990302 1.481787160459625 0.5303607323521511 -1.3787191032365673 0.0987650712860557
Ni 4.778392064015302 7.1248764391974815 5.625395507420952 -1.0744041043977173 0.1642328139715623 -1.7111452584893367
Ni 3.373304449241223 2.275168682901422 13.341082281917307 0.4142340298591963 0.8056109526145608 -0.6255625117669806
Ni 2.0317289015411695 0.8352461665668919 5.111365253441428 1.2916224694273757 -0.993050800830206 -0.3834918635803331
Ni 4.353321285998667 8.023320861575636 9.953223099683738 -0.11052786824893868 -0.4075985268205496 1.1160086673123812
Ni 6.510380296287135 8.472755983060983 4.635867134601918 1.3349627840862235 2.3806039574186357 -3.0952171413973857
Ni 8.17616268338867 3.228071856277461 7.880179418000013 -0.023395753216120998 0.1258274747204865 -0.06616939673822153
Ni 6.73122381533465 8.952859444178488 10.332283962676613 -1.9537959475491706 -0.424912592618965 -1.1076217288002668
Ni 4.455249776095166 4.429904193869735 1.4756090590800588 -1.8386022983934465 0.29976928844969664 0.05416080231311963
P 4.9917281808769784 1.530445494429586 4.3856938336979185 -1.8428757289578197 1.7041060922543683 0.2821034957388174
P 4.155185112896725 4.633520492858256 7.878756621802771 0.3824302550850382 0.8565751023672539 1.5727232349332914
P 7.852011385803606 4.881755384369267 6.31645141577886 -1.208356007997551 -1.086700405266567 -0.7098756692937646
P 1.175051925109378 3.676627565669522 7.263234806682571 -0.6638503516035857 0.8607919686620787 -0.05855816004986689
P 4.581598151476796 3.6225483504171607 11.804763240401515 -0.15476215547696573 -2.7862667006690534 -1.068080990393167
P 6.688984263948734 1.1555752614854533 8.618735613455566 1.218312862099947 -0.05065381760112567 0.4461347352225349
P 9.07095985982204 0.539012037307415 0.2795762128187676 -0.8520720722905777 -0.7920974915091583 -1.145828064666659
P 8.424990020941472 2.568503529343878 11.48226801464265 0.8695023519518833 -1.4318537782780179 0.8547686452861343
Ni 4.722257801555473 5.396850189830134 12.728039483203233 2.033163331034905 1.0746349894616007 1.9923871775588076
Ni 3.4402693659025685 0.1351258337695598 0.8402245647118286 -0.1507391503605017 -0.3028926645700267 -0.5773687256705734
Ni 5.3077796302344105 7.778307395416872 7.697816195063854 -0.33483116514983624 0.643440420488666 2.1893354794855195
Ni 4.776707295583955 7.393856199140629 0.5850339863913998 0.0415377142324704 0.6870756406801134 0.39268381449224626
Ni 2.0820683011547163 4.98723855071652 2.7702776914212 1.1007597115731107 1.1471794364882306 0.46436565640826477
Ni 5.345288870255391 2.3141682949962865 7.381770299888064 -0.6455371551166946 3.8295087776416694 0.9950585752888541
Ni 8.254606242109743 8.448984085634063 8.497896986262607 0.5330045977329013 0.11782877278572611 0.6602623771420113
Ni 0.551012772441472 4.97999960064337 0.9209545948754443 -0.008140369718947271 0.24262214981474348 -0.23758947248684248
Ni 1.2030357436146653 0.38716719109908593 7.596053404719669 0.4444871723167828 -1.3788191191495414 0.03551490507715819
Ni 6.630924551853079 2.760891124446552 5.784685734120118 2.3303134366941998 0.3684591376169267 -2.4040714444129567
Ni 5.337707412314329 0.4590188619082785 6.107803953919805 -0.28161498613817304 -0.7722596308476248 0.9432670445388592
Ni 6.174102368784134 6.6233523508814205 11.51906539371654 -1.1402053191632429 1.2363514647692126 -1.351571339177182
Ni 2.6698395733985847 4.656181553956816 12.397063022077333 -1.605649296237351 -0.054357491704957996 0.9602142139161592
Ni 6.140231117738535 2.8724746336303872 0.42074592191155 -1.9345170447149005 -0.06792520308706368 0.37742637411254354
Ni 8.670105313763669 0.017891870462130078 11.254083718858551 0.3689576745199001 0.9509991230757943 2.43508254808249
Ni 7.897379792847739 5.898559417534257 8.239851558578291 -0.34452653806072925 -0.24276330337829807 -0.5267701867874153
Ni 4.0536454155151525 3.2655996102372473 9.635768293764812 0.23019446557435194 -0.8634908556504807 -0.23730587980815257
Ni 2.1008877199510274 2.8169605881205597 11.170096161162018 -0.25825934213136814 -1.1432633892632762 -1.0795270274465794
Ni 7.030677518552492 5.936485221178372 4.2219324907771005 -1.223755373271757 0.13369967837971167 -0.6068754768804386
Ni 3.028121317172531 7.259204322204503 8.164738657448419 0.07724030984040246 -0.515320293079261 -0.05820000537949977
Ni 8.405022737939188 2.3614899225844534 1.7832959108849349 0.6558264528578447 0.502739885311089 -1.3468543933174868
Ni 9.066794223590687 8.061154095525723 3.7009382187156965 0.5613319839226849 0.7611252114973601 -0.4152138772739623
Ni 1.2770637279305046 0.84592593216714 1.765682675201835 0.6811968133018333 -0.3875290097641842 -0.19999505917283622
Ni 3.9136615242028947 5.466916191241488 10.468175347815802 -0.036987632967942746 0.8122112315398979 -1.5502934451748656
P 6.15970778136246 6.689382313633063 9.361790696040982 0.2896635674742624 -0.28019727985504 0.05426801731494525
P 6.056538857365957 0.8497296208948352 1.0203290871136543 -1.4098788166688234 -0.9599673880126758 -1.3473539586617247
P 9.210110623888026 5.770572558568295 3.148809055764222 0.3073483863485352 0.061583062919119747 -0.35184029811332307
P 1.5741754178893868 6.300552570829197 10.431228931534523 -0.07159648129106379 -1.1445294004598932 0.4801326894345344
P 3.5715146780983886 5.376697767439791 4.610842769214773 -0.8201322861591875 -0.3977491448302956 0.3803116660801385
P 0.023693213186993967 8.31264744026659 6.502160107457265 -0.6076372947471278 -0.9851809111638259 -0.36522777516382265
P 1.6792327636441022 3.150887245395197 1.7801790892869427 0.6236318704031711 -0.8185644274514354 -0.39231357563702113
P 5.008205586414329 8.578961193021671 11.97624674719832 0.5021495600252578 -1.062879905808202 1.6650374083876809
