# total energy = -340857.4530595646 ev
CRYSTAL
PRIMVEC
9.39728150507659 0.00000000000000 0.00000000000000
0.00000000000000 9.39728150507659 0.00000000000000
0.00000000000000 0.00000000000000 13.75387137444709
PRIMCOORD
 96 1
Ni 3.641925753073767 5.330147333045699 1.1302645827232403 1.9182324486222642 1.741820833196323 0.37304495721539627
Ni 9.01021665079025 0.5020694860858248 2.8407793330495696 -2.0843599085133775 0.5319213919710517 -3.458627660846811
Ni 5.64365943074135 9.159624025685734 8.845609173442194 1.6658439634493765 0.6588744956555491 0.5968150073206431
Ni 2.329999506955529 6.215643749740245 3.870916823579974 -1.4534410175304906 0.667715748096263 1.332120943762054
Ni 6.268503456878247 7.028818689788736 0.18906484157869916 -0.5618549463056904 -0.5399828288229476 -0.8933130812182357
Ni 0.08095381921973953 6.426180439290434 5.160205019121244 0.015591426680353794 2.1139890442337204 -1.5341312335927062
Ni 8.796466091046073 9.28557578653385 0.4008748627408331 -1.9948189269287515 -0.008327546029088884 -0.3202303845175259
Ni 0.3303680011078166 7.274679759629012 10.567525645132173 -0.01274264437764902 0.19938673616487598 0.20308835338617928
Ni 6.228395860422249 6.675048639136782 3.6248743862112063 0.5853566289720563 -0.3153586582475214 1.195251095184477
Ni 4.193743506469436 3.021752175727552 12.310374560848803 3.225945910074231 -0.5497116260749372 -0.28985640021135883
Ni 6.568718401578295 4.823333159647167 1.75399033238913 0.07454785060990388 0.6729564276699119 0.026829975708650568
Ni 3.319241908859594 8.236557278477813 3.043415728236927 0.020718463494273996 0.1690492615235992 -0.7520890694370208
Ni 4.1721109649882475 8.05826266096149 7.451984843427712 -2.69130891894423 0.690437872284127 0.5927426370234825
Ni 5.323992113814519 2.1769741787714882 5.617699441235797 -0.3267134211387083 -1.1041419977817823 -1.0275789165140627
Ni 3.273721478392664 0.8587884035999831 5.757948225806536 -0.6949902675414998 -1.3576890220391455 1.9512114746514462
Ni 5.6380210619799636 8.563723625857289 2.1961634271227415 -0.03841408100182416 0.7325836524142415 0.30031539076115377
Ni 0.8062040368031619 5.191584420734616 0.7672297524682018 1.6077414028796893 0.011568164453573625 -0.059693559205890735
Ni 7.587035991728578 8.572773207719315 4.668917033835318 0.2976409292527842 -2.443735081551165 -0.5225813455170485
Ni 8.288843751458408 3.8630907677391693 3.5458714425829068 0.06173064424057756 0.4444969425087958 0.29365880467658456
Ni 2.0665373292984563 3.4558877757918065 12.656958510514368 -2.9442771878799876 0.8991759677569159 1.6062725316436466
Ni 1.061733029612963 1.6786739422026502 10.856893308063437 4.266473673439478 0.9979847477967134 -1.8397253562542961
Ni 5.361139566670789 3.026779721206455 0.5147276239551384 0.2381486874244221 1.0023090862036803 1.335476233387532
Ni 5.982920079114001 9.085667422098876 6.378880163751158 -2.9753379138405336 -1.1416687910826466 -1.557547041413485
Ni 8.748549353855552 3.396374793515367 1.238614296026432 -1.0672980894805555 -0.7500316726873599 -0.15868797289393313
P 0.5742236911252931 5.221430186044891 9.67865372500581 0.7358173288601908 -0.9288678383943938 0.5487847433852937
P 3.6065825782211407 0.3605999946782464 13.223150345339066 -0.6161517599760421 -0.3957375137169055 -2.0984840066195862
P 6.205316137625639 3.336279179800252 3.8868856236403486 0.47400215105676435 1.0825267335048518 -0.057697868932100625
P 8.495978625189226 8.70589509417566 11.930039335777575 -0.03775176482747692 0.44265063332867643 0.7531810169496189
P 8.712642342126786 6.023102853820151 3.1286894776560157 0.16494912331229658 -1.341139859431213 0.29801631031433196
P 6.557657801524707 2.724581950158654 11.01327440538863 -0.82113295950956 -0.25513750867293483 -0.1067372908582549
P 1.1402473146152758 1.1876941877423468 6.425093173847612 1.1859300748938673 1.5314639711731883 0.7973230015741558
P 1.5256298194560716 8.85974738311137 9.776581853381705 1.0384395133776503 2.8494330489148925 1.5187686350937069
Ni 4.80198253660405 7.599966650754692 10.134691568523671 1.372049661636192 -1.4201223487737027 0.0025299655107053204
Ni 2.517916940491286 4.36015996046177 8.647719345023797 -1.366883286943904 -0.21981286522971177 1.5346469968868601
Ni 0.6746045099123912 5.235150216697599 11.90673971659927 1.1267882744263884 1.0504601919876102 0.05183472528310428
Ni 0.7763000083490195 7.410423487559402 2.26850839697197 0.5517188863129531 0.7508677954354099 -0.20347479019132053
Ni 1.8004815020111455 4.815975088413558 5.9605564291500865 -1.248930329875488 -1.0336379782239489 -0.5812847728955279
Ni 8.294397544688374 4.795705152716372 5.92124760160195 -0.9627254103737872 0.832687754226695 0.48910352547457703
Ni 7.11918294647123 1.8272167672213886 8.47832583232545 -0.9316597993172342 2.0382687705822704 1.086348164133471
Ni 6.471700869757363 0.07893810238754372 11.38838380234618 0.033373690364439296 0.3523925710723673 0.09011022382453514
Ni 0.2567421818216263 6.0527324816612404 7.686832299620746 1.7902015384925556 -0.13243135319024935 -0.21430787625108252
Ni 3.5668038866095553 7.902812834210053 0.6664232368396188 0.3557252349900261 -0.6226327397146956 -0.5108707419483395
Ni 3.1303941444782084 1.7703256264189946 3.6170069823328177 -1.500587593309306 -0.10210442007193384 0.7473638960472095
Ni 7.746113169049841 7.405414736643037 1.8926566147941721 0.6464028455510997 0.7924880420793577 -0.1029999353030097
Ni 7.787536384883497 0.5938489733274273 6.723153321952681 2.740524975657564 2.4562445268720863 -1.0928093463777826
Ni 5.1343925669316155 4.834553513482327 5.361630104753031 0.09130810078737824 0.8422728268119688 -2.0170386575589005
Ni 5.29353552522176 1.7241849753883118 2.782930609285867 2.858880053260405 -1.6374142473537734 0.20833854604152507
Ni 4.039515326282966 0.6054555554227421 10.49850825258029 -0.03855034946937232 0.4915998095338695 0.2654957119788073
Ni 7.604909620702174 6.3257704889314015 11.360449444046015 0.0805349214312742 0.5932763980397653 0.6793258215313654
Ni 5.424110748454213 3.6863842907573035 7.243668731441384 0.7734287114550615 0.4005516472760972 2.8413646700844613
Ni 5.343002813821662 5.419562464320027 11.2704582594299 0.7937769360941103 -0.3025795042049821 -0.6990682942656153
Ni 2.673902412275055 7.146181335557005 9.444618193914415 -0.6260654195453283 -0.4183393102768215 -1.4626350253249325
Ni 3.6229996285980453 0.9281929641401485 1.5683122709797706 -2.015150182286936 -0.5291230032903081 -0.8062133620852503
Ni 8.29847596475911 4.01869095099091 11.321444148682868 -1.0124711143383467 -0.24860639242263635 -0.08078997486487377
Ni 0.08188321033724148 0.9716037049621932 8.192740575104947 1.021199238239964 2.03533668453714 1.6807154812445702
Ni 7.386169104604169 1.8862974745594545 13.254811665390507 0.7530504049090256 0.6585556788635497 -1.1594312572723904
P 1.7041593690041192 0.2764745930302267 2.8791390351895383 -0.08092367222926064 -0.420567942497024 -0.5769632627020386
P 1.9196014393767133 7.041758746096119 6.024581046163762 1.3729649743616095 0.6020888541250727 0.9840180012039763
P 2.760752085762951 2.930232053448973 10.839494241793926 0.40793791243783933 0.008369455010617843 -3.1535780978347816
P 0.8427444252894567 2.168338077285297 0.3454036511381818 0.7459708723544249 -0.18160910046648077 -0.533019767241553
P 4.556666509077373 5.40758093070208 9.05743329052623 -0.4716776166886458 -0.09746512152770957 0.9591716315842578
P 2.712168141602334 6.138773988960004 13.193923860864416 -1.3925233561095114 0.6591516605763358 -1.5467142124640394
P 5.424082556610405 5.053904852862816 13.300089646000698 -0.4171365482179719 -0.4761919596192315 2.03614889602579
P 4.657452350687165 0.13128095905575224 4.3401437513588474 1.5960775933885158 -0.3646243372518688 -0.9924972423195809
Ni 1.3191527554140827 4.438777615558043 2.9610711113893786 -0.8292820709792558 -0.24065448456541133 0.1159133009305681
Ni 0.9525930049550504 2.6626632638773566 4.498808388032402 -0.06400992719305751 -0.48965862664709864 0.8500414150137943
Ni 4.123949898484734 7.524929359821901 5.186832215596894 0.21533554618464848 -0.5939502841783384 0.20948037295545216
Ni 1.6244422319993772 9.340314949925647 0.2753892070436597 0.6996789312664208 0.9741925304731223 3.4796191754968135
Ni 3.0541727961055263 5.395167122145759 10.851281251689603 -0.7542752784550623 -0.9991569137279439 1.6215477126351625
Ni 8.519114731673449 1.7682394299772815 10.934479141676375 -4.9206085975275125 -1.401075873665213 -0.30938110050784784
Ni 3.0700448041688304 2.8340132905359052 6.940491763685356 0.47477990976305334 1.0288708958526087 -2.3789972750531483
Ni 3.3336197492011306 8.110116859003712 11.725752777999386 -0.35533031354445255 -1.235763967696859 1.8494117303041246
Ni 0.3494379039869541 0.28083963017966707 4.779112373179737 0.6186452158218572 -1.2729194937012336 1.8820801670714231
Ni 1.3433225628378946 9.280059582428958 11.944164389252977 -1.3623339770103249 -1.8899569987163387 -1.328220066045751
Ni 3.5040300477327815 5.69423559853099 7.141161307903116 1.498842071373109 1.2684858834099122 -0.6395086895344277
Ni 5.837459562351487 6.647091727361572 7.869056860163755 1.5297639577629458 -0.4435381781399523 1.071508270907161
Ni 8.045454166591872 9.210115617943954 9.355823283203842 -0.5808420289311544 0.7045714834720317 1.1124880557536325
Ni 4.159706553713197 3.6819393767170765 2.7451488399439397 0.8452810175106733 2.0617311153702684 0.9849780511244003
Ni 0.4410773717376487 3.184682238369095 7.519309785623053 0.4952124665857922 0.6725471080466353 -0.24745839486112226
Ni 0.38803065870239367 7.16112301277468 13.393973184518424 0.08308699842916659 1.6038706070703734 -0.47538154790279413
Ni 2.5558631622554198 3.4647682065909904 1.17586395035283 -1.2661698336822258 -2.8302809014664745 -0.4395889636842171
Ni 8.081013478913686 4.735252442313035 8.702170011880638 -1.1907256965102977 -0.5354983106890326 0.197017464601751
Ni 7.351286396533722 1.354806040548586 4.4661161862257535 -0.054018363197984386 2.136685200279656 -0.4439683236988354
Ni 8.442385930112243 7.889421708401759 7.003278758755907 -1.38536617623944 -0.8988692351497745 0.39439616919766274
Ni 1.0927158659567842 8.42179648685191 7.866842860696784 1.7599831059276463 -1.4859531312255827 -2.6717777908898372
Ni 4.712548610767184 3.2839175285695053 9.764202814766081 0.5733161528677546 -0.34862899026487704 0.1136252762273398
Ni 2.6607086293734095 1.9075823166336903 8.836806740077542 -0.6170878986370663 -1.4341022079925625 1.6212139834448274
Ni 5.486518093361497 0.7606591734049323 0.21301757180519768 0.987418285134777 -1.4592221429886416 -0.5076573772173644
P 4.7509083129071525 1.2099375525060183 7.69425897100762 -0.8617887853577093 1.6202156240872998 -0.466589660642777
P 3.1307700357289674 3.636428343531415 4.730973860151269 -0.48863815580238434 0.13570873838994046 0.4562610250232594
P 7.880569469446382 2.971504912782325 6.5421250353152125 -1.5500016249660598 -2.930515872429837 1.5175483895333606
P 6.775731110652615 6.789432346742785 6.01209205935729 0.4078849477127168 -0.18866806419579119 -2.5209579078900712
P 7.197932163505267 1.3239453688612617 1.571654883927146 0.8237629409332394 -0.4369001039981444 0.662829109427923
P 8.372216430876783 5.459031045649735 13.463045081301669 -1.080943191067816 -0.5312089392850593 -0.29381152820436496
P 7.816639764973522 7.240295107465821 9.36213637676034 -1.244662041517437 -3.153600980652917 -1.4075789648910533
P 4.264749363737835 5.992993964634345 3.330265859516232 1.289945595945585 -0.07292008519849377 -0.9778218996955933
