# total energy = -340861.75611297635 ev
CRYSTAL
PRIMVEC
9.37206594391870 0.00000000000000 0.00000000000000

0.00000000000000 9.37206594391870 0.00000000000000

0.00000000000000 0.00000000000000 13.71696585187112

PRIMCOORD
 96 1
Ni 2.4312826111025876 0.37342340832769827 11.20429175222031 0.605128669392661 0.574798650950552 0.19962019233192071
Ni 3.029286024769422 8.860407405160988 13.723961380326525 -0.9369534436160056 0.9020697443649432 -0.5881282781799225
Ni 4.236726772592591 7.663594580153469 11.905983017801557 0.3786880144337865 0.9602504664707334 -0.5895470129043202
Ni 9.401681703481147 1.8029137036767529 5.582791622665182 -0.622268157286425 0.6519775114253998 0.2007314231182285
Ni 7.885356405253923 1.427965460214922 7.7722796176457525 0.18700404622980699 -1.1199442549213616 -0.37061577894861336
Ni 4.003952769971512 5.602414854403637 5.104247373535492 -0.4882044106990753 1.5523261593341782 -1.266162634593374
Ni 0.6251421051106423 0.8255768568783853 1.2836984370419524 0.18768770256039288 -0.1323418788002366 -1.416440271936425
Ni 7.735262768664295 4.958610154316977 0.4809912955557625 0.15183289764531271 -0.45892160257455805 1.1012196819286648
Ni 9.122637811141491 3.211638312445 8.600016735731376 0.5832956326779697 0.8141824963336558 0.8977160953819378
Ni 8.269526761635154 1.0140762826269658 12.73359642461631 1.424083904524612 -1.4577321887066765 0.2732948963082519
Ni 6.828159247075981 5.5293783442604605 5.347723338293423 0.2808904492673227 1.544372194594424 -0.8210278013902634
Ni 3.4932876391257044 2.4183679041890374 3.9350821431542236 -0.7758401491100315 0.6711882800258957 -1.0619918467762937
Ni 8.00321013488955 3.799276221143484 6.697911897395014 -2.2565045211328494 -1.8754456924740408 0.2929854327586438
Ni 1.6816485420262262 2.6711887559306415 7.479655601708323 0.8825136766098866 -0.5102973859433727 -2.8745822944870105
Ni 2.4166528161156124 0.45082074076904205 2.939915878045016 0.31415229664424604 -0.4455415817232262 0.23255936626210272
Ni 9.495402363231149 3.2680487775485254 0.15474967896600741 1.071320066155755 -0.7246574555886293 -1.6980706846935658
Ni 0.030517321227795473 3.1295015262400985 2.5198064602694514 1.7663499286859385 1.1655880209024054 0.029378196051801014
Ni 7.774184958658471 2.0824824317110076 1.1329290744955276 -0.7056500612481912 0.38266936767903775 0.9505653779724856
Ni 5.623483258715437 5.2810279679889325 8.383096519913607 1.5514550695831344 0.19803202190919442 -0.44476613700978235
Ni 1.2061942630484939 0.34885266296104045 7.422236702305887 -0.8132774680208832 -1.4702228649745197 -0.6715070968178951
Ni 3.1792578245013745 5.663127097789688 7.441412886497336 -0.8345487186948336 1.6716806247358116 -0.8302189809712283
Ni 3.5579080340233302 7.9494144761930485 4.387289012480968 -1.301256392972714 0.45375342811005726 -0.5715557185332222
Ni 8.954118692845014 6.542376839300302 5.890792387247794 -0.997413705784592 0.1668712800356739 -0.6723041387978937
Ni 6.172498883530946 3.3047310437746766 13.520923068630927 -1.354183322878732 0.3366355653484267 -0.640441228651026
P 3.250785432022575 6.3758914593204 13.469827502141824 -1.1409211142833446 1.0002563174397094 -1.2834682157513573
P 4.695180123891673 6.744879068822129 3.171925120082534 0.6119094397599203 -1.5924484812763606 -1.4914012988243477
P 8.620341935211359 5.467100965856584 7.7008963399405665 -0.67706350785975 1.6068641424810584 2.4412560238830534
P 6.221627253371897 2.4923884812595887 8.657243507781324 -0.6169994526883181 -0.05831519080112537 1.349356076693418
P 1.6315548493898502 2.939735934378296 4.997790076125465 0.5474333715637217 1.768338676981193 0.072990533425113
P 1.0732140189292168 6.598815420601753 11.01499757527705 0.7487895727501428 -1.537545658590894 -0.22253206393308775
P 8.225637376674229 8.776658623608387 8.707324079525335 -1.7982478058357998 1.107836415914234 -0.8142740276061976
P 6.71040861016608 9.175889890011444 11.994197588791247 -0.4426796867943989 -1.5341826556559321 0.5524423947425389
Ni 6.76064288379208 5.988065997208918 2.2962751891129183 0.14204085125555538 0.9583805031415302 2.010718628878144
Ni 3.606305382718231 3.3978050309724024 6.003490543390574 -1.5364750512345347 -0.7506163415462364 0.6237308578748806
Ni 6.260155816595122 8.36955482178633 9.941480838616839 1.0926741063514989 -1.9636515001870118 -0.31935312411889516
Ni 1.9768592481727558 4.590765936864196 11.607488339737387 0.18286328458855602 0.05874250814653109 0.3794521462933207
Ni 4.530353599589345 2.8053498803627686 1.4337105366575973 -0.7749245792742977 -0.7550118995107706 0.7478457207796346
Ni 4.962930676731452 5.701533824155238 0.8801972573806862 0.9489584384966818 -1.0742660361579563 0.7075881588111685
Ni 6.338318846826623 0.47959392051888994 4.252876716680711 -0.29573805580311646 -0.4785015815890146 0.5184989479175587
Ni 1.1102711677943673 7.4420389405044665 0.19137383838311298 0.8521204090300099 0.5847637325830638 -1.334196338233844
Ni 5.862930172310716 3.4622473566165035 10.761028645453507 -0.3789006446652249 0.11578166044871027 -0.45569126856271847
Ni 8.863069071897888 7.191486128728812 1.6783120865391261 -1.0549750491388283 -1.8635795371640744 -2.2266100475662616
Ni 3.080138854749773 4.18666119615414 0.0579990302862884 -0.13267560799057151 0.4547931822284812 0.684783245101511
Ni 9.156536573773067 4.553708787999046 10.554697926980891 0.40732933231956303 -0.5109051947307007 0.1756593106409491
Ni 5.448637995885835 9.341550528185545 6.899647491920087 0.8810152376874891 -1.1435598374577725 0.023337389174359808
Ni 2.9353872957658953 6.845731870779106 1.7243045631048417 -1.1146493250710094 0.5403111586966436 1.8876538045044586
Ni 4.567766886961546 7.499442844601341 8.42855385151215 1.5904322221772802 0.4100619007593777 -0.42956500378931184
Ni 5.637691310733538 3.7163990417265578 4.273698635657369 -0.8077452253487443 -0.5104467670370435 -0.44647617772235365
Ni 1.0383780497001411 7.458777450335816 3.260097516775336 2.14860663430759 -1.3575776932722619 0.08604556683685827
Ni 7.434841193835665 5.887634938220816 9.881112550052071 -0.01372532000589249 1.5754200650391643 -1.782476401934156
Ni 3.9071393284497606 1.5835792436638247 7.828945002943799 0.18550586441772568 -0.48808665417428837 0.9600013265744047
Ni 3.9914223177629373 3.8792668042401104 8.40711431338774 1.264296270808597 -3.04271110107887 0.4016875606527534
Ni 8.216434007886777 8.200557728125128 3.5343138579312674 -1.6149469194891928 0.03214238906049949 1.5423952733737114
Ni 5.995816695770244 0.7496781177864441 0.4170438149951415 -0.007065648597529767 -0.8489270989036928 -0.3702277994815753
Ni 3.1783393620358247 4.775573705825224 2.9154454137842905 0.17003245137247489 -0.5196762560551115 -0.4024344661211069
Ni 8.011054554110624 2.0201863091751813 10.336762716418031 -1.7927988669060866 -0.16222066863753995 0.10362008538551187
P 9.100950850475343 5.4856764006190355 3.092641190760423 0.3759027383791655 0.6983807812802876 -1.2766851313912528
P 3.3682830231511525 2.9341408109912206 11.11282694875049 0.4436628766432746 0.977367328656678 -0.2563011899637328
P 5.185864010078781 6.189968414508346 10.277052346884709 0.5576748467860718 0.04711932208530594 0.9194267475861521
P 4.692640294012447 1.0461474923934162 2.906364819061112 0.13669964154830005 -1.552257253769456 -0.9078328721009655
P 6.2306619249717965 3.875808511895335 2.2218056900821646 0.8158639978011368 -0.21250064783901468 -1.7665738717712867
P 2.2293145893413344 2.963072378656046 1.7778556108793953 -0.7397760563976227 -0.040813691582252294 -0.4210970755276167
P 5.3241394714739325 4.49516149185322 6.29353630397828 0.59341755160332 0.4212765385282745 2.541387893609649
P 3.878957526062935 8.986939667889464 9.942578307542512 1.8202304807544782 -0.3320536024046991 -1.2308107374566415
Ni 1.6431293508689755 7.425337918937015 6.204211143170554 -0.023882463044552417 0.7174748217972611 -0.4290440982888353
Ni 8.481119895152732 9.158007988131143 5.808339762419536 -0.3989845598992935 -1.3147716538503291 1.204152768549481
Ni 1.4487620746134475 5.386070083436734 4.565390131030286 0.3893789184887294 -0.5270725485191827 -0.05838281081426719
Ni 8.578120777993984 1.1129422065972423 3.1858201450970696 -0.5297148712380362 -0.17445731991304794 1.1842375176827926
Ni 7.082779535484785 5.286810532695507 12.01017789848522 -0.6723218794097067 -0.5984769684040983 0.15984214110303438
Ni 0.9588185816383649 4.581740637330271 6.806605369746676 0.4238335006221733 1.9519771491728768 -0.8056785726277028
Ni 0.964479309487265 5.14415831649003 1.12432458072388 0.3444830864173035 0.8041883612354215 1.475518309045504
Ni 4.657832440981298 5.344823621080758 12.246466425846924 0.45389432456329576 -1.3127811057828618 -1.4146438421576346
Ni 5.854139174426166 2.2923417330232105 6.4801688141846405 0.08239794278194196 0.15144903194333273 -0.2895072444020563
Ni 4.7837555194213985 8.132188506837501 1.1885260442724235 1.592047132072884 0.376081687159191 0.979208752740791
Ni 2.4267933915005626 2.125087843633358 12.960928068525705 -4.770019856701946 0.20728516507634626 1.8407478839815394
Ni 8.729948246788986 7.760923485303846 11.383860536301311 -1.5589410935475345 1.4046962440266195 0.9945865207484418
Ni 0.7855937490158398 2.3223229720772363 11.173291769594801 0.6826610565521856 0.3887757376870917 0.1330072802983774
Ni 6.940989549349008 7.292863766380388 13.76497541544632 -0.19622993570344913 0.6232744870637524 -0.8768089129156253
Ni 5.465976317939584 0.9401400541501896 10.7313032638006 -0.63651001191742 1.814666099292823 -0.8998097446861729
Ni 9.255721147986494 5.736669699495514 12.655052888506225 1.051821076890879 -0.11788713682748729 0.5919008578484775
Ni 4.355339639572192 1.6554723617580507 12.644422154070782 3.9481978415451615 -0.6827587584723144 0.021406233589917972
Ni 3.590138568911356 0.5432339973155309 5.699042729019083 -0.8347523500652075 0.4953268806764695 -0.49059527952875515
Ni 0.29330536513381206 7.386781239515865 9.195263824794962 0.5827490161458803 -1.95466600885895 -1.8858913132873973
Ni 2.0077589496923314 4.305077249748266 9.045406364267906 -2.091864187310223 0.99621042950511 2.130641822299053
Ni 8.70581517690336 4.159088578055689 4.626512870906042 0.5134130487542191 -1.1249769322492627 -0.5542205696888842
Ni 0.3848198405532985 0.24411045362443878 10.012946590502604 -0.19484333976856766 0.9502064519711699 -0.40167341958536634
Ni 2.7363808468527426 7.215591082416513 9.58003867943158 -2.08667955778549 -1.108880283797716 1.739298066774469
Ni 6.621983167691953 7.187859139196487 7.231323969568744 1.7623696038819519 0.10918960905348937 0.7940222193356972
P 7.930389182263798 2.9984612997776465 12.370892785350817 -0.005353036781797232 2.5939530693008748 -1.6008937838302364
P 6.820446036778556 7.840623534355246 5.220183578472634 -0.10166347587977329 -0.16554767612824392 -0.19413062997225922
P 7.605928258209293 8.888935973988888 1.4412831659653975 -0.12002192378230297 1.6131682303222152 0.6597314443392058
P 7.252535766489963 2.379773736503987 4.777509037449061 1.5169308105540196 -0.3090864520855645 -0.18318467248371678
P 0.9561100545715898 9.560350780437897 12.731799799568902 0.16770971677656923 -0.5602179249228997 1.155729640051087
P 0.8026837113212525 9.095618144935566 4.437109040790874 0.12805199317563107 1.5513211151084316 0.9109701321783666
P 2.0206549124739315 1.487946682454923 8.994063375237062 0.07322296115089325 -1.4417838929075364 3.3495799766878243
P 3.6942153615637325 7.679377139255369 6.518987911453091 0.6331657780355353 0.7648473975439537 -0.19269826840110688
