# total energy = -340872.4294577475 ev
CRYSTAL
PRIMVEC
9.19170831011296 0.00000000000000 0.00000000000000
0.00000000000000 9.19170831011296 0.00000000000000
0.00000000000000 0.00000000000000 13.45299422396520
PRIMCOORD
 96 1
Ni 5.517405509161683 1.8411175147662984 9.234592008724029 0.3419814030413723 0.06703354451072972 -0.1386300258017935
Ni 5.3875082903686735 6.97748076486598 0.8795343258152919 -0.06933056807502253 -0.9328918719521224 -0.4017464389151468
Ni 6.875765323091041 1.524509129447504 6.789860538409639 0.6857453519044642 -0.6433244637360921 0.11751972618573954
Ni 2.7810064342724092 7.771653535948261 8.056069802007308 1.8354910064579744 -0.6976508450927985 1.529467766678766
Ni 7.268444284600817 8.631188543291303 5.345788965668864 -2.384619763446248 -0.6053112177171123 -0.0034213669767231398
Ni 7.671206549890377 2.5511034314100582 1.5478211395170502 0.0803127781181391 -1.2378133940267197 1.4744687847350673
Ni 4.424860701620312 3.1088470868828155 12.822249876987959 -1.0149200900994715 -0.6021438757327242 0.8886899806239276
Ni 4.676410177045466 4.146204879024157 8.661750053535068 -0.6121863475703908 0.6157524676550943 0.03812328923428273
Ni 1.7665359952866437 1.777575236708269 6.67665362317482 -1.211702555872281 1.6333706734120192 0.3197382753724558
Ni 6.8494035042757035 3.6854061688252364 5.1507611416590775 -1.052143236116988 0.14823541010204147 -0.10914718585132814
Ni 1.761296721672717 3.766964194748699 3.751501903391948 1.4577424731193218 0.7273990228895085 -1.6216204748546266
Ni 3.4408423915519846 6.415113680221635 5.97510661373272 0.3081184317453403 0.620846337238234 -0.40794639707827157
Ni 4.252359915808792 5.5180673121444945 12.417194280528793 1.1358614403722502 0.7471548653601972 -0.6571762820175198
Ni 5.621161510133625 7.890998673848659 11.955797190132914 -0.1857082102365189 -1.0085154721247083 -0.1584419183213981
Ni 0.6330577540875519 3.51728063606675 11.232953912206417 -1.1811835613478172 0.8787421253825963 -1.1285620784973596
Ni 1.5282869214743882 8.446949946242968 12.43318969095503 -0.21573586694686073 0.10575127279590174 -0.20431245560126748
Ni 8.984370735118544 3.2172908589830085 5.6159249940321265 0.6647458668346616 -0.257641248931395 0.6785478057147605
Ni 4.555217505818051 1.863793458635698 7.028005745920425 -1.3759597953238756 1.6989338040248099 -1.6285490836536598
Ni 2.8607628854093283 2.6551535670410282 8.751750663343428 1.0150476168162712 -0.15067564411241793 0.18220868172369264
Ni 2.1340296766171916 5.390219844256583 12.870169927968393 -2.08606326435773 0.48130768357924203 -0.7542922477359267
Ni 7.04890033676109 7.284447048393531 10.161449843664414 0.33419970221342443 0.4725826450014184 -0.5376456960493387
Ni 6.689624042467122 5.858712014130691 12.369032487625473 0.9249335363369942 -0.7572315328699087 -0.5735835475965283
Ni 4.608400728853456 7.003557640730385 3.1095787468471463 1.7961153328738293 1.1953351702578512 0.6929927774954968
Ni 2.5674370966941775 8.012099427995128 4.162544978503942 -0.4896743103763825 -0.11479229995224746 -1.2889536643459607
P 1.3599315960135363 8.638992303463626 2.349511808649911 -0.029549174412026525 -0.03544934194654539 -0.34716217591136345
P 0.5066451118332088 3.86405620735205 7.580398908111311 1.9393700019318276 0.36031773945671497 -0.6520194204069287
P 8.96090430435301 7.17301597116259 5.906779132440637 1.0975977689053613 -0.28314504962945425 0.2853435999426699
P 3.363714768930124 0.6313867015559521 8.26433552401495 -0.3734159674015698 0.07909227544747668 0.7269632209036706
P 6.814392288143339 0.13976911328661887 8.917357668083993 1.32687795019556 -1.0031554933643756 0.2059718455815614
P 8.995281292626846 3.0912909244221125 3.2423327485159597 -0.878319693133197 0.4869669387475484 -0.9332986204722378
P 5.402141489655291 4.592664524595487 0.5047249640122451 1.349485660292747 0.7039220228134909 1.933469577286993
P 7.466020050094429 7.459447978806784 0.28383535010746724 -1.3433211833532477 -1.87172067821397 0.36333929989185815
Ni 4.992283225716691 5.967449920889911 10.252661001428836 0.6500270725672483 -0.3522501319572321 -1.017214285450287
Ni 1.5546119734573471 5.899229063411726 7.448223064881648 -0.3248195465501051 0.4838078242932765 -0.8384701652364269
Ni 0.6694578373130117 1.5511466995056797 1.5433815445073544 0.3765061762911193 1.6801020160302873 1.8518653340509397
Ni 7.104280378031106 3.5097066685967926 13.059937337435635 0.41308526096673376 -0.06573179498017066 -0.42948889913573773
Ni 8.87137706751152 6.124793580053422 8.714163011432145 -0.5760772605526595 -0.8970692058265584 1.0568390989307606
Ni 8.006823387548822 3.273939355970081 8.625682710142632 -1.1919166314946052 0.5338772301458419 0.6141000196533359
Ni 2.9166025120840757 9.184078976890108 6.126184285488136 1.8873236748585496 -0.6642113344874302 -0.6144972550917546
Ni 4.112397776652186 4.488016927938367 2.4346693074632224 -1.430427844464769 0.5699102125099992 -1.241638424199765
Ni 0.7962326328662822 1.7765549571097672 9.029474446738789 -0.9488381108687337 0.3247902359740665 -0.6400313948071171
Ni 0.9082464643904208 1.590854878474389 4.350967641076943 1.9544868029686082 -1.7927168487152416 -0.5766079362451488
Ni 9.12869893562009 8.724337313122067 9.899883244757754 -0.8101085833745983 -0.17293779794472797 -0.09306724957033004
Ni 7.775054467943266 8.771941169344045 12.180380951520915 1.0769541245130807 0.792962410612615 -1.7826594644792395
Ni 6.056692214780466 6.481873056112778 5.774939705727237 -1.917634924247581 0.7366539658288733 0.05443282502758367
Ni 7.005258106727888 8.040731598709835 2.771087662067517 -0.8556914142107198 -0.626382950785747 0.22768892554367884
Ni 7.569638175444952 7.668449037461995 7.494811237359172 0.17207313595158755 0.6030180508075614 0.7436285973744935
Ni 7.718534654869518 1.5085982827357363 4.201679594887548 -1.0477839307070276 0.4478105802630611 -2.1149352101970735
Ni 4.656078118740192 4.329671372592545 4.850786071308286 -0.9641423453259718 0.3122005722345139 0.020304515885306965
Ni 5.4280437230658976 8.813202746980744 7.284433260831388 -1.3840582560612937 -0.9316999085265503 -0.19534136245090872
Ni 1.8026502163903613 2.571775582914833 12.863725621423262 0.9757511332094937 -0.0967873787343946 0.6753902339223852
Ni 3.0521710147714587 7.063294551637246 10.704991390960192 0.16283387674150665 -0.061999581631248066 1.509323430520407
Ni 2.515798080618666 0.7064029888284815 0.6856830404416148 0.3656422369934219 -0.49493941543006376 0.5790669393086028
Ni 3.006570950914105 4.167024097858445 6.619020694250814 -0.44941520574601956 -1.0690402689826428 0.2778593757504828
Ni 9.065340491723953 6.678557225921214 11.604270424933512 0.316251602375436 -0.2820181351138627 -0.7450869270875748
Ni 6.176515321501784 0.7339404271091196 0.15061808635068544 1.2265581328278747 0.976213931778525 -0.06837308925775966
P 1.3068310983509823 7.021407937850116 9.667590397790805 -0.2765792234864785 0.25673442084640946 -0.5962671052369731
P 2.7061123967175384 3.143398717610449 1.3463214338378493 -0.39828059185373343 -1.01550064519329 -0.22064898797776192
P 8.70595389693285 0.8760515876182446 5.9791564803192045 3.0390917591587274 -0.17660624793525068 1.1151470906430343
P 8.966961639987357 4.868608793303732 12.76874770168167 0.1559554044541185 -0.4582950247341527 1.3741178570191304
P 3.1070179369719884 5.810997857411577 3.811367498212134 -1.8987627699334269 -1.073401374164816 2.298321457168635
P 6.182306097601387 3.3670054004279932 7.366227513652882 -0.1523455756156731 1.9321066355011949 -0.39883646435720344
P 0.3662123572221593 1.346622002692543 11.030580994258226 1.5994290263592519 -0.893197638686294 1.5743335168432047
P 4.511878602151972 6.478701916820137 7.957459319226727 0.8259568632607646 -1.0096295311244934 0.335690427826338
Ni 7.566678445438488 1.958578352507302 10.582757299205657 -0.047495217367485944 -0.9972039037666309 0.40290009290361584
Ni 3.2962200563914124 1.3606393575368212 3.1473548287743687 -1.4720894858696132 -0.7332760504955759 0.160189240029808
Ni 6.113487779097053 3.687180168487496 2.808823300479123 1.7629632716018928 1.0423936129293918 1.3375097188777931
Ni 4.677402881519684 8.679968938149392 9.798851666065053 1.272972458426356 -0.05259397204663201 -0.2694924918430262
Ni 9.12455347526942 8.430864457077403 4.066126718103926 1.4509853569011462 -0.20879774506613075 -0.7980863621027418
Ni 8.444808278256923 8.98356186480622 1.160343765618014 0.8500182750853424 1.5475487925501927 1.1100208251600625
Ni 0.8886699644905234 5.298642856509998 5.234829423063177 0.4436644193051714 1.2656658974626136 0.6605207730097205
Ni 1.7313777118247657 4.561256458036209 9.358453951982117 -0.22113389803398048 0.7755935803168643 0.46931940086911433
Ni 3.8388525437566328 1.9942881384548565 10.943431652300813 -0.4074884836052466 -0.08768104555775222 -0.8740719736004365
Ni 8.60403623757983 1.5929413962118653 13.016175615197202 0.5619351647243226 0.712062135422122 -1.0715046713627352
Ni 9.154987220770671 5.938560382348556 3.1424979302171776 -0.20278419188219912 0.2003529567328872 -0.24923297026304175
Ni 2.4667695096420243 0.14249445473667033 10.277226760482485 -1.8121441042019177 0.6152441605601081 -0.32250401104305104
Ni 4.007869672200297 0.14155598134021077 12.428050606959335 -1.7700690294087387 0.3838019386215841 0.43266703975340326
Ni 7.512686352090757 5.404834660127011 1.321408228218222 -0.057974519632254994 -0.037703170977728614 -0.07946997050186959
Ni 7.838661087957958 5.271610043003753 6.457073827673524 2.3694715949509 -0.10835477185701983 0.37290380365184167
Ni 0.42790985946560084 6.937772585897271 0.6953959183851878 -0.7598188339811107 -0.26924540882922665 -0.49486639610028316
Ni 4.534260411362344 9.130794645065661 1.4450394596031366 -0.47335166195695894 -1.9310918210834351 1.209709179591336
Ni 2.274699577297082 6.41817451901714 1.92005130802875 1.0832553841407602 0.7875643795254953 0.43984684533129403
Ni 4.735705885963786 2.2544962029051323 1.6217316643057984 0.27110431641483634 0.9673731935584436 -1.3541897506366356
Ni 0.9867574390805205 4.518119771948211 1.2462761254237007 -1.3845398236834028 -1.4421381909231614 0.668423572796565
Ni 6.5603518598245465 5.654591752473716 8.31994995384138 -1.390030928704961 -0.5970060402855266 -0.41185215989058105
Ni 5.357074544867425 1.8720935710451292 4.592246301877182 -1.2374408411786495 -0.3661014360180275 0.4380355031541681
Ni 5.920893919390718 3.6137108456872893 11.059881402151412 -0.3873834853252554 0.9835467179945125 -1.4329349271573386
Ni 0.8191889238325673 8.660785843355944 7.487263925842689 -1.6341443183532502 0.5336039218797971 -1.0397872856547963
P 7.462141149278504 5.034234181460485 10.163723872247019 -0.37782103844780096 -0.0019044161115644622 0.8173673218195406
P 5.978911980883888 0.9615262003608198 2.7804245991500207 1.1221988552834932 -0.7944464513573093 -0.4855140083511058
P 7.157408450817944 5.9061596113150605 4.0551895046421516 -0.03208119680526088 -1.0890223685315246 -1.1385847528406843
P 4.890172540493685 8.32160262295679 5.112850860793674 -0.916367649044854 0.013254551017061043 -0.47059081138237024
P 3.1468364164378326 2.5354867193573183 4.918414982785179 0.34126766480379933 -0.4360696376770489 1.7712378529058594
P 3.228357675528917 7.386364707746551 0.07220454376638866 0.15473798710724962 0.007160265193865087 -0.5971093986326104
P 3.257265597486461 4.1112671965565495 10.864221188624715 0.45089281873281056 0.39222384413669226 0.5788802772190934
P 5.801107579501779 0.9071866604471125 11.466376420098193 0.0878535665798745 0.5881917844280063 -0.405019967460096
