# total energy = -340867.5868770169 ev
CRYSTAL
PRIMVEC
9.22995032632165 0.00000000000000 0.00000000000000
0.00000000000000 9.22995032632165 0.00000000000000
0.00000000000000 0.00000000000000 13.50896528024527
PRIMCOORD
 96 1
Ni 2.8143594780849495 5.101153465843449 10.002997234269017 -0.9952946025590601 0.22192425514575975 -0.3536693809022619
Ni 3.779775343338899 7.625480220555852 1.1477895271527438 -0.07744522676235693 0.7576753052755467 1.1144215253309195
Ni 3.44422973580666 0.10419875316479492 11.397608550200511 -0.6258317062679675 -3.7493070711800978 -0.25228949770117837
Ni 3.2474471987381848 3.6277857543188907 5.1311101920305715 0.30612788367787275 -0.9317047936225568 -1.110529903585997
Ni 6.220921787354252 8.240194900141239 5.683397180822508 -0.25031797579710435 -0.3372138064493999 -0.8593837754606426
Ni 0.661420073303674 7.4769426328896715 11.921391606957979 -0.8685101632419429 -0.16252045926614592 0.4731703991840883
Ni 8.147018553438318 8.61074047861924 4.0932299881966685 -1.8132787320269932 2.536516938670593 0.582656456432074
Ni 0.8750564993349556 7.279255560707092 1.4647497070751765 1.932727042694013 0.4258965537987891 -1.0789454439114967
Ni 5.054154559710585 2.0355270549904376 8.607615217500507 -2.1091057479994904 -0.5959922543090316 -0.13161708481907008
Ni 3.9841633593259678 3.91620323641625 0.9033813703366318 -0.19719024273418945 -0.6209011017355693 0.18235086372851178
Ni 8.473398820477641 5.471615974770156 0.9451478177329055 1.0132442450589454 -0.1942573853581106 -1.3901507421122767
Ni 7.7012581112374745 3.5849864755015117 5.341201394211572 0.20887513527128543 -0.5712132475921389 0.29767821024862284
Ni 3.166897423832154 4.436154017873961 12.18323606259098 -1.0178933137951824 -0.4646998998192319 -0.010981695822484313
Ni 4.024230572900746 3.820359434121736 7.3362597327959715 -0.07203562571101142 0.736845513014389 0.028330471513577014
Ni 5.002171480500001 6.16038254436025 8.31216082141342 0.08522821314188547 -1.1325452315148237 -1.0172417962541125
Ni 0.3695247459920836 4.350038583031144 9.038564358705395 -0.11815016068088685 -0.274742684498372 0.48181470512264757
Ni 7.082223814984731 1.553428299072962 9.143854091977204 2.2832321669356803 0.968727650703809 0.9262368285294501
Ni 1.8321635634693445 0.979740747877321 1.9674995534446695 0.0817040020387109 -1.7256701915783894 -1.0303580219210966
Ni 1.4613780062876005 6.908359244123622 9.691939607463626 -1.926036003827083 0.7156606514066578 2.504336497283306
Ni 1.7391072061182955 2.4097000038750016 9.206035343101808 1.1782545606264805 -1.8866844986126539 -2.3163729153537074
Ni 2.6087438787287383 5.702733926374031 5.881330692673931 -0.46241110378505523 0.8232052686575564 1.6635988761689415
Ni 8.302644742815033 9.172272185475332 1.739373951677455 -0.32240296668881246 0.3515160820046849 -0.7150209609401298
Ni 6.522658087509296 4.3723566024791545 7.9249265700801885 -1.2165825096724014 -1.2079369181822617 -1.2690522974363434
Ni 8.951371788680781 5.288281475061379 10.94255908617482 1.5220334218879077 1.404889590984348 1.5425477397911758
P 7.347344902918825 1.441838201832912 4.676911729408151 0.1001876626651952 -1.2293457228753408 1.4166256484743538
P 4.276069762577731 3.871751796523109 9.43594417123683 2.2631310253104315 -0.834941069037246 0.16415182422198182
P 3.2920278579333413 4.4001941321132305 2.9787541200983925 1.5253298332509924 1.0387177067397015 0.32617580346768343
P 3.2416692499480884 0.44269609875306126 8.880536536301232 0.3285219351023568 2.19726244764208 1.0954370138086167
P 1.2215469817478606 0.20039975452987907 6.234927313702643 0.5441978953455595 -0.39107301836170066 0.08959985984701989
P 9.18906146478713 2.0359608626472023 1.3048740486521986 -0.6846037821008533 0.1347098648117809 -0.9917500797409114
P 6.277252173082625 2.976012824905647 11.953434301877627 -0.4945444939844902 0.8873491503253168 0.2460365748129311
P 4.032915955986178 5.954047008892813 13.442324943554238 1.614549426940458 -1.0013945448092108 0.321070363920318
Ni 8.746494585336086 5.096344661818465 6.951267436352699 -0.6106151464285291 0.3554084750805557 -0.62205398439309
Ni 4.353213685880654 9.166318867632501 3.5222735792486155 -0.15908649388393248 -0.9413078639299595 -0.8582987699265798
Ni 6.061732837221983 7.210086314328521 3.507345980880846 0.6496223809296618 -0.09570828673760291 -0.86850836346973
Ni 2.1339921631258263 8.13302594902013 7.994767756829238 0.1832605200269747 1.3702218643988335 -2.5465912921874594
Ni 7.132674722471424 3.16938028042087 1.6720996140634306 2.3592992824035885 0.6955610524433053 -0.6655894457818796
Ni 1.5487025645992722 3.7636506204374625 7.2006163854808545 0.7832037885639543 -0.4243433503790563 -2.2283964500427236
Ni 1.0185526882325244 0.1186685460054257 10.295304217357026 0.6678327332901015 -1.3314252032466103 -1.0470485952029
Ni 3.1660298085186254 6.942500829706 11.70374845956922 -0.5099870537918056 -0.3445129112139744 0.21423074315624394
Ni 1.3759455877554336 1.2403576201411792 12.233097176263476 0.3611898576490231 -0.17634682362627693 1.0576862774224043
Ni 8.605673235990226 6.780672113832567 2.9065620650476856 -1.353686842858288 -0.6578614810100025 1.66723107360489
Ni 5.843499896019027 0.9123464209114258 11.302073028240804 -1.4255008394767965 1.781970151721699 -1.9659444099862464
Ni 1.2880303126345505 3.2314332352384754 -0.07274216007928509 0.0733952250626994 -1.0044346171871152 -0.745067129593233
Ni 8.237878182655113 3.6638471695312047 12.843094428330302 -0.04600474886488851 0.4264277437119107 -0.6993583147022084
Ni 8.744491686154854 1.8229243833752757 10.939438440031159 0.5967970095985141 1.6473132516350406 -0.8007574811770015
Ni 2.2882615498313843 1.453015671457205 4.283666011546181 -0.5369982922733268 -0.7038934835684006 1.259537930188005
Ni 5.314826811675307 5.379408772832348 11.320891050594238 -0.2444782291868757 -0.009987707340331185 -0.8887398600252564
Ni 7.050546626090782 7.051921888662227 7.5479855591474605 0.12853458923900443 -0.10896386619592847 0.6757129073691266
Ni 3.1524617818070557 8.3557169561426 5.583916778171289 -0.9709681099985535 1.2191772669827714 -0.7749006680148978
Ni 7.390596449293256 6.602700215157411 12.034583100548 -0.8867081743072083 0.6879061070012089 0.6718868487548171
Ni 6.004839424534831 8.868957563845678 9.102165176162138 0.11656944645732828 -1.5868830713734412 0.5452957563954286
Ni 5.964403012954297 6.9806851334514155 0.905232898335503 1.7053713321200372 -0.6276476764307836 0.03536166732874555
Ni 3.8698781166438923 7.626707803924995 9.42151683616686 -2.373277084739919 0.6131255715552086 -0.8550005587912825
Ni 1.8472729918549493 4.798235732069984 1.335026449782372 -0.3128657166223386 5.479293373635338 -1.217847235317438
Ni 6.015979974358547 3.921039730291667 3.6209426692821847 -1.211406621898417 0.24035392260585703 -0.20456236682854448
P 1.631513677290565 3.0583993598903185 11.05208998153776 -0.5822795327086294 1.2978206278182873 2.6365374796303045
P 2.5294124572417056 8.085879363684962 2.813214964267103 -1.3329452394355623 0.0831564182145213 1.0823310725542779
P 8.094260158415645 8.371583240440007 13.142412481547636 0.19956439939332082 0.10632617146276527 -0.3271037145985915
P 1.0751784323655025 3.540784244262256 4.859188476830434 -0.797779115274968 0.32111792932880184 -0.09404324033035416
P 7.267210475769271 5.760614943726583 9.332505965963895 -0.031270270868191306 1.2360208209026713 0.8022749462627925
P 6.876174407971756 5.491294228477003 2.28005704714845 -1.0755446457600637 -0.7245150164734941 0.6721616996827585
P 3.515549560568766 1.2790403411943678 13.342277821964181 -0.483908868647515 -0.27535897792613223 0.029575913884903902
P 1.7136602335714948 5.874549448303189 7.958279917920274 -0.2501896777493562 -1.4412473036777758 -1.699500989382189
Ni 2.0951433029700475 8.5700087086341 13.404513529794636 0.6132767524210921 0.9693146335555305 -0.021296961705563323
Ni 6.759720127005858 1.1086462315873735 6.714860723316355 -0.3074142065894641 0.4494056926643228 0.5788231987289129
Ni 0.13297127674845144 7.3723396079085735 7.20691121147901 0.4790006327126202 0.4919039710378496 -1.8600332145737126
Ni 6.037541137894756 4.608901764767657 0.1327192991095223 0.35502203827541434 0.4649932626899347 -0.7477271929238994
Ni 8.690847215918362 4.386303057146624 3.3131949025984038 0.11348977909074003 0.47724045548840394 -0.09753068465832235
Ni 9.255055608316194 0.8766422047696819 8.20580502889999 0.0623677636039442 0.2785031799820687 -0.9898803735220242
Ni 6.387023970144321 5.453599112089215 5.424619837622334 -1.3013186136692168 1.7660743064270488 0.9209655528281817
Ni 9.066986144183582 2.04653838551214 3.50946702342392 -1.0925488936275443 -1.5892711119896437 -0.3165449652461387
Ni 3.8382009277499427 6.535653857311942 3.9406053786067585 -0.030264455311496265 -0.2930522814408373 -0.6457623837536233
Ni 9.087079745646907 1.8588934990861503 5.9126303766069945 1.5436332595458704 -0.19803690700520085 1.381187362271402
Ni 7.41261911033666 3.894337484525293 10.262733569289145 -1.6671706526805998 -1.9265607659823012 0.24934121370613183
Ni 3.875176108026505 2.2560951735798067 2.579347410515352 0.4130204691670693 -0.04793616155964648 0.49677801130069926
Ni 6.198188420149766 1.5998087985461835 3.038828173605141 -0.5962923020479537 -0.8568682081276404 -0.5453898587711318
Ni 7.657369698303112 8.971889967850727 10.840174018213306 1.9142395254127869 -1.7957561497621974 0.4488004549801561
Ni 4.741674597588014 1.5720635684135458 5.103929834846742 0.49701378146058917 -0.2914911076013044 0.1724336046147998
Ni 0.9697447118714505 7.986528180335756 4.5286242733908715 1.2276917322116856 -0.19261419332773277 0.3306569791674886
Ni 1.5711221134988655 3.185163495166981 2.595815487562143 -0.2886400113057545 -1.4672013045393764 1.7159599062691608
Ni 4.658540436641683 8.997807667854866 7.322156368976055 -0.5717061280681573 -0.20651820500333465 -0.6865339092440306
Ni 1.5594923763175204 5.814305563713793 3.774918543573166 -0.4565726427264072 -0.9119911172437132 -1.3089655886915135
Ni 5.416623931812652 8.815026965154726 12.983736716643367 -0.4565024516101041 -0.6297680652078961 0.8342975219159761
Ni 3.7260108837505377 2.0920604996219767 11.058344195755284 0.24950062210213164 4.472729625920361 -0.7318277480848235
Ni 7.447369872628537 1.412523880175807 12.860670099394364 1.7273421799641733 -1.4862218115059371 2.080553390283094
Ni 5.556706885146998 1.8280193158547222 0.7270607097422236 -1.6515224046203816 -0.2930160288862631 -0.7024426100544869
Ni 3.0291496478842217 1.591649522618954 6.723925457352704 -0.9253343713198386 -0.4257461442638538 0.9942250236439651
P 8.153507208389499 3.0150462840643044 7.9733828853407775 1.7286776109461452 -0.9021003404925625 -0.6654539486452797
P 5.578046529879752 3.3542469518535376 5.862201621000647 -0.3598210023259545 0.8788843073874153 0.23664510629570212
P 5.807863058513334 9.071250381150076 1.800299006587473 0.06406726279355418 -1.0473476145005576 -0.42069726898603677
P 8.134262762339414 6.698599397152789 5.2509749395746494 0.5631222430538882 0.6820182807618641 0.47550881750927787
P 0.9285699042794023 5.424081731528943 12.80676903654387 -0.31687020979604136 0.13653483383566165 0.3260014826733482
P 4.451503424963309 6.813032319037167 6.0770619384210125 1.928595537024143 -0.42432740953945636 1.1543523000875862
P 5.144552691420183 7.712684789515653 10.892062028937408 2.865211394795072 0.3904636669124759 3.023130864954097
P 8.555951494564903 8.201576788739057 8.958442853486043 -0.68814444826426 0.5322425227558963 1.1510386623333209
