# total energy = -381167.71794581687 ev
CRYSTAL
PRIMVEC
9.28213274857625 0.00000000000000 0.00000000000000

0.00000000000000 9.28213274857625 0.00000000000000

0.00000000000000 0.00000000000000 13.58533952989614

PRIMCOORD
 96 1
Ni 8.716238327039472 4.727000404619499 10.051344114084332 -0.9462968325041186 -1.3592419683485621 -0.793994194311239
Ni 7.542883915036222 2.501079975228919 0.28021088252856974 -0.0705685542471817 0.012857315578642375 0.7206390784578557
Ni 3.9595443794724328 6.355819792831811 10.812232102035498 1.808303904520221 0.528097133128955 2.3340073406060187
Ni 2.4858201488438754 4.684618186082938 5.176354024568273 -0.19978345738266237 -2.0971858566334527 -2.598291034554596
Ni 7.9523559230348875 6.235059244614404 7.489393768132882 -1.4388389513465996 -0.647672970512775 0.6287889891240784
Ni 7.968200523788701 2.153027840216769 3.58817367034562 -1.0649527291768304 -1.7819493257860923 0.23447740922042198
Ni 6.343242502836839 3.3802093405453637 12.118734068527955 -1.0640829249773673 -0.837334508970087 0.02106016310440889
Ni 6.5360509661398325 5.63127506779305 11.588185919795404 0.7526865938117038 1.2111613386568303 -0.7885470551537388
Ni 4.59234450354418 3.141612115954401 0.3261184551168592 0.9302840020156301 -0.755860620664311 0.6823180713904701
Ni 5.0108944374580355 1.1750437601796961 8.268988966604985 0.007960906718289515 -0.10747725434807297 0.02807541807997745
Ni 5.853155171143463 3.0513248098428942 9.89668892959708 1.9860689486502632 0.8078467839236152 -2.2798506520579576
Ni 5.503552919947431 7.748473875256615 4.905869889040243 0.056162920344812954 0.41928753312270367 -0.4695515714845784
Ni 4.625119714593808 5.0155447860096825 12.472320211137893 -1.696447547267846 -0.47931764973240676 0.6054955658137765
Ni 0.975143747388762 2.7996769064822415 3.670011450935044 0.21754669490335438 -0.6487404925453407 -0.23572156604016822
Ni 2.696366767999557 3.1305478136119613 12.337920496928891 -0.09517555416258447 -0.1277606871874574 1.4244739408741791
Ni 3.0833017574684876 4.869573965005308 0.8175674756975131 0.26698643759172086 1.2955945667012463 -1.3533677689559724
Ni 8.103654688288055 1.4675052016273535 11.60364624024974 -0.6231143073368043 0.7860569417420333 -0.493706314353911
Ni 6.176776732527004 5.80473956626245 3.2144545816108896 -1.3076275866063802 0.130893062168852 -1.9613706745726347
Ni 8.097899765928732 7.373030166240655 3.6216209078126913 0.446946689600869 0.8957826258046508 -0.7284338919119262
Ni 1.9267572880341632 0.5715890990740773 3.112863494129732 -0.9643277218639004 -0.2623062585072321 -0.2862306305333135
Ni 3.120550956545847 8.977251902433279 9.505783971913502 -0.8037944682311124 1.9771307656203692 0.1205680260937601
Ni 1.4454415718723364 5.803783506580175 6.952012113205277 -0.7345106942336254 0.13641296354581667 1.0447988799367747
Ni 5.237647660548198 3.3680033358638966 7.040656481804526 0.5590892106350952 0.21267419730240147 0.6034998755399864
Ni 2.227136388792309 2.644275438514847 1.659245291440738 0.2179555003059988 -0.6648391978794163 -1.0174626540156668
P 3.4832967078399455 1.420175606288341 13.451034795029287 -1.1106507454345775 -1.3265349650338445 -1.7343682335730195
Ni 2.0684861743317473 0.9179555987629157 11.358566374084985 0.2459599559387248 -0.3616485424529965 0.7450455323266781
P 7.181678997793168 4.250381447673507 8.466030082481932 -1.8957432663808123 0.5450944390179 -0.06123339288918486
Ni 9.240084775863261 4.415798336972692 7.851891686480216 -0.10890781614701245 -2.2683457367421513 -0.4929208423381382
P 2.398595946568782 6.87538717841746 12.940471078296126 -0.7161057093638764 -0.6323486814508787 -0.28440900394354246
P 1.8652074651879205 4.6601597660558145 8.797743807273308 0.8978387370027312 -0.978986609427656 1.1681650376009622
P 8.877515385093078 3.8356650346215875 1.3656662811994313 0.5481851621280818 -0.6906551305012557 0.4762991746210571
Ni 7.063238982785166 0.6771473701300329 8.999771284910624 0.7731605453953394 -1.2439105080633932 0.39121854280062945
Ni 9.147588322136402 7.496890946825825 6.036822590027972 0.7642635000160257 0.5457127893281892 -1.2515302293921802
Ni 3.932273473195512 3.917988270758418 2.709255937657873 0.2339577892715261 -0.6983630406684747 0.4702151732105063
Ni 3.369219295265624 6.3684156470924576 3.2064255367063503 0.9531305675965004 0.5404710813132757 -0.6690457797615962
Ni 4.874512059674919 1.7780296735770151 3.3738919209360807 1.2390410957862341 0.44879197033972384 1.2816386187417863
Ni 5.580334722780205 6.099697901443426 7.030834128835759 -0.6178366038776327 0.7920787224560811 -1.9173649584156462
Ni 5.326468389671362 5.398432765561412 9.055987594228371 0.25299012331262877 -0.8332130306025457 2.028656701413803
Ni 0.030460247119926145 3.3497917912364903 5.697814037039513 -0.15771763856086385 0.030351615708663855 0.3104887317497298
Ni 3.153029139344671 1.9396408884127765 4.7337169559408 -1.3044707861449534 0.8152549034622282 1.2441089972274446
Ni 5.264797899098229 1.1034321053374758 10.6415457459244 -1.075456714031948 -0.9382816755091261 1.008144976159167
Ni 9.391197898459676 1.2283046384019463 1.5076197951116859 -0.608501699629952 -0.2944424769201445 2.1423717091414716
Ni 7.276022595954713 7.523456411007087 9.575762899589584 0.7773807541242741 -0.5761309966087304 0.4083698577689354
Ni 8.840860242517326 6.199731447034432 11.491295304383216 0.42860186854509413 2.831530714713175 2.8584470794880446
Ni 2.928791374253503 6.612192301806811 9.0238036550405 -0.3870813807038043 -1.5572909595386213 -2.980278802785577
Ni 4.948806250907212 7.921548524146835 9.2240656710121 2.0681673579139157 -0.26919450098663317 -1.1893514418705904
Ni 7.163309656907522 6.097442343163885 5.143123989009602 1.1053059361828965 -1.231429601987563 2.9875300850313518
Ni 3.166116946645712 2.076942197346817 9.314801304139664 -0.8900979167150477 -0.1711881622434729 -0.041136622139309804
Ni 3.3513883180845605 8.722698691494452 4.6514846847057765 0.316057741197075 1.3414890152405154 -0.7964159163788541
Ni 2.8435535484056604 0.8798013917338884 7.346870331264398 0.7748446179659817 -0.914112020241458 -0.9873920598825316
Ni 1.4737427948942328 9.061245922480882 0.158160117846735 0.47201803074719995 -0.05470793306584126 -0.49317332466857644
Ni 0.9593826858304872 2.123891225239487 8.221250029207834 1.5031820935093596 1.479791225389245 -0.06865822459834627
Ni 1.611313285680564 8.099672653300717 7.887104385613003 -0.21233301191289886 1.183150455266201 -1.1575499810892773
Ni 5.760890770737543 0.8049344929055154 13.243600475014057 -1.1722019266744974 0.6116698129452885 -0.6379896817867399
Ni 1.3280318736093106 7.282529371073884 3.8512265303238533 -1.1519696587880226 0.18875136793821684 0.6178101215150715
Ni 1.8760582784750952 5.081150900905964 11.255738906509858 -0.17031141606547442 0.954981247651994 -0.4467003779180178
P 1.332468733105692 1.421512233416958 5.994585172763677 0.3071735513335678 1.1715478380302662 -0.6970363514372511
Ni 8.161343143873848 2.5863734938737877 9.49199536358322 0.9054695140751114 -0.3826580548251281 -0.4209690345901847
P 0.11530822338858927 8.328913487991361 2.203800178625254 1.184068081984464 0.862439788678147 -0.8084929021480464
Ni 3.8260673092674904 0.6782463746580069 1.7936728520482523 0.06473086451948207 -1.3321433123595572 -0.7026249012686222
P 7.1536191102250495 7.221211601548582 12.989269107050049 0.4143870104972928 0.21802697697388257 -0.8279900916407096
P 6.876510316490811 2.084729906797578 6.217072327601669 -1.1506398842330054 1.13035850827615 -0.6118073669644173
P 7.093702942758227 -0.029020588316811646 3.9490546411526415 -0.24407096644612805 0.840527561986088 0.10307012641931282
Ni 7.924379574662308 0.13377688309559715 -0.010853597927026342 0.27836356908041093 -1.4130489868666891 0.5638285250922935
Ni 0.4390161086075192 6.539828794204743 9.222285357933847 0.44655279659655994 0.8063131208879081 0.10928191165697952
Ni 5.115634024397714 0.9022233118164374 5.967672556814287 -0.3835705393370684 -0.6641773959257012 -1.084087136013436
Ni 1.1065787483694283 2.9084356569406076 10.542685461924068 -0.3127091364398163 0.049765758569217514 -0.2730393286540201
Ni -0.27825884999281875 8.71908794182062 11.672373936419314 0.7192069739970195 -1.6725332025440935 -0.3244500790258283
Ni 5.819526003872774 8.2935392797472 11.438244202363096 1.8001931024876285 -1.111100945598119 0.3590483858259881
Ni 2.6983438622939695 3.4413414674139133 7.028606416954731 -0.173163797912605 -0.41337528140332674 1.1884356149245403
Ni 1.6970987573658267 6.927079376190152 1.553170933799011 -0.41324698335557863 0.4580836800542949 -1.6089112548180744
Ni 1.9436786161971402 7.656822095617979 10.870757806003246 -1.6063694622328268 0.14804103470304825 1.897814032866912
Ni 0.4026607789224221 0.41518794540007087 9.525727562528406 -0.43347436614604706 -0.9490047183535848 0.6909022135150553
Ni 0.7026806611397517 2.3244966801260802 13.238940844329573 0.19337986784916372 -0.3560041996830256 -0.7409888457588012
Ni 6.79223783245808 8.351923895295815 6.926403636919574 -0.4034369392436923 0.49669676444080263 0.028075932300609712
Ni 8.62893058556884 1.327242892318113 6.958968143553788 -1.0340928063731802 -1.8181707700119718 0.23109769411491168
Ni 8.134471369308946 4.408632530422051 3.5087399621611395 1.8896165846577846 1.1166511859923864 0.056857375308676274
Ni 9.380152160382911 0.29836487793238237 4.7011116079221 -0.7997583504885258 -0.5922363868110252 -0.7448218463516463
Ni 2.781289001330921 6.788432157994658 5.581129273351105 2.5331212827254825 1.8675477777832028 1.1885094055852692
Ni 3.9010483783297665 8.540843144939847 12.55961959868897 -1.5642535068993835 2.008259368704374 -1.5414876739577776
Ni 4.093875405898436 7.261096926351825 0.7073477175305058 0.2483549385334626 -1.4021205128796432 2.031314450751624
Ni 8.642036957135556 3.7707922082194774 12.089009894542052 -0.3924683560473305 0.555131768649244 -0.22282105592841622
Ni 1.5441384903347253 4.803206715216341 2.516208923540952 -1.585464850869676 -0.3487845420061348 1.0029755161430856
Ni 6.442811941785963 0.9321674723505922 1.9320666680172804 0.9311064979169255 -0.5925544322720763 0.2120782155896154
Ni 0.8321376396127216 4.963239967469707 13.464239557204081 0.4565446177019492 0.3622216413476471 0.5204139055520844
Ni 5.7969147282803375 5.091286989964643 0.8923786817288603 0.5008894623659116 1.6936226762245412 -0.5371001079585137
Ni 6.223205960980767 3.3360449525039786 2.2055665685042527 0.9885446854297363 -0.3831159682981531 0.45331788323453537
Ni 3.9256274660837778 3.596204571676727 10.59206826504676 -0.4429969609245016 2.3756293870221796 0.39730742930718665
P 4.223324030451852 8.083317535240836 7.125877599813261 -0.0001928327370964421 0.24233932846700199 -0.8700728797433726
Ni 6.255925479233369 3.75543027837322 4.724926776143576 -0.4295436636330731 -0.8738099781883015 0.656834582407385
P 4.708241214154675 8.141878511313365 2.7332344714172905 -0.8285853020225471 0.08610830175399364 0.5137449781723411
Ni 6.370281355792819 7.6813362084421275 1.426148658769348 1.1604332161743434 -0.23296251523779238 0.10920760677561839
P 8.696745848080475 8.31091543241922 8.038961935262995 -0.2780861470493082 0.6856615339414062 0.7508865644884875
P 4.521373315867756 5.025764414263899 4.386747117617516 0.2395183140784391 -0.04470608465812301 2.0451153611904584
P 0.31439140848981306 5.459852638547928 4.991580175449521 -0.4716696462688457 0.4253077711748546 -0.5223553455491714
Ni 8.424473045554635 5.900438355818288 1.6673151777297628 -0.32903075641797525 1.0697830606859384 -0.9417282392968297
