# total energy = -340870.5714196944 ev
CRYSTAL
PRIMVEC
9.29124874220266 0.00000000000000 0.00000000000000

0.00000000000000 9.29124874220266 0.00000000000000

0.00000000000000 0.00000000000000 13.59868170802829

PRIMCOORD
 96 1
Ni 8.370402102151681 1.4981208991442219 3.3777218769107673 -0.5714004239022805 -0.4646111967601676 -0.45598488854373725
Ni 0.573938998895664 0.16279660961520392 1.4146436774972282 0.8326113924628047 -0.6938237580372244 2.201685516410441
Ni 7.748501678787012 3.9946514823577854 12.810963825468157 -0.24163767441428707 -1.0070404302410785 1.5462375299379372
Ni 5.873778606453676 7.264316139862405 1.2083826076600157 1.1972969219699123 -1.2799843709678151 -1.282143840512979
Ni 2.2951334819368943 3.9402140577231664 7.988083023794846 1.6093336870674737 0.6552214722839941 0.8183973057459518
Ni 7.486311938939885 2.298469040128365 10.177239596852251 -0.7991407715091849 0.834923071315117 -2.4234467636157744
Ni 5.5965463353753755 1.6085195131583105 2.829301291867123 0.9829543358261523 -0.47377769375078405 0.052115489748316694
Ni 4.662729410490172 6.770328333829157 9.838727825785016 0.25336319038133137 -0.5425966122967107 0.8992471873144836
Ni 5.891980162155882 3.602848826713946 8.390454474543974 0.2820662147429787 -0.3230488278029275 -0.2543157841025878
Ni 0.13272920052489995 4.091206136190003 2.12861479819494 -0.5362547292390829 -0.7766425904066688 1.135706659961941
Ni 2.8019710845684824 2.6326659554181107 10.078376996906492 -0.2530397456036417 1.4947565884498257 0.637635897991747
Ni 0.08042876303244878 4.288292098188559 7.246642327071831 1.4116137970820593 0.23524771172754325 -0.24199685752591868
Ni 5.900648896954328 6.220825318341762 7.644647820177025 -0.321894145373194 -0.4082945244463097 0.13703979849653816
Ni 5.8057109203514035 4.044777767714292 6.04733355264243 -2.0186610236536717 0.21233789700890526 -0.3751134097086507
Ni 5.587608154372046 2.1008627682169334 0.30925827534064443 1.2441167105369282 -0.22051940437843312 -1.1925470659897526
Ni 1.1754265494284073 2.9995309002376938 12.35617022187196 -0.7397331189748293 1.7606119977608967 -2.318021249590408
Ni 3.713721294398689 1.376452000767308 11.942375181160678 -0.6015846607951445 -0.974262207368793 0.49507516967697957
Ni 3.143443047390043 0.8778696723783992 1.5592517391580492 0.6883249397061822 -1.1605556006848206 0.6565039385408435
Ni 3.7231519115695613 6.5057786168772 12.432635338318109 0.06733384935996792 0.7255414008554795 -0.5480537787565399
Ni 2.707070272959334 7.671003375513867 1.1232636224129302 1.1874768505556967 1.3825814144054513 -0.1272696064836518
Ni 0.2785293293611128 0.46239291569871566 5.245718085370496 -0.30857377411520404 0.6914706844240156 0.457835825709547
Ni 7.52224119667364 7.994933461272762 7.615737171518024 1.5552564456070956 -0.2640150136682227 -2.2842495524566013
Ni 9.309552203643861 2.2192146908992645 0.578384861276218 -1.4670899757724927 0.31596852391737845 0.6875698067077126
Ni 7.505804978175835 1.5907174811392064 12.215436610812374 0.8125423896270716 -1.008714732619708 2.819579712998886
P 5.587134300701392 2.3257202718152294 11.698619278226861 -0.23074416743023488 0.8262016322817191 -0.8035772100139839
P 5.969822241621462 1.1372581008195974 7.753315474605957 0.8782214769924359 1.8674287357068355 -0.9610243685222803
P 1.5330745757913353 4.1267823264828785 4.015296636400818 -0.061632428099816436 0.8703348751555076 -1.1231450212468463
P 4.787194974648793 5.569936199831161 1.820142562472676 -0.5246585397610513 -2.6247147759637635 0.19670173313354514
P 7.331919263542468 2.6277137199973475 1.5774876724794975 0.7566658901744259 -0.5493958946067313 -1.3617662774323127
P 4.115883692057822 4.97383757339606 7.255739388423555 0.024584374207583467 -0.32847771212798266 0.03990532083536998
P 7.237631674330638 2.7287839205734503 5.212238929851479 0.42575000091859583 -1.641126406098038 0.5148101862120619
P 0.9248954681290731 6.285362330035237 6.77404669145653 0.8266652021816988 -0.8159938385107818 1.3851108656955242
Ni 4.787455129605231 4.498172109294791 3.8156267782099267 -1.2171347826314458 -0.93619805350722 -0.06805015870070215
Ni 2.0596096251246463 7.2517172069720575 10.746956652454866 1.379424099723392 0.42046406992930807 0.778100148788802
Ni 2.5127623942455966 6.460214334506801 8.398463530702882 1.1985343939214392 -1.0363216957036991 -0.3995016087450281
Ni 0.2717625131191955 2.726888505890831 8.864151123099914 0.7646748765218314 -1.1053457882818962 1.777394102315242
Ni 0.17508242743298122 3.0287704590916187 5.12890572255537 -0.6429092305755444 -1.0886678134055832 0.8357892759701541
Ni 9.062274917549688 7.557798804469628 5.680794730643239 -1.3593923778834975 0.19398433420238204 -0.8895803536486808
Ni 8.800735565093655 5.580714048026444 4.115613316728095 0.7404373441307054 -0.5356399784732194 0.2061867898058449
Ni 4.981224115909206 1.4565890185986086 9.69353441547221 -0.8558305108917453 1.1270836941796203 0.7062545276014095
Ni 2.6210983511050707 1.1172261691738834 5.4296002542049875 -0.49463191149197394 -0.8554705564491654 0.9730669015091115
Ni 0.8059935035388446 4.894834087874952 9.833301736693597 0.8431392885773221 0.610952989383922 -0.2940796942640871
Ni 4.706537646904617 9.15312474483716 4.5031215573410215 -1.0823200168106843 0.07431722265633653 -1.0334749702835235
Ni 0.8865969420420445 7.746364691644844 13.35259994089784 -0.43441924655781955 -0.8150263323911899 -0.8459549036492463
Ni 7.086546683379358 3.658921511074746 3.3213286444786423 -0.12175356176142904 1.288354083088749 1.5830066191371703
Ni 7.978237087818518 6.322889682501396 13.043909360837135 -0.4638118407873238 0.361147691557178 2.154886553779031
Ni 6.935907672353402 5.354304905937964 10.959666777837205 -0.10317734142113845 1.076818627376481 -0.03705242476760715
Ni 1.9533270341713422 8.989756723442639 3.6745679734547934 -0.9404637707621094 -0.6132160743864858 -2.3354800684968033
Ni 1.8075380548332622 8.454943171745537 7.3639304018073 -0.047119836305938204 -0.10858154315584526 -1.6087341058102615
Ni 8.13456234289233 6.65293340973658 2.1274180853953264 1.6113985400163024 1.532921015334689 -0.9648673964174543
Ni 9.19883768718267 0.29699289826944447 8.350732529195291 0.9710244171577858 -0.16896364378832837 0.4700727340953711
Ni 4.695852711193777 6.500928585189325 5.438275492877346 -1.1199658521879163 -0.3709834467006772 0.1949130166642385
Ni 3.2777294611541925 3.357206800345954 5.635891985162066 -0.6613270709610998 2.2431743796828467 0.9190475098698624
Ni 5.172493756381687 4.862677077009545 13.293445349428097 1.9206521138073505 0.34908587529663754 0.4730706403814304
Ni 5.974839515781335 8.818184529671878 8.999960372484068 0.18046573089065696 -2.110468689785288 1.5141324218732761
Ni 6.445051017045852 6.069851822371813 3.5725909470305357 -0.1070396525900221 -0.0688986227439265 -0.4448535545172661
P 6.776674256516552 6.906891103462138 5.459571034311471 1.0288881222437893 1.9024343052477428 1.4577604708414507
P 1.183742216785974 1.3003195110154613 10.496876196705077 -0.6346583034206619 -0.2353317868009173 -0.3770126836138926
P 5.075641782599255 9.049304334721572 1.7789386629971433 -0.8797517975940333 0.8359767093906119 0.9390733181724858
P 8.609716788329168 9.20709760704957 13.228253304719304 -0.24651222889776903 -0.3257888524419099 -2.0394388796309713
P 2.9402062789214205 8.571362514751474 12.56448837411472 0.34374312292748543 -0.43929251548972087 0.0645943389416178
P 8.784670996533618 3.841206514301678 11.055877655476987 -0.7992096770739074 -0.32299097798179854 -0.9991252891590598
P 2.683739948115926 4.990877723042739 10.854957195245506 2.320839692875809 -0.35021998890108075 -0.9866322988983719
P 7.616677445860578 7.299985242639723 9.558499127083458 -0.7232821725076576 -0.21420117546988915 1.4397714904631977
Ni 1.3572841552269053 0.7927934268741572 12.756691785055844 0.4911876616971153 -1.0338056141500647 -0.6400787031052848
Ni 7.722727755602778 5.048734327104826 6.093881778223071 0.2992283283445621 1.1187893153813118 -0.11128531524025351
Ni 1.2744340928498958 6.35630101190677 2.5787181795765006 -0.23184485669358137 0.9127796745832796 0.06466967226424346
Ni 1.4815453119197532 5.5685239300676415 12.502110648559679 -0.496865428808183 -0.683693354471442 -1.545583955514338
Ni 4.297239570440333 3.2785006347750616 1.6516281185649058 -2.015434546296574 1.266992072473205 0.6749629165769795
Ni 4.9161760855512995 4.44229454115132 10.368301113359584 -1.5755776736629512 -1.5643419528481317 0.8076058715574026
Ni 0.4945991701808765 7.359913795104869 9.14542601637629 -1.059861687807168 0.25141789372950246 -2.237104519339683
Ni 6.834800306783522 0.07695569436400354 5.667658763592816 0.7425790730640567 0.050934839176654215 0.3179865827886717
Ni 2.0878828941403733 6.00537984941745 4.767452929954539 1.0076263846515356 0.642798416029293 1.142777193655477
Ni 4.383090706064821 8.759138645808932 6.878212736014243 -0.0904462670077152 -0.359642053545929 0.29561027197600054
Ni 7.348875791953149 0.29549236164570475 1.2514884256920777 -0.7258049389295113 0.5504063381491167 0.38265702638386356
Ni 2.816939285812103 1.0772180533731204 8.315403486111032 0.009911859797073253 0.34769336582448507 0.36258416689338846
Ni 8.051219844347779 1.8860491041868264 7.277782875357441 -1.5059717404393547 0.9730306489545372 -1.556001037082604
Ni 6.986312695163234 4.929862094509619 1.324500914216359 -0.7370393741927501 -1.1484888993282736 -0.03905094325487468
Ni 8.993751960273649 6.911239407734027 11.213907854640311 0.1869037732065168 0.051000145196950876 -0.4681271803332261
Ni 3.375138909843278 3.739179315135821 12.63118931757085 0.15293127291581404 -0.17303909940928264 -0.5152614148168675
Ni 8.569355605087525 -0.027597795253833306 10.65024218914941 0.722989066747271 -0.08354825433630128 0.32074614781167987
Ni 5.038588283803751 1.6841038192519489 5.866497984172794 1.113652508375379 0.6623552551152979 0.5679682582922799
Ni 4.09130833992289 7.120143837753617 3.0539646083729353 -0.6308273597103458 0.8346862727139626 0.5422443711636145
Ni 1.6042919951161954 2.1588215760119076 3.0425958367766013 0.39765632800617323 0.10658199622731321 -0.04634850535755243
Ni 6.58646381836671 8.523828487710901 3.377055694397318 1.3929013082742205 -0.4082269044331679 -0.1411095976905376
Ni 5.3413250318614045 9.088857179348569 13.214586807382718 -0.6746795810086058 -0.7268472641510966 -0.8945083870779176
Ni 2.744709120406824 5.272495463386706 0.9546098097784971 1.0620286135515 -0.9040080990382366 0.06284418901973048
Ni 7.950279721249895 5.293298568653289 8.757727305170256 -0.6197939847143197 -0.03734938718273568 -0.06537389742011966
P 0.5709026189040967 5.503141414765744 0.7049010039664755 -1.846314065215407 1.4445619698733059 0.6276962702805319
P 9.036640363092117 8.318993624509874 3.1723685620465543 0.319662684939514 0.8801891422417679 0.7230895968808773
P 5.909336214249663 6.829708702636095 12.451673106380293 0.2626402448078831 0.09107927260602379 -0.2022812841038516
P 2.343550177579666 2.4468688602792676 0.5004154917069512 -0.12351631008880663 1.0750818471910324 0.2695585691942712
P 3.933524358843336 2.1634486177371235 4.008999957330177 -0.7065820861441573 0.6008963764788684 -1.26303488759767
P 2.9835406616652103 8.031596727633609 5.156198764860234 0.5239890244978525 -0.8150271037221383 1.8118024045917829
P 3.822252367475492 8.493557600279669 8.998519299850372 -1.5473281918989543 0.39377344801199926 -0.24059972006807595
P 1.4695781839236126 2.3223940048722027 6.959683047997288 -0.8266443762460925 -0.9471686935861106 -1.1008386444401623
