# total energy = -340852.14793905074 ev
CRYSTAL
PRIMVEC
9.48752587623291 0.00000000000000 0.00000000000000

0.00000000000000 9.48752587623291 0.00000000000000

0.00000000000000 0.00000000000000 13.88595313367347

PRIMCOORD
 96 1
Ni 8.562226647061523 1.0918055275848402 9.909946805939642 2.5565651155707196 -0.4900016118088142 -1.1421318467619943
Ni -0.3621407684267964 2.6421811412876672 11.824041912410932 1.001588663097888 -0.1893622620493384 -1.9951344012866412
Ni 6.8680296253340645 6.6227296382322205 11.556932000329402 -0.38888320979923346 0.5728523258574586 0.1570812905284456
Ni 6.464041276821837 9.201477180070537 12.070100901600116 0.006687182212188483 -0.2961370910137481 -0.2974552956045393
Ni 0.5625875271773477 4.496148102399967 3.4247900910480373 -0.1500907181432254 -3.242000392433933 0.06804681626659248
Ni 2.3833234794007314 3.2252844948857855 4.9540502666810955 -0.2110567163036365 1.8190678279049448 0.5862837687720162
Ni 2.471917998045366 6.204045111803894 6.417448984937929 0.4709021719752019 0.3572337012147525 -0.9185086066472568
Ni 6.765365105495385 9.032504340376713 9.434686263921074 -0.3859938040665804 -0.6652567450328092 0.4644445892753163
Ni 7.105379065571033 3.0829051908270975 6.6421790667202805 -0.03378969485593535 -1.3255394338897946 0.8976628735464991
Ni 5.80423127477203 2.825717333532308 8.995057074892628 0.628158297518615 -0.6313387521291256 -0.1675071138474599
Ni 2.09192360301914 2.9033347844888033 7.323299001124736 3.5975147969647336 0.7588988932700027 -0.09782276197744443
Ni 0.33816294373515093 8.74344788293978 1.2349191661630288 0.9585951902554974 1.421230237125901 1.9196007897247003
Ni 7.447499256439047 7.5707042702663365 7.595824393099427 -1.3299699588573222 0.8722498327900333 -3.6115738461609603
Ni 1.4974636806892132 1.4769326742266955 3.842382603223205 -1.6419987814006622 -1.636022766322886 -1.1243950916038636
Ni 6.705916267004565 1.5818552252752083 10.902070691889046 -1.2277858345873887 1.7666430344463253 0.4274070769060446
Ni 7.411209469138156 9.415335505704368 2.0615227231633892 0.4016114559991793 -0.9214103536750841 0.5780549531043206
Ni 1.7342628444128618 0.776491392936418 8.796653929262238 -0.14522310563827892 0.8590135366054173 -0.75653810634731
Ni 4.24192984077189 8.288454594158377 10.858245911366097 0.2220021595715467 0.19061027552382653 0.5898594019384165
Ni 1.288187830157692 4.376036022078584 0.9601319479680676 -0.32623185351659945 -0.03784278187938644 -0.49770386554907836
Ni 1.932343414156134 1.4542290242891704 0.17043296995934334 0.1776074355062554 0.0709724745538197 0.471866078550368
Ni 9.012941061575551 8.930494459838362 6.193510162831629 0.6497311385933843 -0.398437686256888 -0.45314973308778733
Ni 5.190900663045639 5.624205467181332 5.826309696740109 -0.5170719856630449 0.2509872339499871 -0.9295928894858764
Ni 5.99929481121813 2.4298313323024234 13.129863258562724 1.3060982944460475 0.5521765426756619 -0.7694157336409265
Ni 0.1773304014280357 6.318796739883445 2.2249187950204914 0.17805480745631916 0.7886290733445838 -1.790576148223155
P 2.4538537483667 7.452717395789503 12.346473485405005 -0.9819801448383411 0.6104925048077358 -0.6553081184605295
P 6.822593862880739 1.1547078255730525 5.14878648347703 -0.5191391526047189 3.7718541032426782 2.1029245588894425
P 3.5935997452930843 4.289130283078279 6.714441757950599 0.6936751482745022 1.343515558752241 -0.41646266207939897
P 7.876155172789789 3.62794458974517 9.275122203852423 -0.012629001617920185 0.06504531043610733 0.05844554573140257
P 1.5365333131349836 3.548325270783318 9.315058996182978 2.3581034623232746 -3.6175902275583702 3.9008165240477206
P 3.243054631255608 0.42540548991171295 2.296598003396169 -3.1816679140924626 0.7106202607692729 0.1451914810693951
P 8.073638028389283 5.220748420130241 0.4785223534889083 1.4627800355432292 0.1634051758639444 -1.1174484850827013
P 0.205968498935942 4.410504204369863 5.733246553306268 3.223998556539873 0.45747150039159273 1.0088859680902496
Ni 7.248118895621207 7.068349251234986 3.2656150195491476 0.21911121117699683 -0.2418078814435642 -0.2526674498658874
Ni 0.14712591336238373 6.950134676131951 -0.05215198217366576 -0.1734324781929594 -1.456763397035504 -0.8283955546092442
Ni 1.949942775056305 2.1407748748654907 10.91372042517709 0.36310532950418106 -0.01267168193039753 0.3455863467838113
Ni 5.6084277112907746 3.864762728521002 1.0621209559490155 0.24364416332135458 1.9144182170824966 0.7643316342497999
Ni 9.607258671014105 6.442798705902439 4.493827453517928 -0.6713003801237277 0.11800103669753226 2.140808221309094
Ni 0.8451336442101308 4.973968378958086 8.301731438171155 -1.2470253995432912 4.450689615401187 -2.328368654263003
Ni 0.6889167833466453 9.311541970260771 12.79887762831597 -0.18026724172660566 0.3546816242168601 0.2203553679967431
Ni 1.6819865756473942 8.150439552101888 4.118670748045878 1.2776778343218251 0.7012303349139407 0.39093315034972675
Ni 4.325828034001115 7.675427583266923 3.7807421462051938 -0.08700535964696629 0.044369270143994555 1.0510433181845897
Ni 3.6571282200033512 4.63210435129455 13.831548354523628 -1.6135826921518146 -0.7079879653527484 0.28004121389314995
Ni 0.21994836863211556 6.887279815774197 6.901624006472294 0.08015028439834583 -0.32332342162055283 0.20744611613424274
Ni 2.8503090011620884 8.413500188047465 0.4713184749274528 -0.4450006216180917 -0.29179192667117493 -0.32404641582950644
Ni 3.4921970664246054 1.219697379301447 4.809719378505338 0.5942981544360603 -2.0218571619934664 0.43224100795957815
Ni 4.270430369151467 1.3333389668282651 12.188673156436808 -0.9406054385462963 -3.061752948201669 1.3559105899824841
Ni 9.586765614655953 2.667380010587319 8.021818109628828 -4.60673038048026 -1.186351478702002 0.18026029974807017
Ni 7.920452432112107 4.343911258731965 4.85351569645001 -2.122723853003557 0.33307381613909737 -2.2866085396070814
Ni 7.4211144463779295 5.0072411329618065 2.446941136856261 0.3648742484791458 -1.3427270014126746 -0.3102321356542334
Ni 7.733197129639506 0.8305693429067064 7.489097314588266 -0.3348175383030814 0.681314312716304 0.4326500704725388
Ni 4.866379833077796 8.776806024678326 1.7285371224164987 2.30862772419065 -1.0422424320635082 -0.8053415010032582
Ni 4.302925146015664 1.9554360526634205 0.8465643631447647 -0.6162440625795322 -0.3859860907570965 -1.1192302595734724
Ni 3.1486916967471976 4.8310482859121695 11.425599022899323 -0.5122185142254856 1.8883721707277221 -0.5597075609453844
Ni 9.168100063279809 7.562288834622967 11.548336301690291 -0.20998225229253514 -0.48336405188763854 -0.9688402650222734
Ni 8.935911837236745 2.980288108618877 0.15968550040262436 -0.40060846865596167 0.3723751848418813 1.63003338150867
Ni 1.1706943070376283 5.504729051108096 12.244842157157715 -0.20396124290943582 0.4710826634171242 1.2187635764841203
P 8.179139318529392 1.107327120270921 12.900814454903415 -1.1441043971073328 -0.8065105816106948 0.29405526878405486
P 5.286212350163223 4.8849279465871405 12.53716896483847 1.3798550166132235 -0.4161374175294962 -0.7213178496924352
P 9.01844382670876 8.370958121052118 8.715976751141158 1.391534252723365 1.2141057659971348 0.846078316600988
P 1.1693660533847854 1.4246184553568613 6.2297107673872585 0.8176856243909079 -1.7362032298992292 -0.05461254513855755
P 7.229969258207716 6.6227391257583115 5.465705907540175 0.01633036172890736 -0.12716213437151003 0.09309810280826547
P 2.4020233933275437 6.131456049676018 9.708114868379697 0.20896975186762073 -0.08989502248993551 -0.6514643192344071
P 1.6027088076248448 3.266896784324141 12.898870460807219 -0.04768290789825981 0.6303380787787531 -0.07922751547376032
P 3.9387749195626376 1.2397065718289189 10.056374437381676 -0.7039225370341232 -0.9152013966508948 -0.11602360125618728
Ni 9.314198477566459 4.874131141894745 10.582763257508612 -0.6142069775448454 -0.6547974973726981 -0.7274483880702053
Ni 4.059494201553892 4.407468196020507 8.912616165671094 -1.7355062038322049 0.32081093961134427 -0.3215748143605623
Ni 8.04056451243349 5.139459296576245 7.034318443896538 1.8203032429739423 0.3870551554515592 0.6410390101360249
Ni 1.8283885907689783 7.850045500985331 8.399307797766836 -0.2357835296263552 -0.4567176529447038 0.4100798984815066
Ni 8.970332581897564 1.4174838357358754 5.073233518198097 -1.6893605585140776 1.4301470799995561 -1.4160039557299549
Ni 6.099957463051453 5.599632774603735 7.9376552144216435 -0.920406337890602 -1.2981846960259256 0.6645134391088814
Ni 5.783102554165732 9.050910140994683 6.987523118954266 -0.2144973665540693 -0.6423700702426227 -2.0248818077524033
Ni 6.9643944278478305 2.016668546059487 1.3304243988128837 0.9697033843535171 -0.5671915280272554 -0.15772123810528965
Ni 6.411243194121324 6.903067059190847 0.17013885665049952 1.3951669643799456 -2.5123889352741378 0.2842822485576911
Ni 6.451024391023974 2.954776150958198 3.4052524285673242 0.16763155524046613 0.9353812140328795 1.4741831351738484
Ni 5.045295600115761 1.2782828529179189 2.8925825711690383 1.185955528815164 -0.02150650661320812 2.0336145596397106
Ni 4.157177770194409 6.777575551575449 8.167898497615903 -2.40413032267535 0.2936346363068685 -1.223641987622344
Ni 1.7666247959117747 8.99745741899384 10.744714379141941 0.4656051852423207 -0.7055554446518558 0.24326543982569712
Ni 7.913706801060882 8.59969288759779 13.870400722621898 0.5828171503796544 0.6986216936465001 -1.23738967622574
Ni 5.985300710232819 4.7492563234753105 10.295143211521967 0.9371647882958635 0.8417989724993439 0.4548060377442877
Ni 2.62717187501054 2.8151102793617464 2.366874955415488 0.4192160564548199 0.6853907967785229 -0.24942554588982205
Ni 4.083469179987709 9.137929730308088 8.51853279439864 -0.7130815778255719 1.1201178043847484 0.4037025342002531
Ni 7.951581005219094 6.336111475000863 9.220176145244741 1.1586270162035401 -1.3077875092230122 3.0448083499275302
Ni 6.666562008776042 8.976072535183064 4.213331590873569 -1.3246567741745252 -1.753420365108464 -0.09886457297839747
Ni 2.7146184029980747 5.438771769718344 3.821872469318089 0.9155965752067844 0.6656691499798794 -0.8804758202442514
Ni 4.942659542855356 2.7384510685405163 5.935036745751409 -0.562135967881219 1.372139393136521 -2.7992744257826305
Ni 4.357412008360506 3.170389668918999 11.06227231371106 1.8859674179409711 -0.7505870309701977 -1.0605183475545608
Ni 7.581007723601963 4.317905949714516 12.253381879392888 -1.0068727943149627 0.9416187103021588 0.8605968219321372
Ni 4.6489826602117486 6.328094515453347 1.4454445238808316 -0.9955596832949888 -0.28278689495908715 1.4800737896266702
P 2.4585500737821095 6.074141904555838 1.4626349724064487 0.2531454179435705 0.5421474405744341 0.6218590947734646
P 8.681750500765219 2.5884437935040725 2.8443707585812703 0.17589970878652933 0.3501950492004162 0.004488374788656786
P 5.167466473599051 8.355787566831431 13.445491430324783 -2.1423449696685943 1.1883273714814504 -0.20857611597362785
P 5.212114771386762 1.517150297329566 7.467213386905067 0.189137547633042 -1.4479131457337258 1.534292441760919
P 9.2438864217006 8.245798676849931 3.255700554783284 -1.4082034858489294 0.630225721570605 -0.3210027439071762
P 3.8866125011102706 8.175913559658202 6.017546913913413 -0.32369674579957153 -0.859096840347843 -0.23188316613068452
P 4.4136256004540435 3.9558334914755795 2.9781619540217186 0.13610700226962366 0.12253877666688573 -0.08083496917019628
P 5.651662367690816 7.073311227380965 9.529832868084663 1.7875882692394245 0.2581395287240522 1.7705133160350088
