# total energy = -381168.5234552973 ev
CRYSTAL
PRIMVEC
9.23210230078145 0.00000000000000 0.00000000000000
0.00000000000000 9.23210230078145 0.00000000000000
0.00000000000000 0.00000000000000 13.51211491239265
PRIMCOORD
 96 1
Ni 5.623772049102711 6.4373141365534705 4.851754111411214 -0.5059997870092834 1.8903408644183186 -0.40756458825882064
Ni 2.602271141656592 2.510540973127969 13.50175113471086 1.3275590354229847 1.7594961389888988 -0.43799025173852957
Ni 2.374552106136563 6.98390075367677 0.24248947600200751 -0.7050952171859857 -0.5946506526794726 -0.7399835444227385
Ni 0.6102161126479538 4.690766557791205 6.335668690146452 -0.410116408146397 1.3949185958145653 -1.0506165150598163
Ni 7.43250706900918 6.383084767598446 12.73487086195356 -0.40080027295179366 -0.5938854923786739 0.7514056702167511
Ni 0.7804154579505177 7.218248438653677 6.763975458924843 0.8936941187067383 0.7626087380214222 -0.003890079083025558
Ni 2.3764816155188577 5.661512883336306 2.5430342804099078 0.42364709564298003 1.0288325864155055 -0.7521901137912593
Ni 4.279605649418547 4.688827816306603 3.2179775855468935 2.4669865958799386 3.0318777579087914 -0.11673708238344413
Ni 8.472411072940746 0.7985002231609363 2.8436786152681446 1.21342802320382 -1.0115280336987869 0.9243830631501627
Ni 0.999845912018755 1.9076569961327359 9.020350193052112 -0.32609789904189646 2.2887746940204643 1.2016199748252983
Ni 1.5288730705529396 -0.17333826008715836 3.4105657021556937 0.9793378221194876 -0.1902734610096981 0.6235382822481004
Ni 7.048885521820184 7.7080206981758135 6.974129496594373 0.02812735436383543 1.1342632426471948 -1.3690797803745907
Ni 8.341776825287766 1.3321277382750134 12.749207393627081 -0.8121934909280851 0.3182244098310907 -1.334597944547637
Ni 4.207641411930562 8.93070186359386 9.663202710567774 -1.3847110591539442 1.1810742894634627 2.0618478434537915
Ni 1.3931057740169168 9.024850842927082 1.1292698310592044 -1.4508729996929979 0.24585196960595077 -0.7838748464890499
Ni 3.062112925497389 3.4812226739569176 10.322269569366327 -2.6248479591075182 -1.541522640960771 -1.8320177031973934
Ni 4.717336548232567 6.3361302952618335 12.38181311266421 1.531695113347388 0.6888278474845299 1.0961785199603316
Ni 2.410917357126322 4.376053422226368 4.952298168012932 1.1623625719865724 -0.8703896396528429 -0.5240766991156522
Ni 4.410359914401526 0.23557186174289957 4.300041831086719 -1.1483282053806934 -0.2247964344872322 1.8643794073575506
Ni 3.153621523570628 5.940599336095995 10.845944878192777 -1.2868759558813256 0.05031211799099077 -0.2572818087094472
Ni 5.789691391775457 5.880766081040237 7.201916849671478 -0.4816979770391253 -0.6311644313347904 0.3733825430604731
Ni 6.189192154933577 0.7928667943328197 11.078867126573387 2.128730464208953 -0.40574116189683673 -1.2622105919241615
Ni 3.2247548718509256 8.367977531636823 11.883513160240511 1.0034856230102847 -1.1430942106752637 -0.4627314632389514
Ni 7.696369785063584 8.462514259266966 11.887864250058099 0.7999807509119771 -1.000453263941864 -0.4951574449781408
P 3.4049193483843463 1.1536065759523508 2.648441808507285 -0.029849479261264716 -0.5538338757734268 -1.1686602320698258
Ni 8.023647811869106 6.371249212440063 9.971940829519111 -0.8017193308696385 -1.034873650403263 1.574250470211095
P 6.384201851977669 5.585569609753733 2.989852337525329 0.16127167446070934 0.3582875964005636 -1.0206132838295068
Ni 1.3906500348030868 0.7893484401433816 12.39731104280803 0.3421600947110817 -0.9595634677060378 -0.17663710117318612
P 6.485256443836999 4.770070316613756 11.669184365907473 -0.2969225630295209 -0.6418501931834107 -0.10013366949880818
P 0.11432481571631888 7.418077293102352 13.382209257980499 0.28943602484448866 0.5172707319374124 0.528306935146916
P 2.139041176268894 4.614814052106324 12.219491520260746 0.6428549802988412 -1.2904287062295905 1.1984194656101297
Ni 0.5168490923801884 2.088993949659226 0.6930096061427895 -0.03183565645335808 1.0597878971464394 1.3584986624246345
Ni 2.0465539753510456 1.9483890315140042 4.495008137249965 -0.1779974718558225 -0.6362935250312397 0.30701877092325836
Ni 5.586031214869115 4.239122880799584 5.311517422382397 -0.06714358772603274 -0.1248856796325075 0.5355327634713938
Ni 4.162607216873938 1.3114478291059197 11.598474771123096 -1.9964754886955682 1.5746212232869528 0.6688822576005383
Ni 8.315428405301786 5.2374731922445035 1.5149104390228783 -2.658085381004409 0.6600695444049148 0.6111903022057087
Ni 3.4276580163680417 0.2868321865957904 0.2926401021575212 1.5888720767790119 1.3498186181521334 -0.24053672804062445
Ni 6.6672119482181 8.259251062759851 9.377447910311282 0.3206728713715832 2.34942033272698 0.3407521586199615
Ni 0.2324227916457666 7.299472474756215 2.181909520124148 1.150159087941845 -0.6716904164732949 0.011038517202348731
Ni 3.5930049686977146 7.464117787310508 4.290272420424784 0.45873262649220353 -0.7051587234340694 -0.8433853431498571
Ni 1.281083444616121 2.5625638696314703 6.839454357761343 1.9719085979894815 -2.2471220514766848 -1.7747530651479693
Ni 3.5175325323328304 8.076981666900291 1.9236386884374759 0.510549611163495 -0.6369743531483482 2.1560759461014416
Ni 8.976123806947406 0.739173810521868 10.562163901409658 -0.8680440222388018 -0.04962100546123712 -0.9891764054764642
Ni 9.50223362115238 5.012985392532146 3.4675600857518543 0.7937016027714847 -0.414159467867519 -0.21658330254882058
Ni 8.76211444335421 8.107613782357012 8.794589286431533 2.4728422833297667 0.45674799196200694 -0.40227840015921684
Ni 5.674003917758532 6.981528103383708 1.2440617911522898 -0.1748339865261763 -0.5372212069174103 -0.29710202603017866
Ni 8.504631109994378 3.140022636871487 7.455282665402105 -2.0748833364815105 -0.7015195840195854 0.21127397452076518
Ni 7.058874656517041 4.217418208274344 8.908402643680008 -0.7659084918186164 1.3479100882755108 0.18331682718620687
Ni 8.960299983592126 8.444530123971699 4.878643532592421 -0.7203595995442238 -1.0132293326606099 -0.8884017599595474
Ni 4.500151341445545 4.731526289479396 8.74958094126137 -0.40525728028188274 -0.837522713721493 0.34275967596829354
Ni 3.856369151227507 1.7555027180006675 6.006486080634866 0.03336109195894899 0.123756965344703 1.5038472378971843
Ni 5.533842140524076 2.7691875513785615 9.883422509383314 -0.8405951819992298 -0.5325351142956506 -0.06420173148888943
Ni 0.4816480094914218 5.941577938940604 11.748080989018256 -0.04914200894228956 -1.1383515537839557 0.5263544394062354
Ni 1.610844906942396 6.603325800249293 4.40004488649321 -2.122625893973112 0.9671883312411473 1.3184087363822843
Ni 1.2235212867280412 7.92974809929819 10.907019851008911 -0.6931614418628772 0.4997329801639651 -1.381947380365878
Ni 0.5784253683516263 2.7955728997737714 2.881472072484894 -1.408876086435922 0.17056004174117076 0.6412256722255344
P 1.2923466094314309 9.637022314843794 6.0546296477487 0.8549864177238953 -0.4211988912128036 -0.5183225702406944
Ni 3.497028033107582 8.637665704247343 6.981574263895246 -1.3401350723157825 0.5655210823033681 -2.638682036777133
P 8.44110501401557 3.599744403382285 4.846552744971095 2.134313100503053 1.5016725988433688 2.736552878383694
Ni 9.317868538068986 4.255426773474861 9.638961979538625 0.24545704816037728 0.040760469746813674 -0.12701583860163287
P 4.945747991425668 7.896558691502257 8.151102523487339 2.0725480034801143 -4.582690565922236 -1.6347811806063006
P 6.596577133462414 8.921331279751616 4.465064736625394 1.3648132917887528 -1.4666032659440613 2.3175221984668024
P 5.4125415483041115 8.54932371726562 12.489775163470108 -0.16443541690067165 -0.5001764954592869 0.5327927388324114
Ni 7.653098921547716 2.958094828797309 10.92296369169419 0.4551533937813774 -0.15942819349406737 -0.9528215209965138
Ni 8.711937967312235 1.6104202302362451 5.170857111623329 2.454956661298598 0.13711358915726707 -1.5164160757011302
Ni 2.091643563021516 4.106328321206619 8.249645983518992 0.14239694904339345 1.6623192381255694 0.24602706173123434
Ni 5.201911134155509 1.8753815664652576 0.9707777146929477 -1.78586383034915 0.15376045368532873 1.6905862033910626
Ni 2.946083863695081 6.738760741102241 8.69573470455211 0.5025529661112635 0.7473597822821516 -1.0957961969202483
Ni 4.4606379435688845 2.695589231782127 4.023286484159708 0.6282709118370793 -1.7904509354992002 -0.4306492379924261
Ni 6.101911859717233 4.467469699276532 0.7310698711162296 -0.25662386341047416 0.16470075474691637 -0.011437552412980301
Ni 3.6822424696032767 1.8168777341417992 8.437762069769976 -1.0281777264403258 0.7488461370196909 0.41504367024468525
Ni 5.50818612821117 0.5704220588611408 7.597227161592164 1.8884130512679864 1.042271485529231 -0.45685957783920667
Ni 3.637365220285882 4.897048651752915 0.5166099809304208 -0.3610075664348879 -0.5808165750098577 0.40081441401918066
Ni 1.0837195614835835 4.879960030381489 0.8189881046020311 1.5637863374549776 -1.0871750309101404 -1.2406187246859988
Ni 7.22724050630131 3.421823327709619 3.325858393852486 -2.153305582445156 -0.1876869312294445 -3.018203345745492
Ni 7.402161148723996 7.892118050292286 2.7228396281635616 -1.4051317889021413 -0.9613300726881573 0.6288344976500332
Ni 8.53135804617497 0.3133218577470763 6.91746008299944 -0.6893855197602127 0.49364872164309814 2.8019458019672068
Ni 8.314375945638718 5.931053342309903 7.6266563341182 -0.14833953978007355 -1.375917115011398 0.6343757391832365
Ni 4.406103915237708 3.8442012403860493 11.81933066178763 2.775591480343394 0.8979199838626278 2.9987359810495002
Ni 8.377052688205225 4.113547825211186 12.943039074416717 -0.4453402643456975 -0.5346002243547955 0.09857506676243667
Ni 7.882064290879276 5.695874768125309 4.91331561601896 -0.540653886748043 0.7328217365669766 0.8452061984086798
Ni 6.28516909052371 2.427304338722367 12.763043545355528 0.3318237457820801 1.4288900676640037 -1.0827887289169869
Ni 1.7453658696668888 9.227994022104197 8.263198709706595 -0.29093626353909896 -1.2929134203246573 0.21353294575827095
Ni 0.7455005702332876 2.895575031970031 11.548885456787886 0.8396598146691538 0.4397275461446104 0.3414975214264183
Ni 7.008578163145067 9.15394332949469 0.5296124738204884 -1.4589940861382356 -2.1892316069178035 0.39125273847267455
Ni 3.136431349073819 6.343414423982555 6.197318251384754 0.5885234567358123 -1.1186767010628478 1.2151509194321977
Ni 5.993213087147185 0.9275585509500036 3.0063242544626045 1.331932224790016 1.6572209976670556 -2.7711856379662145
Ni 5.78757724034701 2.8966644200423315 7.274557800258612 -0.02132704361255037 0.7199101707116311 1.02873796981917
P 3.7506708119074386 3.8046324498955424 6.883625351252204 0.08355082543946256 0.35309319668381767 -0.6463925611384544
Ni 6.574623194174868 1.9944202936198527 5.265792666073161 -1.7514385587917451 -0.9999470137294069 0.0507692601330674
P 2.2889428214378995 0.8529825517191905 10.438000434264097 0.19686859772871254 -0.11456347177089303 -0.7430243881315913
Ni 2.7681166275108766 3.229472476130125 2.5722335735884827 -0.8711296031426612 -0.4574851272383476 -2.1514412755429073
P 7.334748337673674 1.487540948521675 8.775469602552429 0.0450225874572773 0.2783049479283336 0.22202401394841761
P 7.544870986195358 1.7262923462993227 1.321614220167083 -1.053336999314773 2.882745032803461 -0.7539433490369403
P 1.0316412723662365 6.181566438427474 9.288551997191103 -1.3081744602487857 0.3825912061429346 0.0867896440917344
Ni 5.383257319784306 6.597915788297021 10.05494573815679 -0.40108849361617377 -1.4865501413796334 0.3741351049557815
