# total energy = -340865.9885079481 ev
CRYSTAL
PRIMVEC
9.28347112929251 0.00000000000000 0.00000000000000

0.00000000000000 9.28347112929251 0.00000000000000

0.00000000000000 0.00000000000000 13.58729838536064

PRIMCOORD
 96 1
Ni 7.028850195043883 6.516560407854915 12.129055550111268 -0.017010418515067478 -0.5733824873293157 -0.41407307880129973
Ni 4.790224684061606 7.144559379168038 13.317033499791616 0.8143892130278232 0.45336673419459983 -0.22228112426454621
Ni 6.60798403151142 5.695455953633689 1.2619514326598507 -0.16190545138996634 0.33769820228498615 -1.7485589232511047
Ni 6.540242542699325 -0.1542430160771844 9.031423028991359 1.528687693979632 -0.034119567391528334 0.6049558912602226
Ni 1.7318408221714874 1.627262519928338 9.48610794949156 0.06445987024628254 1.8467023017927615 -2.2141042017897674
Ni 1.9790689417487017 7.459074097472137 7.097502392373515 0.02630135689869019 -0.09996577646237623 -1.165843074336005
Ni 0.3288808898727865 5.268694785935724 9.06083956395078 -0.644620042619064 -0.4531877854145744 0.47353909537741673
Ni 6.363178897898295 6.340796449011634 5.974647992647511 1.2099881442843354 -0.8173333832578117 -0.8335452171309837
Ni 6.600334451302955 2.561987377270194 9.288222407300282 0.07251333667837835 -1.4035287060810795 -1.245763502111732
Ni 8.970803819227728 2.0284941420276654 13.466167821707737 0.24645823573138204 0.4804777314787789 -0.44636819138957967
Ni 8.35644226699984 8.705565765664565 11.88845118718301 -1.65531066801822 -0.29912111334273644 -1.4014782513099542
Ni 7.798876991125577 7.959935931704043 0.8007838642718215 2.5123763368686474 -1.7706303012288473 -1.1025330014234498
Ni 4.597082067268999 1.9422135613753946 0.8639393183472893 0.19894604908303154 0.4963332104537969 -0.44308746375577884
Ni 2.97927012094772 1.75770457273069 2.8814446156021885 -0.17945554445858772 -1.8149576623913133 1.2253605129753478
Ni 4.110498211630078 5.118116884259391 0.12023766133979807 0.4372626295438857 -2.5825412279195072 1.5226296607110101
Ni 3.9066610360994214 6.1280192907858915 2.50488660306361 1.328081740695674 0.5758695154172275 -0.3409452484673741
Ni 8.726574260824462 4.125565285268837 2.5474281095020683 1.7455008531510712 -0.8892993320731523 -0.7519628282718017
Ni 8.736396173276592 4.564747737334432 12.466876422679142 -0.5599093925435453 0.5636539471876421 0.8642596154957051
Ni 5.259717669356129 0.9788677625496833 2.9678189593128397 1.2885070637268454 -1.044071514852447 -1.2082971297351577
Ni 7.723885111363467 2.836833823449571 11.261356425957633 -0.043557315765660465 -1.244986257626075 1.497610255848537
Ni 7.161251060253985 2.2643221590611966 6.695140971838059 -0.3944745878440819 3.1123491730919817 0.403502245263989
Ni 7.491334159637688 4.706682727391734 9.970128638752378 0.2687173042398985 0.7651932109191467 1.246967549722162
Ni 1.4789312182646854 7.468775324799619 4.088105550925177 -0.06964964197733811 -1.669704474846047 1.353606881549972
Ni 3.6442451577587995 8.869855354195147 1.09798862231293 0.22569066416672742 -0.19567457742061137 1.0516647538186727
P 0.657482347264657 5.337754527647822 4.147522551177891 -0.11548495514389788 -0.6788463107917857 -0.32469947603247307
P 7.673420162318305 2.166697176692004 2.7325553773238167 0.5539524036291621 -1.4389186555445992 0.8270480394424145
P 2.769807161914237 6.840720652659735 0.5159901787801017 0.08415966266805505 0.8958844414898377 -0.9718358573154877
P 8.868332864930355 3.036122098128106 8.880820990290097 -0.5975454577287644 -0.24773247445811528 0.12203792577106724
P 2.0181987725480695 5.474165852384692 7.872385372201627 1.2580338348386526 0.19000375228807923 0.36853010006417825
P 7.1747306603300665 8.319521902328646 5.5406280788755184 0.39774220285176015 -2.1389110042863804 0.47090988528468575
P 1.1919698422648632 4.942742831203435 11.102113332331568 -0.8871318921081882 0.45725989860141897 0.9659737421077557
P 0.9897479907102668 0.3233256607505228 7.528491252822616 0.22865463189105784 -1.0746203341735816 0.6634425746422058
Ni 4.05638485843209 2.206495417412499 8.85001843309145 -0.8582175230666833 0.15409238310345075 1.0051704669118753
Ni 0.35280160992515436 1.8949978272246037 6.287902943919706 -0.5870363306673244 1.455413310765513 1.6553955144225427
Ni 1.4830716463872282 3.9675606066910825 0.6437474517325896 -0.5907058090991116 -0.3210353969173245 -0.7870514444448187
Ni 9.008633964069347 9.15261131777454 5.307049446896005 2.276058274895061 -0.36822465300861745 -0.7910675075827474
Ni 2.6970711656359345 1.8224846342533438 6.937239973617729 -0.4498052420955866 0.2743197380283405 0.6251773605134201
Ni 4.694409978562134 0.48239979520208226 10.407435829650364 -0.22368777480408575 1.3062530748563568 0.08924093384570438
Ni 6.34709064243559 0.8750089293188591 5.153975219833683 0.6266333762336563 -0.2731881955270586 -0.5708219256909911
Ni 2.9334469074659455 9.123693305214628 8.461394693129398 1.365987771712828 -0.3926935846842592 0.8432740143829737
Ni 0.7503579058053909 2.7571909246529462 11.668880384786693 1.8020363263439543 0.8769114999317608 -1.2142551470908056
Ni 3.7590816955970383 8.59636429480028 3.732539323298468 -0.3345159479022626 -0.3155887719804565 -0.5173586636655283
Ni 5.12970265622561 7.483164705046124 10.455711736203833 2.258939870047219 -0.8185122340572613 1.0697023280466738
Ni 8.164868556827658 7.334118576105711 7.683372971713323 0.4399080375865327 0.11362553333765592 0.4705712709983444
Ni 6.116739873366858 7.726762987412768 3.766724777375714 -0.12794683505633447 -0.33873409974866825 -1.2963034198428127
Ni 2.7520293147064576 6.57834190820362 11.692155903595749 -0.06315117873718801 -3.524062493411853 3.284731355643556
Ni 4.421698730741916 4.986830035584502 4.490425195840563 0.8522173396191903 -1.164707160959349 0.98921985711989
Ni 6.694979439440454 3.1882596229537374 1.223155806821047 -0.7250240948994288 1.533706487350462 -1.2947319615906348
Ni 6.435227917313216 5.996333252852551 8.381352605074323 -4.217459962544936 2.8145660618343786 2.627364811992101
Ni 2.9764665126674332 4.093583727237089 12.044813619718438 0.016241658669842996 -0.8078241582157959 1.6993585502670538
Ni 5.946610981497531 2.9406323141180715 4.130973835547298 0.18378271107903188 0.7858157722655047 -0.1073031906640539
Ni 8.363534838940698 8.817970034067587 3.07371829949733 -1.130400417257679 1.2468539069624334 -0.31448036940762614
Ni 0.5275193215724467 1.2729588443748707 1.8636206231632082 -0.43968460872181697 1.9411744021304185 0.5195566997581117
Ni 0.47747584211643945 6.8401822113343815 12.21442449389889 -0.5890258502935275 -0.24254707360243388 0.36725791821997394
Ni 7.726391648567697 4.670959930495894 7.611183771884388 2.7395523273316496 -3.097275309477995 -3.045553198513355
Ni 5.057347282263504 8.32829478254345 6.002283957844816 -2.195999778879573 -1.036935418028298 -0.41571961326578727
P 6.886534582670381 0.8059204088462675 11.082221638748223 -0.5503353757018651 0.8055466750355288 -0.2923310870040966
P 0.45388004355350886 8.922873257800175 -0.23622627794487006 1.2664788802822124 1.2528977991636678 1.5247122542716516
P 6.187368521699381 4.353567336142495 12.812604955952805 0.7198394653746958 1.169693558430347 -0.3683395813199269
P 3.287667031779272 2.22772671587944 11.028660652082277 -1.0473815530622865 -0.47093765319882763 -0.7182484667384921
P 3.2291440297960654 3.176367496440335 5.258719696210001 -1.9918480172258854 0.8350732237397361 -2.1986549571142326
P 3.4122326473583735 6.7839893606039965 4.909322335147036 0.36950094861787974 1.0117923431037672 0.5498185839664466
P 8.074039075323265 6.942551047449357 9.981936285678527 0.10228851105828189 -0.09128367530734602 0.13619673376995253
P 7.143278260152543 4.378019999090427 5.385760285191501 -0.12173839225277744 -0.6120997013938555 1.1603681672643629
Ni 4.385780980952413 5.959579990661639 7.053207238239209 -1.7892165488714669 -0.05330411073977916 0.14476956304062807
Ni 5.095260978345265 0.8329575901558944 7.401993746902032 0.46849356253370933 0.11215820476351006 -0.14604868686336783
Ni 1.1468428891175972 7.5028549473060195 9.403429355636478 -0.9736669969869554 0.9657490276914592 0.8508723955555217
Ni 4.127551948089968 1.350707915061633 5.0389038101759365 0.46681540350033796 -0.6302275213428179 0.022201218687387572
Ni 2.253590466438642 9.277344035833924 5.5314708629560645 -0.20890727406080153 0.05475961223938312 0.2925609436267155
Ni 4.667822117255043 3.252297006786249 6.677817086368379 2.414281809287055 0.6235100001133261 0.9094544668647885
Ni 7.0204672206164025 5.286806838104067 3.4381028963473645 -2.840582540502798 -0.8790928238537957 2.5251300369898897
Ni 1.6937228897249386 6.030830631559657 2.121235090237061 -2.1624761932008307 -0.13292551921784848 -0.3175777773860272
Ni 8.025662907281628 0.3203196727996723 7.21037176267999 -0.1439709783987327 -0.1617694400327343 2.1251897980455463
Ni 3.519818794246599 0.6478117553918928 12.598917089209525 -1.0106353466811886 0.648708867976457 -0.24763991474430902
Ni 2.1977875214955818 3.8773252673388043 2.877396093843801 0.6152989250574435 1.187598977955858 0.8891278394922946
Ni 0.1901254886764052 6.0623851499195744 6.220917129657329 -1.326452432622367 0.7286789180431967 -0.3965152724231945
Ni 5.1468863612812745 5.013529298545114 10.813288763676601 -0.07564931120419875 -0.010570576426994698 0.33898889607195165
Ni 3.3215517013920097 6.52282675086549 9.484668083119798 0.33894210199441627 0.14890055448986614 -3.144169402926372
Ni 7.3208246454521655 0.9641627442848677 0.8417239719409106 -1.3473228483134732 -0.7991531128043591 1.0016999918647715
Ni 1.7220003427771031 4.510402297358276 6.000327930478404 0.9820765612068892 -1.9997073653693045 -0.9566362667569137
Ni 2.862836826075675 4.321112321083281 9.859460379450061 -0.06344042784283267 -0.9886009925889683 -2.5719711657131445
Ni 8.645028250446847 6.553081583267658 2.7642268674199313 0.6685143327381584 0.7765271478747271 -0.5204596711883552
Ni 1.4244001088659937 0.5661942622866023 11.323205695645566 0.22822217233932954 -2.532053503582601 2.351747952418892
Ni 0.7741505139562092 2.6269716751576366 4.291683717611396 0.32403253187243547 -0.06618662312940214 -1.4320959761958112
Ni 5.265454854512478 2.6281970933463716 11.903301955944517 0.2500415822072662 -0.6508462260344339 0.2111042817121203
Ni 5.653151175708964 9.054559295733515 12.610928972500464 1.83884578186282 1.3028368500859562 -0.016695458377809957
Ni 1.2159304812430762 8.432278942634486 1.9665715329178335 0.8362281632797856 -2.2326058601383805 -3.0942594054698063
Ni 8.856756376435264 0.8386158658076656 9.90115987505732 -1.3495573940709467 0.623813390286358 -0.9196897714395517
P 3.1832651154875307 8.23778093905737 10.846387123284902 -0.9354210661318793 4.372495169177631 -1.1480345853996743
P 5.9113245077446495 8.450753050176774 1.2743922123168452 -2.390638201726186 0.5543851202912066 1.1255605726668745
P 1.1221952732760028 0.26294874958329933 3.6842773419516894 0.49410123579948456 2.1608047190356787 1.3542882238877127
P 5.08562473531567 3.999003723397478 8.787435769184503 0.11436729659968692 2.41200021234173 -0.09597053926005408
P 2.4116879797276645 1.992205053393092 0.9041506735329266 0.011404899402831972 0.3544671942132089 -1.5105655304576242
P 5.095920104795265 7.8173418151967375 8.231511811005456 -1.17576213322193 -0.15400702247849604 -0.7282261467764941
P 5.085225546057218 4.216571152724638 2.4238790340113487 -0.050847421669170494 0.8297813792131774 -0.2368019435885406
P 9.08082223555117 5.810208940231788 0.7169884688401889 -0.14698713951723716 0.02852973200857667 -0.17089737047593148
