# total energy = -340877.2605686078 ev
CRYSTAL
PRIMVEC
9.22068959395169 0.00000000000000 0.00000000000000
0.00000000000000 9.22068959395169 0.00000000000000
0.00000000000000 0.00000000000000 13.49541126233594
PRIMCOORD
 96 1
Ni 0.5923324858833215 7.286493159458507 0.877214909997007 0.45822097696310765 0.7262463973423041 0.7962431382464157
Ni 7.727269781671949 0.44588488422014144 11.421908796636835 0.025763225007033052 -0.4660381590146812 2.4099276460834176
Ni 1.2659914535339496 4.649836984700986 0.8913824994794861 -0.5363858555003085 -0.012210168912946713 -0.8082249931986404
Ni 8.775542313721813 7.979907454454538 6.589741896916944 -0.5633772964874878 -0.7208802479343843 -0.3411918172605415
Ni 6.147461380239076 3.651411500319384 2.924307571940903 0.8381505771134792 1.7400632270752676 0.005480306388280884
Ni 6.749719938415198 4.289990354604511 11.446713373575863 -1.0516701531353114 -0.9779165162919288 1.4917872214088566
Ni 7.368289896392496 6.248086765219417 2.0204116746829124 -0.3290400123893559 -0.39244187368476935 -0.7702204889304091
Ni 2.3663055573632548 6.006513919888163 7.161366558225094 -0.3119953982022433 0.33992632028455655 -0.3044191285168822
Ni 7.848982883636626 2.345411474859318 7.458049620815627 0.2722183754146215 0.5611311807657885 -0.05860752523056358
Ni 1.5685591601906843 3.5879454941964393 7.197400090889318 -0.7662496772081191 0.45618389192842085 0.10746208483942138
Ni 8.431232545504919 4.392174036117583 6.007860140561409 0.14480684403646674 0.8180154969265009 0.5884800050923865
Ni 2.378698164108749 8.248598347731106 -0.6037781278127725 1.050853313660971 -0.08518501860877586 -0.012998726252513098
Ni 1.4567121960367808 4.58994860612064 9.685278595736198 -0.07347287237817024 0.46852338733038024 -0.1470331622638242
Ni 6.743283897114338 5.709072916617213 4.36849161709591 0.03993180319793123 -0.5970975715580685 0.9628058859027354
Ni 1.523562195221925 7.811251822027576 4.589249677853297 -0.18620546158791157 -0.02633863789452883 1.1193742413505046
Ni 1.1869517027732521 0.9021891476236227 3.7010898093690123 -0.44194975060690983 -2.6272087460302105 0.6517211724402195
Ni 3.9388111726782484 2.4533304252679984 6.596058069253748 0.6865246532726499 1.210106929250387 0.6199873316720484
Ni 8.032059674508494 0.197337509318729 4.8456078988663975 0.6996856161346401 2.2959305883389556 -0.12533150892067446
Ni 5.944191279268522 1.8645801772720465 1.4334825128716588 -0.9976787865205204 0.308975637539313 -0.6652521170471187
Ni 3.5737917357482742 1.9903596033250883 2.388228668820165 -0.0672294625716197 0.336772090926291 0.653193900331004
Ni 4.665466053475996 4.257072492936792 0.9285759948881919 -1.4035464466928924 -0.12417914048378616 0.07614913365875273
Ni 6.219714703496288 1.0728641110604533 6.224920704812141 -0.4355279062409661 1.2168540181662335 -0.6310513027956939
Ni 5.609581676450633 5.72363238540526 9.734253366173714 1.3474794284959954 2.399479197056584 1.930545204551346
Ni 6.508054886188516 3.780971409084965 9.032533074037547 0.3736795054756016 -1.3274065690055203 -1.0007833935877732
P 9.085809296146767 0.1742230847728918 2.0948254054999977 0.31175140051223726 -0.13241978322602355 0.595309369309394
P 3.9806362204442918 0.17870065161486504 11.877243965569368 0.2979777437669126 0.0016694172826229314 -0.29465253604842156
P 3.0564096248134285 3.205222333344331 8.75278657399919 0.28417683332807836 -0.39777202764843106 0.18044953294074084
P 5.184369578185401 5.685172889322331 2.4995795598766666 0.07039757588695618 0.5097060322162771 0.7508454268379069
P 3.084265327922162 8.004480592086043 6.555639176642979 0.18982660328026663 0.4925256637822486 -0.7248477172225645
P 7.078548168889766 2.7650911593988834 4.976999958644129 1.085026359998254 -0.5549222237415992 -0.8339113422211509
P 2.4242944738977887 2.3560705919707705 4.670937610650681 1.1995204119837923 1.1590242516419589 0.17350601174337216
P 7.39176577196841 7.644993568881737 9.469473889401193 0.5779263979462563 -0.676109628586913 -0.04113713635994205
Ni 4.123612232494616 7.270071111382819 8.608587898515493 -0.7465665969568949 0.0708583175734586 -0.08396400171748121
Ni 3.7406677750934803 0.41484988735705747 8.255912198676436 1.166520560019004 1.1083125842197041 -0.8895027063332099
Ni 8.4485582211558 5.766388722815124 13.37654376039738 -0.12720610023556803 -0.19879126867272215 -1.7432837908950944
Ni 0.16325691869966527 2.242213517496541 5.350067213407039 -0.38691683010148203 0.2624978056927479 0.382132007118329
Ni 4.935143560533639 2.4184946601753814 4.334537349923583 -0.8451653178684153 -0.9826170070913915 1.0994427925339
Ni 2.9929712807591122 1.885741659772723 10.668027985826123 -0.10433433784371708 0.8172382524408442 0.476608735441676
Ni 3.938082738204369 6.95438236350671 11.069111383695814 -1.7979744975697551 -0.5381429474007312 0.734098032176239
Ni 8.21350440333129 5.728565454310647 10.556501901668309 0.8836979267259748 0.7383069280512639 -0.474909236252066
Ni 6.877417267893137 6.129628566663342 7.579765488987167 1.0624746999499832 -0.30476597033333963 0.507124644642346
Ni 7.919548820707511 0.7625796093253672 9.302535149367097 0.32154653222578816 -0.3757466724172755 -2.5869604400331254
Ni 0.4078532281319971 9.18786388800624 12.830438279467824 -1.5356798090267487 -0.190751171977065 0.09385246447578675
Ni 3.007088156449106 4.578856116600677 2.6813894280053567 0.7268040696179869 0.3097968478890278 -0.10792514051876896
Ni 7.033136272891581 8.970808856169233 2.051423619822139 0.06756730552701266 0.23840245530644102 0.3551683340452915
Ni 6.129997394245053 4.02397346129535 6.378997505003015 -0.21674939581303962 -0.3854302182536265 0.7010781256067926
Ni 5.659170544811696 7.705665706073219 3.652115038931498 -1.2917782782789495 -1.1599177099905056 -0.7402712508664864
Ni 4.308016802660643 4.917200098683392 8.1248852782046 -0.2004853685456934 -1.0397834290000545 1.1913535599022838
Ni 5.585156069851813 8.364530077352459 10.531616182661303 0.870357500863327 1.1249766751389465 -0.5232452043532924
Ni 0.31473717271529383 8.0883612048567 10.416447004065137 -1.3461421977418107 -0.5318393737802066 -0.1869865627283102
Ni 8.298445395399366 7.535995797796552 3.6565142299123576 1.2840017196573241 -0.3055038769406287 -0.19713573534717016
Ni 3.0490791766269196 8.757322231185283 3.0716366715243724 1.433557391232686 -0.1770461636861467 -0.8272974364490591
Ni 1.5316118571927708 8.447875890129634 7.966732933235816 -0.0061320810396668585 -0.2787268659571006 0.4604467809698328
Ni 1.3329336596145216 1.9063775629694613 8.777847486107508 -0.8520533032375003 -1.47923303889293 1.1045464323090526
Ni 4.448706083704359 3.7029367134844304 10.379320819690093 0.2173844582938772 0.5054685970961618 -1.167374423378867
Ni 5.888811817874594 1.678580427815118 10.651321018443564 -0.9324036194617943 0.42036174002348903 -0.8208437104039153
P 0.1306202880630007 0.8003383330030452 7.230058851180886 -0.7960027401008356 -0.22765832941605954 -0.5524696484360485
P 0.12189474954866934 6.183919986691222 5.075016810552818 -0.9261882346797016 0.36810766781477894 0.5286692035823412
P 4.2428634103513705 4.8213602515757525 6.135634923831508 -2.0521866662149435 0.3520732400597356 -3.5126421673900534
P 2.449596046003173 6.949310984258182 1.9943927329310995 0.37407751224496866 -0.5146775172889394 0.05549083397845282
P 4.746349942145249 5.111645999761507 12.006206373652578 0.7659642847572163 0.8447881370346548 0.6001774960349728
P 0.5896879921224526 0.9752999950083137 10.761389311584665 0.44711638240951385 0.08117923988349246 -0.822534467842777
P 8.422887821468704 3.8330498636225783 2.1857838195636905 0.880553210449406 2.1337022063919315 -1.3159340495895466
P 6.424810500996311 2.297814275439496 12.663608343570333 1.6909214752432942 0.298088558313164 0.7194358021783739
Ni 3.4791229162125674 6.317776736783737 4.329085156196938 0.17738349242090742 -0.09728540141673568 0.09379487176497395
Ni 4.343571781537597 2.8335824413226423 12.568883277828414 0.3935425629481158 -1.697341005616393 1.1642423055077884
Ni 4.999882021813487 6.879768543726546 6.2937872688002905 -0.2711410831900427 0.22831241806029065 -0.32010491468325514
Ni 1.504410823041574 4.600838240470661 5.127554455429662 1.3601577952946122 -0.8250662331256953 -0.9345767158537129
Ni 0.11937657923453654 6.490563238125865 8.439342141957793 -0.20698588866837256 -0.8824514559133835 0.3263238990097735
Ni 0.8581852509186206 2.2206739867246106 12.421946057550514 0.8554325041223784 2.0901798576292645 0.5014715601216266
Ni 7.906446220867222 2.0068277548484907 2.945413730304323 0.541007670543036 -1.709833738766765 1.3701146493970082
Ni 6.130974787336588 0.14618942235598223 13.190887020591445 -0.5621130850630836 0.8267382215114795 -0.7906013665796061
Ni 8.62736583276936 3.144559416842391 10.150397838342577 0.5544262579417871 -0.5776402341644051 0.8918645216971672
Ni 2.7123672565932755 4.327398692079564 12.041982649078559 -1.784859814564668 -0.4398874687612424 0.4273196593985608
Ni 5.258918853138765 7.706772188818353 1.1534769114571488 -1.1570535010688332 -1.2805068191301883 1.3875804102819393
Ni 1.246784757216342 2.908389895583204 2.8082061816319617 -0.8687528753803683 2.479702757895026 -0.22432463705713623
Ni 6.018611464568288 7.083527341242867 12.609761360778416 0.5958693555779222 -1.9801595251443638 -0.7944726766095543
Ni 6.8670624335365975 4.324872223144842 0.6882129040249497 1.180245365804264 -1.5093226591894586 -1.1627922033248232
Ni 4.407083891108256 9.205945660199628 5.25878423107144 -0.7208082570458684 -0.20719851889981092 -0.05152696423469836
Ni 0.9031702289909743 5.71404286828077 3.054889133107824 -0.7256272757010664 0.295115334617453 -0.5917656178221938
Ni 2.104530181243772 1.042942973494137 6.416191000411722 0.05299352147789583 -0.7858335128773176 -0.8463796498914907
Ni 3.9107341730204874 0.38741188148461136 0.6256662006494201 -0.09479425956376576 0.2776691141165476 -0.2687090767097824
Ni 8.206358368935636 1.9120298456591847 0.47061753978073634 0.16932668355470193 0.13859994389480645 0.05934851716164618
Ni 2.512388941789495 8.986576235287384 10.141302550177581 -0.06145810730548125 -1.2798961821293826 1.1276717054726062
Ni 6.2588749719844685 8.572650261022513 7.711831581170475 0.24600366469246665 -0.5405613270342368 0.981508090297929
Ni 3.4223511306976797 6.204694200231102 13.506881895360372 0.0023918972709442675 0.3910095121136169 0.7055086505743204
Ni 1.5614131257950308 1.1125591795421148 1.2454154848192394 0.3221384001735162 -0.6743083137121161 -1.0161513914034113
Ni 1.4016277967082218 6.342285329588443 11.816433518034744 -0.4286689743376037 0.10974702421885615 -0.4988894012167473
P 6.776644351880111 7.833547449342015 5.40233469208028 0.08109310792758938 -0.3680184505350823 2.137998776884756
P 2.071593878196967 6.852549068196264 9.635319055655517 -0.10865713358878706 -0.6095157427167632 -0.1444844277000415
P 5.280882535629663 0.4865776313103317 3.1548358753378176 -1.6400568271829432 1.7938589327394845 -0.6157894915406169
P 0.3605741425014002 4.380233243159685 11.991995446929248 -0.5388818824492848 0.3578600219448418 -0.4358508367980235
P 7.770616243212551 8.077619101539362 0.23249231026952644 0.2685141870901569 -1.5031499547198433 -1.1551588551492815
P 2.5882936581056475 2.9630593638823384 0.6327458460803655 0.5974996920924935 -0.0469480866147643 -0.16598193545218512
P 8.611875074337494 4.322751464550003 8.29629052025322 0.2446373804725593 0.8805768645984899 -0.12863614781387522
P 5.735241233539618 1.5102106367639816 8.357330562957458 0.7090282336918048 0.23901977717546577 0.16149793153890252
