# total energy = -381162.8043728987 ev
CRYSTAL
PRIMVEC
9.36218346123503 0.00000000000000 0.00000000000000
0.00000000000000 9.36218346123503 0.00000000000000
0.00000000000000 0.00000000000000 13.70250183952198
PRIMCOORD
 96 1
Ni 4.865611071704881 3.885690039640386 6.854717449301474 0.7868205593809353 0.36384220767020564 -0.5018109457389164
Ni 6.836200922595918 4.77996581621776 2.8671116153118037 -0.018230664075413763 0.28427762057200073 0.30613302588419533
Ni 8.018448104237606 0.4295388555750127 7.095073724842184 -0.4648989032039155 0.9041389681891461 0.23549967983734924
Ni 8.611214758278608 8.760457326896907 4.852590146767026 0.3763143719952874 0.6320280648866663 0.09722858003687126
Ni 8.786371851075781 6.470223803854438 5.5816458522103245 0.858456892770999 0.700431236051413 -0.014016625994066183
Ni 5.669120478371056 1.8105807711435091 6.043200567010229 0.1982055713725812 -0.47920966339963267 0.37308352376281556
Ni 5.981386749853067 6.014257376439784 12.747218691926701 -0.6017749224290798 -0.1662768409847846 -1.0322475256343255
Ni 7.025625983185218 7.373889850573218 2.7806902348050193 -0.6656352114181504 -1.600866787247043 -1.3724348128897526
Ni 4.424577327117287 8.310885270874655 6.504304024561065 0.6113479108294956 -0.23636125650669615 -1.6496146460747074
Ni 6.735651070832507 8.016219904543036 8.629890442105204 1.2566613799711583 0.6909171259133907 -0.7964051177455768
Ni 1.552175141858416 4.6519566799830185 10.866919612020457 -0.31702010511034434 0.22938971028486946 0.2954477782562073
Ni 3.9226519404562095 4.006630727264198 4.436938218112001 0.5456274287032346 -1.7822244338243503 0.7291838827040732
Ni 5.878018880828876 6.65745811348353 10.367121313471173 -0.05452949850644802 0.02493224446530545 0.8417961442858664
Ni 1.1231998897355595 1.4003579727526927 1.4369950057979213 0.04080829226561359 -0.38593055492881273 -0.9458607734079646
Ni 1.5075362504982723 4.997851914922588 13.218872394165821 2.8220415442758173 -1.6589233250701432 1.889519654068604
Ni 8.772010261447749 4.3283528041727495 4.63709140487781 -0.30276848028733666 -2.0872279740897923 0.42129453625040353
Ni 0.5436882152221786 3.8195930234905084 1.1860875493505671 -0.9235633954623449 0.05392760325639099 1.3035932686360066
Ni 0.7693327554685655 7.907805818563492 12.625690995391757 0.958365847853511 0.8097892523619667 1.5778919236184246
Ni 3.1775438350284095 8.551587010989858 11.3680201903072 1.7674411048675884 2.0084149204456314 1.6499943980116294
Ni 7.974511376646761 8.540005989888245 0.31724039962371514 0.32796323438540936 -0.4215593598760159 -0.32103616824827297
Ni 4.961030446860623 3.5520779895717287 1.820720015972166 -2.549729066485493 0.7552471554500283 0.5546396595041738
Ni 1.4671009795703236 8.954460495262028 10.096427818223372 -1.423548343736116 -0.7436206269546934 -1.275771618438048
Ni 3.351652363263433 6.741661592697694 10.153869495643708 0.2542293950363686 -1.544946064820023 -0.44030732990748045
Ni 7.095130834162086 0.18473179795531575 2.314695036328077 -1.2177369349918188 1.530807568536112 0.0009371671022887086
P 7.5619012214403325 1.667507881511438 12.37800413009958 0.8904820395273437 -0.008559459534236872 0.5541498643519488
Ni 6.271239953819101 9.308603813944945 4.799493458751104 -0.5095029150665354 -1.4010434777653806 0.2728614083152591
P 3.274498608293017 5.631194272645397 0.8979373265796704 0.6447794510150637 -0.06074462617822441 0.4617099639529726
Ni 7.943522548961762 5.622094230195301 9.977573025103553 0.40844441976061274 0.320424502806203 -1.0530737183510575
P 0.8861606358410118 8.624340539672676 1.0139853370590168 1.1116704449483434 0.4774327740048681 -2.067814602560187
P 3.2888414735538682 9.03733454440632 4.481458209740544 -0.3652059207869517 -0.8023348529664504 0.6117423180544368
P 3.1864285472559217 3.3498922727483937 11.668941367714082 0.1857699167123897 -1.3280202913301193 0.6649528406391452
Ni 3.081356760818234 9.13284754139797 0.39380340080956217 -0.25185678103913395 0.08655875902785093 -0.31021799458684635
Ni 5.764165366183173 8.48678197617549 12.67127921216799 -0.2351734068461821 -0.06432848687474083 -0.018044516206536666
Ni 9.135244260397172 8.259833283754928 2.6413079179443764 -0.3642877798480565 0.7783150930130853 0.3290150726886914
Ni 4.224217236094126 5.7230560180367 3.0756636169767697 2.153988210334477 0.40406248864283306 -1.3798352191188816
Ni 4.166649169195316 1.5947449906450295 10.150402679060095 -1.2890806768421283 -0.6349303261351258 1.7264194110395878
Ni 6.208990795124974 6.90916978150132 4.811222402353451 -0.5110306645649715 -0.7911065883507987 0.4769352655431592
Ni 3.382706726233567 2.4019524598295052 7.998328771701335 -0.9513734756960776 -0.7194193471181416 -1.2159615882589512
Ni 7.848730440106591 3.8865419983471337 13.391962316826186 -1.042573847260998 0.08840969619366065 0.06434879858971498
Ni 4.981758321330288 7.331432347989692 0.8507528575012334 -0.4704548000251381 -0.7704495742220796 0.5000996194747646
Ni 7.885083798989023 7.513976203639876 11.701443124267326 -0.6650096620190096 0.00678616968389799 -0.5612965026990591
Ni 7.761025504229531 1.6570222358899278 4.208901639958207 -0.44156254247082016 1.133551561292151 -0.9410283850163278
Ni 1.6610198882831286 1.961864295784566 9.78656013817728 -0.013170475943686994 -0.27467506448523016 0.5202136166158202
Ni 1.7571133406573973 6.9652305368420375 6.818598145008807 0.29370405609222316 0.5803941427604584 -1.4329133298907837
Ni 3.546376419765033 1.608198448464771 5.3491275967716945 -0.8173202706316892 -0.10478633777947113 -0.03351612947957454
Ni 2.3581468028089283 7.726731825737037 2.3462381052816417 0.2713290308311327 -0.6370293747559996 -2.207539404088056
Ni -0.07090543364202676 6.402844168552644 0.9983008708896275 1.058084027081455 0.06861554428586893 -0.892039870932767
Ni 6.3749167749017825 3.0116084930680103 11.313127835478594 0.32126499642962736 -0.901269359950835 -1.0589386617722665
Ni 4.440923699666534 7.940227060337858 3.1651548574829236 2.31658991646052 1.3175001085250857 0.44205979382221283
Ni 5.4867638663926845 1.7462532076922619 3.5920694929974815 -0.895515231075877 0.9537553456646929 -1.0800633595660238
Ni 5.2783991083995305 0.6816137763161189 8.06844403704831 -0.2896779656519656 -1.7426448717595149 0.1436750444248687
Ni 9.053446862365801 0.2902099031608363 11.555553153592836 -0.9331867774847219 1.396645605808001 -0.7197674744861797
Ni 1.771165978226939 5.374530009508162 5.109005375820751 -0.6399563185948076 -1.5135040442606578 0.2237093720706405
Ni 2.7498137533231075 3.0745598155314346 0.2858031233447248 0.41990279810919945 -0.05546383739525933 -0.2617789252488524
Ni 6.9573007673407705 5.159939399427238 6.33011779020224 -0.613456472532066 -0.06524945602711343 0.16869753461113526
Ni 1.9154465895422021 3.046098777415906 3.4655957548716048 -0.97326024846684 -0.1910347646557549 0.5142388870896241
P 7.281400838881344 6.207520932301245 0.5834194499441117 -0.33949566050504115 0.2752247663411131 1.364693735491753
Ni 6.447351989342519 0.3573367595056831 10.805656291258426 0.4594756753058151 0.5771131580163417 -0.7922561285742097
P 6.35228837716322 3.5409369910988744 4.813811982334619 -0.20256693366507048 0.5272957202735821 -0.16205123293921123
Ni 8.691504844751886 3.7485153256704145 11.034776074053655 0.4764336433163924 -0.8070713392101714 1.217007255914646
P 1.9163266347997219 2.9838683430889614 5.724220673675373 0.8596295729228615 1.7854681375726285 0.9840519397657053
P 7.280520793623824 7.884503343606404 6.403987291169061 -0.5366416802648565 -0.8532568366272982 -0.10093251125101972
P 8.38286173831945 -0.024731144173019155 9.211328854001538 0.7823537818588333 1.0496394958585278 1.4235334313377805
Ni 8.928059137536438 7.453187545585889 8.005645318177415 0.29878069928418216 0.08720024926659176 -0.13011196102845335
Ni 2.0561602089094335 1.3028133819218757 12.07534345898156 1.2553058943845283 -0.4315799773368115 -0.3049361773626168
Ni 3.2773540742881604 1.5043437458938662 2.412887490263366 2.091315513895605 -0.6568916608975653 -0.7014342233946307
Ni 0.9523962123080302 9.042465021013989 6.924627682827816 -0.2999806331295543 1.1806569994203862 -0.8346667323299367
Ni 2.8728515700712216 6.641589212297405 12.612166384976728 1.6057323428694603 0.520463270732781 0.3167838207298222
Ni 1.5107287551026787 6.246973173952176 8.85703667659953 -1.0354503488423392 -0.2945196100149831 1.740803704785718
Ni 4.062214011241792 6.022374389612864 5.545785880403119 0.15874762248727498 0.9495672757252742 0.016183808848714065
Ni 1.5399855788234103 0.7813172866829363 3.8619681388584373 -0.025758597021342738 -1.7804683703651916 -0.7632489427085822
Ni 1.3092826507830038 3.826708283019391 8.57905472142642 -0.9264057500071465 1.1615403331955931 -0.18047190153824405
Ni 2.947608606042435 5.087560358088044 7.345103008468736 -0.6129211688538864 -0.9026171322279809 0.013506519126867062
Ni 3.277878356569236 4.194782530885172 9.54491656239286 1.8185415230878292 -0.32863043565576305 -0.23816051449896405
Ni 5.1245784320054115 3.72394895592859 13.111403888728935 -0.510829604297759 -0.4530594873668262 1.6122647446713396
Ni 9.16516579915284 5.527676608683755 12.283991891137509 -3.5865199885161267 1.6875062789141582 -0.24814899317024364
Ni 4.43628005660558 1.2597566995885492 12.73469396271915 0.6761299403018872 0.26603230120856763 -0.11942285674572335
Ni 6.885651976321647 2.6440117165653514 1.5281302457425903 2.0671376310978204 -1.2016467142981757 -0.07885959061138031
Ni 0.36885786263231746 2.4488569996185823 12.88325683680877 -1.0390360093110687 0.36782587490830204 0.15659149537622064
Ni 5.133715923189871 6.1969697513946 7.777334428044415 -0.30986061124742764 -0.07206185096325654 -0.5357952731041611
Ni 8.269832095829724 2.4891799243434436 9.387241475014477 -0.5071408425922622 -2.0120789995607797 -1.92099612741033
Ni 0.5383751760344937 2.054989935960604 7.578743789719883 -0.0021579268832672516 -0.8398233368302117 0.03160271450694557
Ni 9.066684989962958 5.051665746201553 7.515575264597157 -0.17971522587787758 -0.26573405324185845 -0.018292884771916883
Ni -0.1504914839092895 5.95928263439558 3.1986302811295952 0.07324044465238999 0.05154779017030477 0.4087871478120121
Ni 1.3376219805118534 7.643970122795832 4.196706459613047 0.2973383104107008 -0.4604580938237425 3.5084258153158605
Ni 0.28290084643162816 1.7682917878646145 5.352005532007455 -0.8325136905426759 -0.007154608766910259 0.8512140951656565
Ni 7.654783444843014 2.8449148142367693 6.532091921676426 1.0896245208918975 0.2604697195191256 0.7680083117704387
Ni 4.867024761427066 4.709356227577197 11.1172784445094 -0.568560126240008 0.8422314320510721 -0.8778031585080948
P 9.244959689895815 2.4997217430664977 2.775565375507506 -1.311470357391238 0.08498627233440849 0.9872038551311255
Ni 2.161662655792289 5.097783862569017 2.7789498048755203 -1.3287527986207697 1.6176586619934012 -1.5665358751756568
P 5.241961489864782 1.1270290228241289 1.1510851535602633 -0.4125630699146765 0.19099696943928393 0.4552788636156481
Ni 2.9806571141173737 8.973681058173598 8.059934748382783 -0.10619941607691387 0.5851224014740632 1.5794255866541314
P 6.355265551545041 4.696455138589303 8.651224986071542 1.2106872272338893 -0.17351243950127537 0.16522628823308322
P 4.740981683746359 7.863803555687512 9.018438849265344 -2.706518279694816 2.3039205485229677 -0.1520892366304929
P 0.7308176683950556 6.818000837695725 10.899395154459649 0.29613734812406417 -0.2148262106483978 -2.4505197085731663
Ni 5.566014750487402 2.7132169776673187 8.877549220846609 1.7962454306937903 1.9560693169643795 0.20840462339277013
