# total energy = -340895.37340150814 ev
CRYSTAL
PRIMVEC
9.02130406050368 0.00000000000000 0.00000000000000
0.00000000000000 9.02130406050368 0.00000000000000
0.00000000000000 0.00000000000000 13.20359037994306
PRIMCOORD
 96 1
Ni 6.226864898848315 2.0058238036112526 11.36681241482415 0.7151356321411232 -0.6603009436894306 1.08360736816354
Ni 4.49196889809145 0.2363689913475088 6.137398822447558 -0.47607317465318005 -0.40256893481644224 -1.2006642957802485
Ni 2.7039644804657863 1.6850352533415678 4.741079579261532 0.5974292438658744 -0.7141588700501507 0.08114864375587316
Ni 3.256925311444732 4.318994414476305 4.716097784120871 0.2862026055088555 0.48175942640468006 0.07144144377043825
Ni 5.035646807215802 4.562100515679024 2.707119230487702 0.6357985876726922 0.1430561798939472 -0.5867208563094346
Ni 7.230115099555348 5.918083704252552 2.6438338805341917 -0.12854795897544313 1.196496280445488 -0.2950001491958274
Ni 5.198228748579739 4.564346820384363 11.408364541220902 -1.081949520845143 -0.4708108978129762 0.5275841980482785
Ni 5.597935666569529 7.859901355717697 12.34938398241641 0.9633807845695987 -0.17505330162583402 0.5348426793829046
Ni 1.8964134282443768 6.6196524766413365 0.36944856211758975 0.6748929825709925 -0.601329607361545 -0.5759006257654792
Ni 2.796288505985625 1.6636728053807528 0.3710985586260496 -0.5639825341716544 -0.526419488316216 0.5156655922338216
Ni 0.7420347337794242 0.20779401080870774 4.649393359937146 -0.5699482648367862 -0.8486982707223384 0.09868356731584295
Ni 8.605809837450826 2.396771035380623 1.4045584001634797 0.05981748637826472 0.08126382917749875 0.5375621351965968
Ni 6.701520810781707 0.7481223097439333 4.760897579971126 -0.505177291107988 -0.12051814669243116 -0.3216406346014912
Ni 0.8098072803611899 7.586943759454869 2.351942371357447 -0.5704871680593917 -1.0601478515890195 1.5922322515004965
Ni 7.759945306982127 3.8054115756210747 3.697454532334641 -0.670714939933903 0.08664977607976046 0.34404394199735583
Ni 7.4743308211546795 3.7287304913022714 12.640616034268012 1.2595055342881727 -0.1569967012344393 -0.41189663997527126
Ni 7.661640156885421 9.081295709355668 6.828923274920985 0.498193146480671 0.8019602432358511 0.39223155744617616
Ni 6.8537192311984745 0.7545382611754078 0.3700556958793139 -0.19755688204498878 -0.0017650623202227667 -0.7964601393532282
Ni 1.7474175707609234 6.598470454761272 9.204777514760247 1.4908459405415098 0.011944316846069752 -0.011282772002670893
Ni 0.11299634372178455 4.9262003466327755 1.3507932323607497 0.2606666660212801 -0.1869348835547684 -0.33447301047946915
Ni 5.9467353658756705 1.902656170638331 7.002537368992389 1.3209366450104605 0.9852063650851226 0.07244854487871394
Ni 3.4774420673375346 4.296531367422915 0.47217324906226965 -0.33952779929455723 0.4654771443048887 -0.18353408540333552
Ni 5.965986828691709 5.536590799114487 4.8051037740157145 0.02765529982342334 0.6231932402038558 0.06284033236498854
Ni 5.382064882256042 2.823550886786969 9.403517744836911 -0.7348994450316118 -0.4090514572169923 -1.4661055003720362
P 0.21865566086986526 5.515616267227284 12.358019174641111 0.31617241239806837 0.28041813761659445 -0.31988791357644264
P 4.141924258828133 6.141018169627405 12.736632479530403 -0.7174905055265449 -0.01616478268532055 -0.8992549006239673
P 2.479568563836856 8.495118436910625 1.3895063543769004 0.3541067255499966 0.7518882662801244 -0.0029361998101884914
P 6.355192948781841 7.774469606482512 5.7113975095796485 -0.2561754630191459 -1.5557855786376882 -0.7681939454186835
P 4.7285977029952395 1.1012486264664632 12.574795697879964 0.6628388796199359 0.3693091443220478 -0.047308041057344326
P 3.967010194844924 5.99586538766393 8.181710215474023 0.3704697402890523 0.6382010264665977 0.6354877413004926
P 4.625655602623255 1.0690425710525657 3.82946327431547 0.02555213743749148 -0.3851990760794269 -0.5833732799934405
P 0.3077058551544932 5.59185530764825 3.503400869705459 0.4082181626824196 -0.19875347345625125 0.38529652088923966
Ni 1.5817683860242335 1.156486071088114 2.530666132035695 -0.5026990047708245 -0.12737450749263224 -0.15471818961290773
Ni 1.6659010674780168 6.5554568771104424 5.139260092608176 0.18831942260712084 -0.43602721447488774 -1.2762896957250471
Ni 6.02082733593571 5.426016675526772 9.070021785699996 -0.2432613260606391 0.8856427091571715 0.8749055252453255
Ni 8.494062944338236 2.320117014973933 10.33565210368588 1.2282478618254717 0.5857785470008234 -0.04331486073755121
Ni 2.3167159833517927 5.173943398110772 7.002788161244632 0.4091535300124953 -0.3072049187921354 -0.16659771465931308
Ni 0.5820608514127296 -0.0909771448270393 9.211735646564374 0.055595992097749417 0.5852082763196502 0.17821113052852536
Ni 1.3087025341129568 0.8950243225602815 11.429344485890526 0.5772072603920447 1.3860405765986452 0.3738553689318336
Ni 4.2031067428105 6.98490703451189 1.6770008799657645 -0.20857920129742144 -0.6010807245755326 -1.0386439160789727
Ni 5.857289136343796 7.809553457884374 7.844557019680303 -0.8573171227396009 -0.44372252623661645 0.8336688871930417
Ni 5.221323286915755 2.929488060099405 4.812444409111033 0.04509534967674169 0.20791302846833223 0.15206378270919618
Ni 0.2871616394698802 7.634422882604265 7.0545722506807245 2.011321552569465 -0.7016913337107592 -1.1292989566633842
Ni 5.107699962563364 4.415973432879498 7.075711872431813 -0.8882341240334315 -0.6526341711727921 -0.560488404975467
Ni 8.260420191070862 7.014018782640923 8.99447016864669 -1.3568981507067341 0.01526361102728984 1.183829997831729
Ni 4.718593076817645 0.1907094652224784 10.450879415896138 -0.2705345599542954 0.508030444286067 -1.0081244073338769
Ni 8.297569921097312 7.12877879130204 4.582860340530133 -0.9919315996240983 0.8078976917662086 0.7651510448273016
Ni 7.187363139721605 5.724784222640904 6.972842844622533 0.9314163158478604 1.0375313997410842 -0.4972076426389501
Ni 2.4165727977429494 5.324743516401727 2.495782553583466 -0.7953507083391333 -0.1432189307240566 0.5744551515682043
Ni 2.4482917027388216 5.224706275929821 11.333103410157603 -0.6500468700615902 0.37750710675180793 0.9593050718383286
Ni 1.1159262881354859 3.3404174803118525 3.73083245514301 0.20798296247431922 0.2922454692688257 -0.2532631744683574
Ni 3.671679764569082 2.711803993674379 2.512868001300099 -0.39060816291014017 -0.6244633651655309 0.49496769756483794
Ni 1.1905324725256625 3.3341476740057856 8.163991472213958 -0.7364536768926091 0.3056203479138349 0.013383877506073725
Ni 3.4741673339719195 2.427434447804107 7.037526496701857 0.5417805441533186 0.5194201741802474 0.6850138730550783
Ni 4.068481822658794 6.783849231427989 6.061240071632526 0.28527726548110866 -0.05659897944096704 -0.34657570728027404
Ni 0.9381795346845001 7.4734016268388155 11.403241342658003 -0.39739664658688334 -0.7442960557551633 -0.06284058947530469
P 0.3807910476839464 5.583005408387456 7.805223231946371 -1.2417914048378613 -0.796751445341402 -0.21166658197349353
P 8.620676946504636 1.6544891178705714 8.15146088090586 -0.7811116819216161 -0.27446269136410795 0.35024184327795166
P 1.7329564203888008 3.378063382060366 10.411664709375504 -0.1534056414490713 -0.3085033258885848 0.4859462107925179
P 4.035887851171284 6.214226051891768 3.758045218772148 0.1284001205436692 -0.2510707948027289 0.8642339044640923
P 6.989580070003318 3.872133140282471 10.408218571233176 0.10793388226951733 1.3189838921594639 -0.3461638165538361
P 6.490449360216173 7.705005565393714 10.057874424675813 -0.6870638136055716 -0.23976771108508385 0.8063881971002176
P 2.33054564244129 8.395893113802092 6.0038970546485215 -0.31558311555350166 0.46556970401869496 -0.36666682160319436
P 6.98957104869928 3.969897012136926 1.5677546923323715 -0.7451257507453104 0.25324749073907354 0.773883282493977
Ni 5.340675139331963 2.9007101002197597 0.5870234707637617 -0.2403197269338119 -0.2801587133076207 -0.6962390523469363
Ni 1.27700167172516 1.0274633807436995 7.128393581619638 1.4848843236414364 0.043231042774493286 -1.276342917560486
Ni 6.884265366669471 0.8053796243395819 9.157944316979934 -0.7678689579790969 -0.5116199614095382 -0.40890618988837957
Ni 2.5657581026111904 1.7153468349075887 9.41532212116999 1.0166131615311782 -1.5724771803607565 -0.6573819702704228
Ni 6.302120617129193 2.0380208377211124 2.650937255333324 0.007155637208174773 -0.03220975196332517 -0.12936659822199656
Ni 4.298137159541591 6.752644540762255 10.546380744697988 -0.21324035421851661 0.009130758656674598 -1.0162382946902626
Ni 8.145118904167495 7.28501875592761 0.002427632916492932 -0.8060904633541408 -1.062966294874421 0.263439600780727
Ni 7.63426049913159 3.6250757079113245 8.25200602079508 0.12901975640553912 -0.23496334771790503 -0.36215325000355697
Ni 3.2672095980474887 8.57515544633138 12.412721655933337 -0.9071471588878506 -1.242335964487422 0.24451833839619178
Ni 9.199384579206626 4.916863296953957 9.998603555018994 -0.5585086555412768 -0.6797958191892487 0.6950578875546417
Ni 8.507270133449145 2.1036508245939705 5.66896129538722 0.31840952925870325 0.7812919162532221 0.8008035039235886
Ni 3.5176229555205873 2.7861034537272804 11.651442676381105 0.2137808001030189 0.1943309189085234 -0.9755994381229777
Ni 0.9940304279807013 3.2044213219464455 12.684584065886012 0.7103654644459895 1.3758451241228822 -1.2536747865390088
Ni 3.1208389400389502 8.336487826715114 8.099531548474763 -0.03860408552544319 -0.5666675372029855 0.33331549983625824
Ni 5.620146117109869 8.053697009051406 3.3379862388737442 0.37384328474697553 -0.4528075192570202 1.2394007931184978
Ni 3.105583914911527 8.24765504585779 3.769308316862974 0.04064477010455581 0.4490614219510266 -0.06801082082233448
Ni 3.496359741904185 4.1284193666839855 9.31327132563691 -0.1762583776775287 0.8702970799390366 -0.5599158203014486
Ni 7.194508012519311 5.9477637945359465 11.367234611853105 0.768402976105696 0.3891565180652782 -0.9370724856923731
Ni 0.4803366270858091 -0.0821903946945082 0.3742451894743319 1.3566973475498378 1.6114134524146377 0.16512858631295432
Ni 4.600576377398988 0.36387700474402584 1.4483938186121261 -0.054202197074016335 0.18069378774106298 0.5702688814009985
Ni 6.20166839667156 5.632514324945291 0.3605409265109561 -0.9412682689412756 0.5112898317636291 0.35748284111108114
Ni 8.016727705105705 8.995052042757107 11.147950166091825 -0.5367846336006239 -0.7503887989164625 0.6988849746102157
Ni 0.011449839084402934 4.573313996597644 5.708400632378389 0.525655870677314 0.6389507601484286 0.5409860732764811
Ni 7.894092098019845 9.04124111942914 2.387750633473521 0.2526818480435906 -0.9344713006241002 0.5708748904161136
P 8.392167315234603 1.7017517297230667 3.5402519945682682 0.6902532670771467 -0.36780479186237947 0.39612780717678875
P 1.767246397035362 3.2523424889936785 1.5071234100266957 0.35547352399053617 0.22610692576853963 0.9731923713433821
P 4.551401249090541 0.8909981145683424 8.287577022614967 0.9684255460823579 1.1706633785427838 0.6187447175141989
P 8.575723788485742 1.6514218744978193 12.5146001445593 -1.340572674073833 -0.9700918780411872 -0.28059065863871674
P 6.4386219685207 7.712890185122494 1.3160693309899845 -0.17812602701388677 -0.18288848139953665 0.0354997355685066
P 1.7938141374258179 3.20386200109612 5.995024602127635 -0.7312610769480761 -0.07199011718505667 -0.5320743726091481
P 6.937933104388595 3.6912650156345075 5.969158719191296 -0.30747796994786397 0.8463369695790134 -0.10380263370996315
P 2.5338948567507185 8.537148692421365 10.277727212591454 -0.034202871133954 -0.6533597364849071 -0.2844856228177488
