# total energy = -340856.95355951105 ev
CRYSTAL
PRIMVEC
9.38655508882807 0.00000000000000 0.00000000000000

0.00000000000000 9.38655508882807 0.00000000000000

0.00000000000000 0.00000000000000 13.73817218002770

PRIMCOORD
 96 1
Ni 4.175561990898086 0.1879554356001398 8.76272816645752 -1.870798423510017 -0.7547370485828292 0.3261644906137738
Ni 2.2510648102894204 8.768572235505241 4.141756313616742 -3.8302608253163455 -0.1646156512322778 0.24956438546053147
Ni 3.8927920261332694 9.128462134892722 2.4601080800087516 -0.798106930928032 0.043683814041195736 -0.6489862900075598
Ni 4.182545587704228 3.5201176390442233 5.914502939325496 -0.8199944750297427 0.5913436997934267 -1.22098243851231
Ni 2.3838282420448915 6.787812045143867 1.205530257483453 2.3607941217815602 1.1319397367203408 1.5743106340250692
Ni 4.043718441517617 5.605256319303845 13.342924825043085 0.2944422198098284 -0.24793096362216657 -0.871113662303061
Ni 7.32700391521807 8.286610190332983 5.903044771823806 -0.7494606306752383 -0.429237445246564 1.8078403346202414
Ni 5.61442698338933 3.1161860243147843 11.249268784915325 -0.7273524859222893 -2.2099351580137423 -1.7742157045872609
Ni 7.526092743522195 3.401171216023484 9.574612596012837 0.3461759007386941 -0.24953353222259608 -1.7230620645315808
Ni 2.005906770796392 5.1081162149440456 8.604780608047642 2.0041188641734387 -2.6456073031420564 -1.5629407016252308
Ni 2.6545364838313583 6.981991705263029 5.916618668788002 0.05204401308043295 0.12183815105543533 -0.6638740057526696
Ni 0.8855820262807779 3.073946527503442 3.480895919616181 -0.12708371572509083 0.4135771130014877 -0.464318090999781
Ni 4.155671881177367 5.546580964955468 7.159194842285972 -0.3012463872158554 -1.3611872650003911 0.29636797607763155
Ni 1.4864172793459685 0.724328523253799 2.239802821784032 0.6000695097021989 -0.030296079880380085 2.3689866848946814
Ni 5.18662535968406 7.367497512827877 9.23448327188919 0.14780243632968096 -0.880830632480509 -1.7077490883235944
Ni 0.2593073322693432 5.096082651630236 11.826752166832236 0.015733351574856776 -0.8536101062016589 -0.507426492153481
Ni 5.837301341675664 6.208661611086135 2.755204468598602 1.0576633946042688 0.6968118941312709 0.8837123249036781
Ni 0.7183633676485529 2.625569575573625 1.0642147356069123 0.7555852555157374 0.17997233619400618 0.43613648635924246
Ni 2.061756772135833 3.8941061438118445 13.37422053755835 0.3473190132042018 1.8154932231798089 0.0921928173851767
Ni 5.958725815176002 8.94676659272002 3.6547245901716385 -0.6169757985392342 0.3227914603764828 1.0085926052195469
Ni 6.343574563901562 5.730839036601389 0.19939858461407467 0.6768591051584278 -0.04373266500126016 1.9418930254639977
Ni 6.264154923341391 9.092417764280375 8.134330233739702 2.1399235047112954 0.33308667165490374 0.6445364817663223
Ni 6.275803637906475 6.173903198487824 7.110836250369894 2.9615884254649254 0.5678751843578413 0.26970923583952255
Ni 4.921811874341487 7.958719056418806 6.607318920647065 -1.525051125668309 0.8399873732119018 -0.5596386553806619
P 7.00905314288683 0.9048817217016224 6.5762982341888145 0.44695363157940443 1.1048228258988908 -0.2533426215560411
P 3.154164025225604 6.801018927813547 8.522433301030706 1.5806694863635617 2.124173698076206 1.3771810693254862
P 9.19433697680872 7.926936181706983 10.718796085638466 -0.1979302062240075 -1.6377104384379537 -0.38723564689348144
P 9.616337709618566 3.762262594431376 8.060116376497659 -0.46203392295129453 -0.08950730013321358 -1.1994311947040956
P 8.820019942621455 1.6945453599677203 2.4097435813218766 -0.6157213573068429 -0.8180892875872298 1.2848383566260067
P 8.26639155119262 6.891467770318901 8.19192050234777 -0.20456030994601546 -0.03505390628033963 -0.05327685704626954
P 5.4844607449782545 4.2333080763166135 8.860708780572079 0.8793805302975435 -1.4032592544697768 -1.2035979244872756
P 2.1075913194535625 3.5407399000430053 5.257887145426732 -0.27187898979733177 1.4022596095606688 0.7640426422544713
Ni 7.599101367121888 5.532914141098287 9.902968364391938 -0.6684492838281778 2.9508412142507505 -0.43614137145524895
Ni 1.315000014730696 7.361443184951584 7.826567628039357 -2.3917612595870357 1.1076196719177376 -0.30406894426631503
Ni 7.013446050555209 8.27115992105488 10.379931130452704 -0.63159149156988 -0.47518280162842674 1.2288477001929998
Ni 8.708704788691298 1.682962351286566 7.937077415563643 -1.015231193581987 1.6820964207524967 -0.6895917222337479
Ni 0.3100782687810915 7.465971859727386 2.7472775230303403 1.5556853056143982 0.39453012367236573 0.5623316288317928
Ni 5.5119539641250155 9.252899692498934 12.684522769756942 -1.9590471686457809 -0.5851411705271407 -2.7973396706537628
Ni 2.5534432881295466 3.195455479997402 7.462025752069722 -0.9824488569446436 -1.111351628156344 0.2906218176224737
Ni 5.38201588537848 1.724075461516272 5.262750319492945 1.8291987456913592 -0.6319907838908276 -1.4942940469911103
Ni 3.947722145097708 2.616042222403955 12.722055847968015 -0.7047933696748506 -0.2519915068447854 -0.0213866932058922
Ni 7.542002953987801 6.604013914685448 4.415173515132043 -0.3979530333109856 -0.8421368154547366 0.0557757122087233
Ni 0.8612295483858122 3.1655780759195133 10.04500758964718 -1.175072306243757 -1.0036491451713423 0.013130880955003192
Ni 8.407462083987655 -0.03313172264333189 4.267639400669388 1.2275811747757504 0.8719017054219951 -1.5740442677375601
Ni 4.868552562139809 7.681552864897627 0.8171118019495927 0.41664366774195344 -0.031866252580977375 -0.21423048604592781
Ni 9.764269814006733 2.373474872048689 5.875472705616332 -0.3886548958385113 -0.02690608036222463 0.2008836324253766
Ni 5.451438845026633 1.1521620612455494 1.0587339262317694 -0.38427065072788663 -0.2117840813879643 1.0567923048532253
Ni 3.6738318612181198 5.963634983360964 3.561195080365511 -0.8478156110070689 2.1415764669336856 1.871260707858416
Ni 0.7638834653789089 6.453247070733498 13.665661801690792 -2.5353535144901107 -0.16490490033792246 -0.5582883120003547
Ni 3.531428437634816 3.5121953867533846 3.474149802647667 -0.6682762485854233 0.9370552593011927 1.6037230257489155
Ni 6.011919421493752 3.8655146977479897 3.777639648581674 -0.45347780585116737 -0.6278621064344347 0.5782182181550622
Ni 0.549554626625252 5.990011202480936 9.70041308138283 -2.7648861781107477 2.1598742368016093 1.819174528686138
Ni 7.160711709549241 3.0308059214267917 1.5615491416520446 -0.49052148886802627 0.08180324662073654 1.2863547932705328
Ni 1.8935778689427634 8.68154948551903 10.019715517612033 -0.8411901352707511 -2.217360503943536 -2.7087322566269996
Ni 0.8429567420652258 5.52047695592606 4.293604488687063 1.696761221853523 0.051985391928355634 -0.3975300868409541
Ni 7.896974298635471 6.78811241489897 12.414966258250196 0.8604083600704149 0.8587613113852952 -0.5847555050529477
P 0.054343459286503096 7.395356807613668 5.3726556128850875 0.2574039361096083 0.5135765709152769 -0.9679133823326297
P 7.092480842366654 -0.17358462012943657 0.17094793687292414 1.5280022378768332 -0.15855298997796563 2.4082325177691817
P 2.3607748633407457 5.968300101119906 12.106901405483779 -0.7315112452856692 -0.02349705468067566 -0.730808819902006
P 1.6014776686600636 -0.30027119627698257 6.386628813673619 0.6439009050648524 0.8616129219014773 -0.29034336715010645
P 2.106155176561977 1.2268884243822367 10.478777184924152 -0.12793295109926353 3.7032827819311835 -0.6050438229883387
P 5.425015693132426 0.5670614900703262 10.464186724070029 0.040854315012200604 0.6576231397469513 0.27314577232489734
P 8.37370803275797 3.168872756670798 11.611914576805875 0.5818483587084817 -0.3372012080439096 0.2267882681062804
P 4.533968814619746 1.6929965784179712 3.176526553493013 1.2413584310655008 -0.9928181159941095 -0.16829284297354888
Ni 7.455149161988834 7.764398597976939 2.445902467903355 -0.298900255581182 1.9031920093493737 -2.337463931696052
Ni 8.608569021583877 3.8646886809214567 13.68113084407859 -0.1923344573037849 1.436439340766171 -0.8367755511428234
Ni 8.492335312913912 -0.08192397339333997 12.222452711616372 -0.7727021177016821 0.881774741561333 1.1722777742177553
Ni 6.342016395796966 3.8973632783437413 6.546294111620492 1.471471649779956 0.0005468736424055098 -0.15134130272087484
Ni 7.514744398712215 1.3866663609872727 10.510717753757403 -0.31506092450144446 -1.1326002531224753 0.5022673165500448
Ni 4.818907073554211 5.391496305773916 10.445448344629035 -0.5767506324706002 0.4941256612795168 0.9671235394414828
Ni 5.210401503111422 2.137590748744462 7.626306419034846 1.2173605254890068 -0.10422892261410438 0.6240676723890092
Ni 8.25238681136095 4.553248798275411 3.3235932175242895 0.2042263236453644 -0.24281112589709794 -0.849977137434762
Ni 0.9186058035433697 9.64534216409569 0.22516280035802383 -0.8353352191518709 -0.5408886284666685 -0.0016084821377004557
Ni 3.3447955676126138 2.513250060274843 1.3908799854580753 -0.5668624268226109 -0.313898271651911 -0.7366117997370282
Ni 4.5179928982702116 4.785331366866618 1.8369722499381418 0.45788184845613406 -1.753859509528412 -2.947014127195176
Ni 3.651670205224436 7.67220385627005 10.817010424968714 0.441216214874995 -1.3438202344768533 2.0688589846643013
Ni 2.6766605936056544 1.60974722348024 4.552610512545818 0.12164634675960341 -0.6894294856242708 -0.5797300268138983
Ni 3.672320625887759 0.90858471758875 6.517196730250386 -1.5816205374229213 -1.3369165653784845 0.6890674742991617
Ni 1.2802416021323852 8.455295967487789 12.084109911659866 -0.35655030199448273 -2.567227480380572 2.2969641718097926
Ni 6.731079707648812 4.763817383157375 11.898644729060624 1.3980406863833148 0.5435317225164703 0.8885393139786762
Ni 3.9969640118248853 2.410223234274557 9.56024271919762 -0.4198346638754254 -0.4789656657096268 0.2404981614932052
Ni 2.9893736683322887 0.4376678315049155 12.205527814571811 2.328810884006744 1.1500325896663097 -0.20091551410457656
Ni 6.881302131419638 2.039538796813067 13.161292172787858 1.3125044550827072 -0.506106744900793 -1.7256784191085053
Ni 1.4799968758306445 0.7559537038441931 8.371629849514852 0.5734647626304769 1.300902609177721 -1.7052170659303598
Ni 8.672744897072576 9.202944447603386 9.052575593576949 0.6338342648574697 -1.9001843328713017 -0.398483709003475
Ni 0.9437148377590008 2.0322172840324346 12.589316821255148 -0.6590575582006327 0.2987321054344339 -2.373826529485486
Ni 8.79925688329997 5.463134492365951 6.15979802251929 -0.6903255150759788 -0.6961264380284721 1.7405044283777444
Ni 2.883427623774596 3.927362707634641 10.734608675933664 -0.200634492529048 1.2551853096462642 1.9234885548148808
P 5.266692672528669 5.564903520016744 5.078796372224066 0.7235300268524055 -0.3298357688177739 0.30962124154311194
P 2.3739254266813434 4.872879763924259 2.163446014070427 -1.5303020896546031 -0.96199136042124 -0.46180200944614663
P 2.971360869580963 8.950849744078452 0.34588422090032367 0.45076632045727527 -0.9505656350828017 1.9735199083406596
P 5.72109579267024 6.882353425562498 11.961414498633248 -0.3303353341620117 0.31761300149933686 0.30945386272731223
P 4.043812307066087 8.091341689851571 4.513758623378745 2.993253103558058 -0.9793895012930294 0.48957712267688586
P 5.475477811989709 3.5407117403784643 13.845466891717312 0.09345934280242614 0.8795378818110143 0.7244877627799845
P 8.506959565365483 6.0898559863881 1.6487183218938684 -0.38391943803605494 -1.2352859996191758 -1.240047682673877
P 7.840026070378935 3.0348609131206805 4.907947932832519 0.02098431556115096 0.4877917486416889 0.16882094756287702
