# total energy = -340861.78636808955 ev
CRYSTAL
PRIMVEC
9.36331162462282 0.00000000000000 0.00000000000000
0.00000000000000 9.36331162462282 0.00000000000000
0.00000000000000 0.00000000000000 13.70415302067891
PRIMCOORD
 96 1
Ni 6.212313930832794 7.432877803369833 5.152213814207285 1.3870191384618307 2.735384311996889 0.04902759485161234
Ni 4.339183405954501 3.0470089247982703 2.2464804104560963 -0.409288770038779 2.0751353045913166 -0.3465538529034032
Ni 2.167522411070237 6.296583737000775 8.680183294397512 2.233773655194237 1.646696186876332 -0.4237373413639412
Ni 8.794434424937702 3.788742395377045 1.077248085849513 -0.6168161330329184 -1.0702651425286793 0.7320059255339006
Ni 4.617704478651476 7.901820548071056 1.5388116045239595 0.34934349983339835 -0.08574089111224588 0.4503665139156953
Ni 2.207569295623621 8.619228134602672 7.378974153688894 -0.5754535109257316 -1.2677554330017908 -2.079378910359019
Ni 0.3435754903962964 3.1736102635979675 12.75166025277993 0.4420739348896 1.3563481917405351 0.7875728641659274
Ni 9.393368027308933 8.047597949429866 8.301413923951928 -1.3796506139119014 -1.5619405424954906 0.10413250624555614
Ni 2.0868949331910716 0.1531182378072218 5.098863536253517 -1.2261660395957787 -0.31348303849136333 -1.4177309657233907
Ni 7.080049488256293 7.650986788356161 2.526264593914411 -1.0253001477822148 0.8959698021147924 -0.12214334100067996
Ni 3.1088348725901795 2.186623567134979 3.9895395531829307 -1.5195931878775313 -0.9563326194735658 -0.6072994517917347
Ni 2.340687499433642 4.07094324961002 9.484918744729828 1.0129663088072105 0.398937508711442 -1.2520375080459016
Ni 5.103566727768869 0.9581945126889282 1.8965996658960755 0.5448512126588423 -0.9686168361575577 -0.8339761340208153
Ni 3.1872900621325697 1.2470433182973784 6.812074313635652 2.2845791678818785 -0.14914763750366572 1.1115231207372018
Ni 0.6305422703336616 5.99790345400606 6.747636938183715 0.009562703987770628 0.16835480655973586 0.1479908981914032
Ni 9.393836192898755 8.73551110380269 10.954703078359236 1.893008126837837 -1.4991691156952247 -1.9714123750793533
Ni 2.8732445844798935 -0.05389990435622041 0.19764359439284412 0.601077639251739 -0.16759787378905328 0.5477048800575535
Ni 4.9514503643238665 5.346123319855708 0.5942107479011061 0.08465717112976387 0.11662703916814106 -0.2563338429738811
Ni 6.544411873629011 5.154156701405047 10.684416102056053 -0.23553901771571695 -1.2738769725184966 -0.7178129218629702
Ni 5.327818045293664 5.150177293891559 5.2235575684402775 -1.097323175087736 1.6943389855652753 -0.2937760469807392
Ni 7.467849772929545 9.01014640210414 7.184142361828522 0.09119240114512037 0.5876834773330201 -0.03820222210133421
Ni 8.999041514313559 8.94940659848062 3.75356724195135 -0.3569981881651787 -1.7394459052062428 0.993205324130199
Ni 6.88635065712329 1.963327307413422 0.5162312145979748 1.0687332792651851 0.6724555767740935 0.22998337800481036
Ni 0.2263346543995028 1.95672617259693 3.5681090615303956 1.770325882614551 0.7954419825013591 -0.9950991987188023
P 8.316128368440037 3.8294634383797725 3.472741858221271 0.21770070398271538 -0.15098340516082384 -0.46817217463854854
P 4.611702595789956 0.8368010479104124 13.015738417030892 -0.8627866304946044 2.048821863507768 1.4536644463952062
P 1.3616596179976292 4.671440525051258 11.328195286276344 -1.6765839755746996 0.35187372245441983 0.4062283859459004
P 7.652194655577903 8.58480860043895 12.221994558416421 0.555657816356043 -0.9684970227502417 -0.8733777757468892
P 3.3489476402981473 7.191772524611443 13.71580140479078 -0.3442612002144845 -1.0225338978909873 -0.6136230800169173
P 8.342223918416721 2.0342824842068623 9.763468843693373 1.0741475083022212 0.4084755301088642 0.09277003004488538
P 0.9908256542995298 7.252137795763106 2.233694808198054 0.2776169207223735 -0.28077680650759385 -0.40845573261452234
P 5.267181238099902 9.305399712981357 6.236773710238641 -0.25680075530797064 -0.8556644176275263 1.8016588883998779
Ni 1.351668964310825 1.9696849961232064 9.245301296215892 -1.2294773633571985 -0.7758537759567864 -0.5780842636803593
Ni 2.501287023366221 2.7640590056215792 11.413463221481827 -1.1615639873446768 -0.8472875064177409 1.2118838186451517
Ni 5.71613331211572 6.879290720028772 12.266888829486822 -0.7598239761874334 0.17455759293633807 2.4954062846732117
Ni 3.6341541176177814 1.8045349026575561 9.662140956094632 1.409213672280999 -1.0047187240864375 -0.09549822760932586
Ni 4.281196415999133 3.0019152151866044 13.270129298897254 -0.2904359268639127 0.43866465209773486 1.0989478551753524
Ni 1.4537196995802506 3.9483868615063864 3.0643441602582038 0.5192350547526348 -0.008446588105456421 -2.2910534627523127
Ni 7.880930999453193 1.3664255437020185 4.76620847640541 -0.8655973604705223 -0.28986334218989435 -0.5997126405834123
Ni 5.870225334349773 7.27718465481859 10.122887993980429 -0.7062784388608094 1.4951239990915735 -2.4893829612972675
Ni 8.61983674986944 2.260303467661184 7.548987551301616 0.45942553879417003 -1.256608672356352 -0.06805041581101828
Ni 6.539514861559472 1.717999175034836 6.388492132932294 -1.9636360735680438 1.9262108388420502 1.4322787816305784
Ni 6.382033320455108 2.8088811791911485 9.612065964607257 -0.35887715035544643 0.23273600104928302 -0.4921397411977395
Ni 8.541100660973157 3.8057274429757912 11.063828732022053 -1.3826402926678447 0.3283391296675894 -1.4971939942467247
Ni 5.671264321987168 0.5815936852554 8.501864639221345 -0.9319611326077368 -0.20965392241883893 0.022662217484206132
Ni 8.514471402224077 1.3382887917537092 11.979896768607606 -0.7187264348161752 0.3544437971744412 0.7748410184215558
Ni 2.6268771244919025 8.00503233400324 11.242476039442273 1.158167045847986 -1.3799414056794426 -0.1198792275568516
Ni 8.6020464574562 5.880618610443824 2.4205921296421216 0.10440787139412985 -1.5083626092690345 1.0837413226382433
Ni 2.8980760873640588 5.904036253246726 1.9384798868992028 0.6514434932988007 0.6623629684247818 0.689817979311941
Ni 0.7068214262145589 8.924734271896993 13.055549346127005 0.050675414867680464 2.4724131662121485 1.7530465267088133
Ni 3.7328527872640804 8.393937489468474 9.034188577803866 0.3980160253384371 0.7897637011696592 2.237090892492928
Ni 6.126255732111692 2.6431692870177117 3.969367234248675 0.47753561813131956 2.251513238565845 -0.3791865513367599
Ni 5.155373931938585 0.7162699441483489 4.304488590423963 -1.0160459761737985 -1.6953707692638995 -0.22944190367904357
Ni 5.085027370411913 9.153199079730188 11.352904129775977 -0.037929685166237896 -0.5333668661683265 -2.0891051365078472
Ni 2.9670836953038386 5.197134302550718 4.339323855631448 1.0894977655060463 -0.8880947702420898 0.7601327656771039
Ni 1.5335325693331252 2.611699196069869 6.18010694724657 -0.26244098431288354 -1.30071671841916 -1.663552339201722
P 2.081183312995242 0.5761189568480202 11.476872505298514 -0.48781103191539854 2.0925902668429703 0.8504975287146062
P 4.939952217437836 5.221722359328176 3.0734303180254714 -0.9735245578718201 0.08227375849925185 -0.5061501965442187
P 1.532174889122641 9.07644801293475 9.293060740696005 1.1115295484951049 0.24986469030976968 0.812417176903117
P 0.8433385122066885 3.7803247780720426 7.6917303033072 -0.362669270408027 1.921089715565401 1.538563558332447
P 6.624224743381887 4.044566800279442 6.2566173769288405 1.1913592163292388 -1.779812481948748 1.7354496395626562
P 7.278280162298773 0.6083053411482907 2.7339924751120233 -0.9512983994837679 -0.18027984013209594 -0.15118857919309445
P 2.798787529074584 6.725264240977296 5.897020323717651 -0.599258069544497 0.2428718039317043 0.5797883908556596
P 6.719693070458413 3.9022819142207044 12.820400070002332 0.0470172492898029 -0.10979690362018509 -0.07605451706241739
Ni 0.4257404240724374 4.371046755997795 4.997301565859865 -0.18875830991675233 -0.25562061895694044 0.6170920124021243
Ni 6.63100378112251 6.667988862718458 7.173137661474164 0.311698950007747 -2.051800486520118 0.46629706910302277
Ni 4.470157411363137 7.2255647168848025 7.291609772972189 -0.8910646515036912 -0.10080884118896187 -1.4757291395047294
Ni 5.823455591926543 2.136174043175748 11.74256771349672 1.188747232627688 -0.20250445585825125 -0.222764491658868
Ni 2.8699861519747314 4.550251180469905 7.027763818853779 0.19495749674892876 0.7860816243323817 -0.20863782244949877
Ni 7.87270064838412 5.8273320030102695 4.9098828779347405 -0.3382026527252305 -2.174549065204965 -1.0245445005631129
Ni 0.2779620829827266 5.559663008685373 9.572707283470912 -1.9223017335956314 0.25302740430846743 0.39664125647809756
Ni 5.220917114513681 4.963931658948525 8.535823498444682 -0.05698387358421154 1.3326927571051241 0.5139784343393857
Ni 1.9548535102376416 2.1872602723371375 0.1046836985465848 1.6124624625044424 -1.7387689337438765 0.7071086480715887
Ni 7.818721155877629 4.3669268988073595 8.172814454414869 -0.4156666485406648 1.3986497807222236 -0.08409949885408097
Ni 3.0955670597746208 5.512677910090825 12.341494761549693 0.10772742268566607 0.3116593550190633 1.3057964469349126
Ni 7.494825474215096 0.1593897840484789 10.123299043368291 -2.450538220515928 -0.6266030372163531 -1.0099640316457767
Ni 8.971962816598248 7.2702558040892225 0.6368596968027213 -2.0780601915475954 1.809382996517013 -1.1432677601386505
Ni 1.1478015765668859 0.040418608031702705 2.1697377706412753 1.353388852001895 0.953503634665203 -1.476433878881238
Ni 1.1662098475586915 6.731106947538275 4.224606432163795 -0.7271424267940122 0.19528634084325722 1.3093741369838419
Ni 0.8503937676453077 6.834112740610938 12.299628585514263 0.5554829813410755 -1.9971216069199993 -0.7836832993035342
Ni 1.0026983336574187 5.537359599986248 0.5794691498087873 1.2696102268223424 -1.7716561713902006 -0.2786924131747394
Ni 4.423069316338828 3.9823569567038795 11.055126470038438 0.8757845854161691 -0.6081175768176559 -1.1843953834168959
Ni 4.196580167294684 3.1284697374273187 5.62470525407936 0.7074215513263171 -0.06368391131220646 0.37695251979991856
Ni 8.002101617410954 5.988240516232132 12.212168699017234 0.4224541037761434 0.15149968267561006 1.4119920063570843
Ni 6.578194702590576 4.217207543182247 2.1335860237952113 0.4923438867887457 0.30312277830296186 -0.48784599891839203
Ni 6.193680940357873 9.0405209855718 13.616638314879376 0.6318110637798539 -1.0095747666271582 1.8048588833944141
Ni 4.584333635408955 7.230237009471228 3.901435470834306 -2.90588856079946 -0.04403682650524029 -1.747415296564965
Ni 4.712891906374108 2.904396322826657 7.909927303424416 -0.3913746087625195 -0.7288213571583319 -0.6545316453058212
P 9.39458525784247 1.515180478212098 0.7002436996775582 -1.4704046419680226 -0.05253072290886436 0.03530947393457145
P 7.552784374235074 6.678410228747898 8.987937562854158 2.0311373017438115 -0.7301976686805682 1.52123766545949
P 4.0787990682072355 5.986236767507694 10.464628275264623 0.19009039846461456 1.211238985972301 -1.477707603387339
P 6.920423748750543 6.3642336647300715 0.5660421606926889 0.011175814111161399 0.3024126396098147 0.6735297836748787
P 8.325173327635401 7.473158770718128 5.989907185731899 2.1321418038833477 0.8671073693571455 0.1923380568482107
P 2.732392285126011 3.90832125032941 0.9516036775154125 -0.0033825433189877225 1.0151473756189293 0.3684928190683396
P -0.011823990136547403 0.6596958779430646 6.078477561007986 1.5878274375645816 -0.4766002508012437 0.29749154815911344
P 3.3328240173846737 9.412188284019782 2.8912062254990087 0.24025210692067012 0.17482267367226664 0.3216177517833557
