# total energy = -340893.10163966997 ev
CRYSTAL
PRIMVEC
9.04910789193981 0.00000000000000 0.00000000000000
0.00000000000000 9.04910789193981 0.00000000000000
0.00000000000000 0.00000000000000 13.24428409770067
PRIMCOORD
 96 1
Ni 6.4578869224694175 1.9442461136036997 11.28826280205322 0.811807568343576 0.6146067840864253 1.3674126770848127
Ni 4.548217450787385 0.2102062558281499 6.095482813161889 0.6662584468244461 1.0277414102338558 -1.241989122670964
Ni 2.807304795435414 1.6992867582465885 4.739877559633474 0.5874117117288722 -0.2534086989072861 -0.7737925225523835
Ni 3.692307564328117 4.358557194823968 5.305885695523916 -0.8556885859972425 0.1660752664969398 -0.6098242750961175
Ni 4.8919840171213815 4.457807812096107 2.7597119164710544 0.3470747584038797 -1.3051091910599006 -1.2777984190600897
Ni 6.913029910884513 6.016136613992575 2.6357318966750922 1.0305619104017862 0.3505750582476543 -0.29256994248777995
Ni 5.2040425087907565 4.594937995734143 11.44408120366996 0.3520686120740453 0.6020891112353889 0.06565646165754499
Ni 5.71454794035601 7.886442465585823 12.459454472475109 -1.2330553105164443 1.1245724977219922 -1.2422937983955766
Ni 1.8968649837680944 6.314811474831764 0.6111297034418708 1.3106398910701427 1.3883106035797446 -0.796111497764558
Ni 2.955411547157979 1.8322814994982863 0.2976269741251002 -0.5980817898482087 -0.9445091444760766 -0.393798901933296
Ni 0.4662172868667403 9.135074593018246 4.838255842888012 0.4692404680020628 -1.0497464537500372 0.016367642724746
Ni 8.449740393610382 2.5061323807699027 1.3869278361894093 0.4677276309019622 -0.266882822134321 -0.13077967651943928
Ni 6.895040284048535 0.7073452498685431 4.765571597077174 -0.7294741602509823 0.18869248967582342 -0.5110779728631392
Ni 0.7438321585030244 7.372796993521532 2.563736287988106 -0.8871594029120141 -0.16593205605085617 0.7018908513160751
Ni 7.482173562719959 3.646491930187997 3.6029222846699542 0.8855434645751459 0.6580057198973507 0.8667954945436813
Ni 7.3376593068997495 3.9428411702541233 12.735226945709078 0.9736993928867878 -0.3928609635000589 -0.3686290875358877
Ni 7.755519970081328 9.01344553149793 6.830752705612497 1.4165572571302636 -0.11024864644562303 0.6902324411415404
Ni 6.773872727039605 0.727538334518687 0.4050579850892534 -0.3116195029200633 0.3743204814937102 -0.6654994571712345
Ni 1.9129542979101315 6.5660871076192135 9.059700047379268 0.6830834888015849 0.5605765938138991 0.35628624969981865
Ni 0.16497338424750502 4.948930054183158 1.3567581098960733 -0.9247844123536397 -1.0333050203645624 -0.6433918266389178
Ni 6.524895567701018 2.106550915882427 7.092764200209909 -0.6495768724037071 -0.7325517707350416 -0.718384478095724
Ni 3.442769360289414 4.374755098262802 0.559010460622705 -0.421563473641074 -0.09209665812694462 -0.1259334041707315
Ni 5.835109207124493 5.330603334207254 4.774392667620289 1.1423182517411874 0.7793263078864191 0.9121230148358871
Ni 5.444332524385612 2.8221634308804218 9.350583626173298 0.035857376018241474 0.6082762138827073 -0.6805383537822279
P 0.33335104294958506 5.782117630287726 12.44745535517908 -0.6966617417066518 -1.2223080993022692 0.6472883334798465
P 3.86188784949222 6.134028393881473 12.603062007667067 0.26802233505540296 0.7708473238811305 0.34146923929164413
P 2.3460898555077723 8.378876828342502 1.5736064110449515 1.21659922184295 -0.13404009243826595 -0.6040824875163339
P 6.245079048072181 7.7843775757050375 5.9378500653778366 0.21855302468068166 -0.5355736440116582 -0.9104929354316319
P 4.774571839960004 0.9555858118105266 12.520934112678146 -0.00772847899250927 0.8237709113530394 0.43985044487571995
P 4.144817262295893 6.153592565521003 8.229495057293382 -1.5549242590786574 0.1531287336386008 0.30679842738233615
P 4.790127256726124 0.9539207759263113 3.829743607818798 0.0005245050449023225 -1.1150715002100924 0.4841551803303661
P 0.17697612118676148 5.394499086264016 3.4115417932631167 -0.3311033226762878 0.9898875726108758 2.241026480101908
Ni 1.3182288175710082 1.0070118929518073 2.595522184982099 0.7696113945915004 0.4368697649808412 0.29197601765752296
Ni 1.859989868397565 6.323697698952956 4.7508839897746205 0.21198051366948656 0.4966800522702543 0.030773019516798613
Ni 6.03902180829247 5.651873817888211 9.290123820449342 0.16983730464253333 0.523468376107692 0.23255345272483174
Ni 8.669497983002604 2.554364126763748 9.954430607443339 0.6556048237653418 -0.6769727479181566 1.0616308638924492
Ni 2.253273154070835 5.277584610046288 7.099969100052367 0.6274733556364483 0.0012397859443720584 -0.3893709480689294
Ni 0.710706993515206 -0.04447274650306832 8.826109991396766 0.45417971701419846 0.4929702075188349 -0.173819686329049
Ni 1.1741670171541183 0.8242217198323917 11.287269209987532 -0.715173170247278 1.2389369661082017 0.7650317456406179
Ni 4.164245697314428 6.84730623899834 1.8197511995587596 -0.9664902767328579 0.1679503720324656 -0.4123254999825738
Ni 5.757902217102075 7.9653506879247225 8.075715419723998 -1.0650303764923015 -0.02222821527058107 0.1940496402226787
Ni 5.2899637898811065 2.7459699409614386 4.831395714062884 0.8643112946692469 0.3557483749184776 0.4417890566593295
Ni 0.6118472977115352 7.260398022228932 6.719911085818122 0.08472067737784764 0.39435040356139184 0.012439254204617287
Ni 5.345688197353922 4.6607883551332465 7.272145574320716 -0.2319952662285166 -1.3103619548184078 -1.1188880457427053
Ni 8.064284586414537 7.469061405131763 8.816243748871985 0.38171780239904585 -1.0472393710574672 0.9687155665189511
Ni 4.805420249358319 0.33728107058281714 10.403821982771438 -0.7243898037495394 -0.62635286887876 -0.4752799893279234
Ni 7.874588134018856 7.178132580797403 4.64886344052336 1.1724089004789808 -0.1665267522120616 -0.24121241395141035
Ni 7.395555500308497 6.162270660156668 6.946627439313397 -0.7901786772198908 -0.970061281913568 -0.771997892545806
Ni 2.388457779474599 5.009640520200553 2.720600766497321 -0.8608966125607432 -0.4470842436199978 -0.6890659316372649
Ni 2.314589910328677 5.199327923488169 11.413725970661265 1.1303448814293953 0.16363066161118917 0.5881665876170258
Ni 1.0312544534616594 3.296047122101006 3.875952878159806 -0.0019954331634739826 0.144833326399028 -0.2819877960965595
Ni 3.719056727772359 2.322833647777156 2.585297597777888 -0.5760808600970853 1.3041691957441348 -0.2786265929338105
Ni 1.2862492696643943 3.4239200681871287 8.294153649160142 -1.1175487581059915 0.04873628886343864 -0.6520032224570125
Ni 3.7627277233007455 2.649832216864137 7.081705285241977 1.150668937698728 0.051366784507750236 0.7967625010849956
Ni 4.224241283794577 6.773221191258825 6.016904883267412 -0.5136200225587025 0.33675974963111677 0.1871750245900325
Ni 0.6367214859644215 7.4332540845130675 11.20070453731366 0.10533963917977986 0.40857965978689637 -0.33039369820377296
P 0.09638566965832049 5.573979095652747 8.10342288371247 1.126105389426751 0.23206802844798097 -0.20468809377313135
P 8.818944002718995 1.7113401701910167 7.818657406882127 -0.7581550731254427 -0.3161564715584684 1.2146693518100888
P 1.7982930496009348 3.2925451172793134 10.505154799809654 0.18528166422206155 -0.6764988936055317 0.14040897207908723
P 3.9253673425779287 5.990690522109895 3.7810711702621194 -0.24102883718569462 1.7362590228378292 1.975071054877863
P 7.110318564947894 4.023224397207844 10.338130887674305 -0.46093554768079326 0.5239589425908654 0.9871691452384482
P 6.388172593925968 7.70368667907706 10.2096742741179 -0.5192520240334992 -0.25494287616362543 0.24830454491150136
P 2.3434565650604533 8.46795624814802 6.057101021298306 -0.045097920779902975 -2.030097804735704 -2.1576780004812393
P 6.724184074647071 4.18555634681077 1.5582428353698388 0.10062552153356218 -1.1705204252070163 -0.6420291419634363
Ni 5.166723987124974 2.8906832771591087 0.401501685619163 1.019921914189437 -0.33226109042981483 -0.26127910279429845
Ni 1.7873436288406057 1.2637712852274878 6.746347150123268 -1.7554034569767638 0.1919477633883275 2.8098023218971484
Ni 7.162694802436146 0.6777184700591903 9.276376415474886 -0.4552660080998417 0.7003780142159745 -1.4573598929689224
Ni 2.579294419486646 1.6189759241573989 9.399428901694044 0.9431757703766337 -0.7830356384172064 -0.5639727639796417
Ni 6.217207795227708 1.9889034619113224 2.4649996600541377 0.2499881032615114 -0.21015683019718645 0.32905003969168495
Ni 4.064569771963169 6.834528898408601 10.522159883688008 0.34930493328597906 0.5936579497489003 -0.6012560738111322
Ni 7.865041325008816 6.963777308920814 0.32561586537443693 1.2876861104874469 1.2637702231017978 0.7258956988711046
Ni 7.6450937043472 3.848323236500705 8.146784399744986 1.0772613713408543 0.6893832057673676 0.24998990303372434
Ni 2.9809300319051917 8.563415289140343 12.469904382470174 0.5059763899705157 -0.6997180120344724 0.3399018948045243
Ni 0.3803611593544684 5.151014735521725 10.27961754509543 -2.087135671486302 -1.4583356266186305 -0.7882022702198103
Ni 8.709377402251175 2.289351947931522 5.686804279935274 -0.22641957191295198 0.6165880761825123 0.6858137432485544
Ni 3.9289417402641518 2.8007894376276146 11.32659120417921 -1.3764220796722748 -1.4319028863483985 0.35145334708754955
Ni 1.1541594392193353 3.2840570539130423 12.611207109837624 -0.936352062586581 0.0786256202237033 0.3360814926171696
Ni 3.307747618830845 8.651137342735904 7.948425236197351 -0.9125999544723057 -1.2552621856307866 2.3231979086953407
Ni 5.63236394089708 7.8013265551133815 3.792911023256181 -1.1133311204802179 0.20618293315110298 -0.253820332523408
Ni 3.0418033818677808 8.325586630939545 3.9219639730341602 0.3939673091903602 0.05429501389813875 -0.49771414996172353
Ni 3.4301549036448695 4.0772747196883765 9.201638927043783 0.44559557488961327 1.343059702161745 0.030413579294850848
Ni 7.296639700034814 6.090556478730547 11.42910221508767 0.385307062412201 -0.18925299016498376 -0.637470061837844
Ni 0.5832340180056178 0.026027949531350545 0.5175890733596226 -0.7306175298268062 -0.1469909961719791 -1.1557023863575773
Ni 4.511975772981502 0.29077770422965143 1.6546348394038057 -0.6544727670434276 -0.633075018093942 -0.44337259909636545
Ni 5.796677645166545 5.8954124632789 0.26401949167734345 -0.18375031517919968 -2.3977565579385223 1.0769672371392034
Ni 7.78289352198215 8.849430447794655 11.354364726656568 0.9419192722617132 -0.2374938274492426 1.2096587859693748
Ni 0.22944013502325664 4.815808625418532 5.741106167620052 -0.6499501965827258 -0.30341974071809036 0.036879646635168746
Ni 7.778151789355363 8.9473598952891 2.3991357269929363 0.7357160273956362 -0.5401694909124568 0.8421257597111432
P 8.550782734279666 1.6335178408200837 3.5932270702876266 -1.1651974703322063 -0.25460374765665184 -0.7209434970721519
P 1.7984016388977313 3.018872942027555 1.745887854966871 -0.3447024015169612 0.8139397841952305 -1.030103482708129
P 4.880663582930331 1.0699936850938645 8.263241896005361 0.4188972396628205 0.20120682009275023 -0.4827786116978137
P 8.42777820833326 1.6412186317845794 12.460831746722814 0.494146230104807 0.5380956391025635 0.1542322511154247
P 6.101650685219939 7.822492418880662 1.4539310519561692 1.1423827864305356 -0.18800729068334074 0.20385531345919086
P 1.9630773074898522 3.2439061614224807 6.046135312143457 -0.9690351546418988 1.7222351977549115 -0.800110334511306
P 7.1490577965801 3.9924031351337277 5.9568821494630635 -0.875778414768582 0.09754508283602555 -0.47797681943379616
P 2.3675090943009116 8.373827426041457 10.2442554405936 0.7607161489843995 0.7798410427393085 -0.30094042593966236
