# total energy = -381173.17337861384 ev
CRYSTAL
PRIMVEC
9.15277260758465 0.00000000000000 0.00000000000000

0.00000000000000 9.15277260758465 0.00000000000000

0.00000000000000 0.00000000000000 13.39600788763171

PRIMCOORD
 96 1
Ni 3.635865781813595 2.71383375315515 4.869328227997963 0.888516688270857 0.4440184602104805 1.0925023566603251
Ni 3.414954456954056 1.635033031581799 12.767588142747238 1.0647449840413987 0.12950929444744794 0.9059364264092011
Ni 8.492958583101572 6.379546727145036 0.2804986217700897 0.30295719925937503 -0.7885007752968355 -0.017247731336854165
Ni 4.732331354935625 4.097714698469724 7.03539598600608 -2.128928439152372 -1.860475444317454 0.501004390677221
Ni 0.511733359096859 6.172593380840801 2.502455041190922 0.3611428064611716 0.03879588982127512 -0.483369194093961
Ni 0.7238214109548817 8.816920977176952 5.597401101929199 0.9613910078330797 -0.44941983373170985 -0.9822987045200242
Ni 0.186016378471281 5.501237494262777 9.91760048690676 -0.9312743909533574 -1.0534275021460502 0.11298147199575381
Ni 3.5140972921744127 2.2001160729102325 8.45827964215194 0.2820865264579529 1.388321916433654 -1.157007478322246
Ni 0.9304342741100962 7.541344792678708 9.023323326557234 2.5938754219854037 0.15525863549741 0.7578375418850238
Ni 0.7786776395931465 3.748765234587146 2.61436507922229 -1.0951523926886624 0.18926893100458372 0.06214536318049296
Ni 1.273535116158682 6.638597656358639 6.581646358021156 -0.5239676843416138 -0.11186946987849765 1.020255900490088
Ni 3.958958662470776 8.32071255134272 7.336016063550582 -0.5767328918587874 -1.4927087047818615 0.24885836053244237
Ni 3.0197560319961028 5.570084651438508 3.6929845758937425 1.1389308233261932 -1.016538856649817 -1.488178678121992
Ni 5.791755656442368 4.015623479018895 11.944055509379682 -0.20355783682343007 0.350286580472958 -0.14774355806728748
Ni 7.306988044541963 8.066009189220113 5.540776557581501 -0.42473364383893947 -1.368150840802418 0.6011306039768616
Ni 1.531213129448813 4.308246778947812 4.8536815628567895 -0.2195495842659961 -0.6470507635477437 1.3986646931205589
Ni 3.059213635636701 3.0840817193971977 2.79237095091875 -0.3433949955594473 0.2662652431549802 -1.3440079250076273
Ni 1.9972540160579444 1.1543568612284514 1.3761990230841046 -0.33107838297562336 1.5244104067605166 1.0223418364848393
Ni 1.8945141411180904 8.461207614178067 3.1647396146239215 -1.216149535900041 -0.6995840575597694 0.23547191192320738
Ni 8.460759128309732 5.902348610464486 4.576679300305143 -0.3445684470422582 -0.2635085063454494 1.032674585869415
Ni 4.724908456176051 4.848232917195168 9.584549389417994 0.13822919081894905 -0.03783172613579291 -0.5429658227106713
Ni 6.003642347298282 5.885123092011318 0.15424527344756409 -0.9781466300248637 0.5523503492493649 0.8404373162651266
Ni 6.835437188693295 4.255325446484361 6.270082310012014 0.696268105812659 -0.178856220311692 0.07653994133926818
Ni 1.161074996480643 1.808102812894735 3.9870000125690592 1.923397023542339 0.3081251166135597 1.7263376499590593
P 2.7911838362835875 8.460740822764086 0.995182819615621 3.2157424871786686 -1.9862859497570757 -0.0969555288811427
Ni 7.092520271749922 5.5496007458603 9.139667883021419 -0.5590300752623857 -0.6062517272535107 -0.8748643875947448
P 6.457034101865821 9.021970546733973 10.83228009315637 -1.6298878570697415 -0.42967324723240197 0.8088351159788135
Ni 4.722940610019074 3.222892672033085 0.7354838740861388 -1.953179139900778 0.13741132290334399 -1.1378157358851437
P 7.776882248509639 2.8601865905973125 7.844474560531317 1.5613018804702272 0.12023763933753485 0.3429946747972351
P 3.876849137474301 4.982513247283596 13.026680259438544 0.5048597598675693 0.06513787014991362 -0.44674074423765
P 1.2636043576455651 0.34725894674214297 10.24057804262637 -1.4267807346304846 -1.1734154873666245 0.21605391240791177
Ni 3.2316610283976623 8.264670123346574 10.391993278717017 -1.492664224697171 0.04468885826694239 0.9713548039140109
Ni 7.469074498467119 3.292774092537832 10.154616115548631 0.9745128899270185 0.8009688258568594 0.3649650084207392
Ni 6.288009846140717 2.3157796630763743 5.035881235060817 0.0789583209727737 -0.31381393946822084 -1.3890868196241366
Ni 2.9010537212526755 1.6187777070478853 10.579778888175012 -0.7697558905891646 -0.5571176887310211 -0.7581288478731976
Ni 0.6722299763826343 2.3708976610173806 9.0434575962136 -1.0373182552890134 0.3635334181805352 0.27408139676528925
Ni 5.112134816005041 4.984371260166696 2.662470222626199 -0.9171122405203624 -1.1148493568969575 -0.9541590088610148
Ni 5.8856264945165915 2.606663936168892 8.682528983260083 -1.0557659204712397 0.6240571308660479 -0.4061242562678683
Ni 4.696406721604763 0.32637964137797404 9.200097235031699 1.591523141248614 2.6147725771493873 0.05169202905765291
Ni 4.453968075065176 8.499182468621315 12.727266517352135 -0.3972326102051933 0.5350149432947109 0.12584675799419617
Ni 5.185000040450134 1.3656211635323905 6.824247923916994 -1.9662519139243362 -0.13834463335089078 0.33544025948874484
Ni 2.381926752269276 6.055840610708704 10.45892018415445 0.8706398079904359 -0.22364149494718258 -0.037507252916838624
Ni 7.713279630161573 2.64344893014513 2.358555146865364 0.053128504393863345 0.5448036472503585 1.2631796407056504
Ni 5.7865019648418805 6.074338364584289 7.025710521804623 -0.8279119301046064 2.548864147382036 0.7350521685593921
Ni 8.046623616380682 2.766269988658974 12.433263894558769 -0.44146946853638164 0.6478709454561938 -1.2071853847282177
Ni 3.381199030782281 3.734431992346093 11.446634341146382 -0.6884085005589241 0.5184881492842812 -0.5347390639255049
Ni 2.499649716320626 6.8273461375176305 12.80811112914445 0.7430313301101268 1.2533711392556608 -0.06825970360834695
Ni 6.187283581221955 0.021070598316172705 3.7433138430936777 -0.6113805638396438 1.0168759282742617 -0.15646422576973698
Ni 9.092428591926579 0.9114276260655437 2.504464074825603 -0.6064769558904394 -1.3536917279542946 1.1106360901465582
Ni 0.46307538821443106 1.9740608897240837 6.381697628758476 0.24755172590587687 -0.05683680648338599 0.7909386953143669
Ni 7.3885117920777565 0.9765459435931239 6.801622269498169 1.4769108185176565 2.375961573550618 -0.23691404368637262
Ni 8.319440315920302 8.192289995861108 3.5801766508484234 1.546005616432789 -1.4072917726679377 -2.0418482604034125
Ni 8.88932856298089 1.0719178364103428 0.4315340177885752 0.006348567925847131 1.4236007942406061 0.4552760354021708
Ni 0.9960688080249019 2.0827775253174545 12.010365517928836 0.8416477916334603 0.11312442533152132 -0.02507005559475037
Ni 6.1098145120468175 1.3447253831771397 12.935225753389632 -0.4599009357686918 0.651462262351878 -1.331922711708319
Ni 1.1261571681603273 5.225812254468559 12.339893713157974 -1.6159295951174364 -2.172171566111724 0.09577693519200925
P 7.918100380398015 6.1744696992695465 6.92051221208447 0.8011282342528591 0.9820662767942443 0.1653476443022959
Ni 8.358037558915525 0.35438071927583564 11.969146005519782 0.22973783765290756 0.027072944957392087 -3.683001663084644
P 7.290906622691689 7.702232233364032 1.671942503268432 0.6431961656883439 -2.262579523682336 0.115467214532085
Ni 5.211323415089513 7.393847858633652 9.479939602990369 1.0255459452444338 -2.1746408535878223 -0.5012003087381111
P 5.077940056737754 8.827208693830173 5.519771859229655 0.009516681241183609 -0.03214136061923497 0.3175497523615693
P 3.0393063547463504 6.591122223724962 8.365512628480191 -0.07791573864087227 -0.6985083079970873 -0.05178973097778178
P 1.4103050004550068 6.621143318584894 4.435163703300016 -0.3793354182097983 1.3949756743047461 0.5041280239078673
Ni 0.21661135218722316 7.412757487286279 11.512864720571974 0.4955343687015853 -0.37315988552670576 0.04383396646581483
Ni 4.4403304435586834 0.7001450182159583 1.3993335716718973 0.24715449046745822 1.0251229987744024 -0.570113843880373
Ni 2.0120998135770933 3.3455947445002288 0.6844306225558927 0.19240721952324927 1.0392039023475006 -1.74833343750386
Ni 5.1355109977953655 7.639956767075322 2.1418742336046845 0.6047563736549069 -0.1775182182265588 -0.10437136172923962
Ni 6.907771552314647 3.78673093625757 0.6484803614611256 -0.7852316176272606 -0.03388559700385132 0.06505739462096538
Ni 2.3132077339130688 4.259526569210186 8.841258200113707 0.3560435375613933 0.42230780800626627 -1.3729742303329902
Ni 7.2548721560869485 5.378480505158694 2.246363203431043 1.7282454085047332 1.2790088944284232 1.1258187114242677
Ni 3.6343281159793057 6.089898078383643 1.3187040500409257 -1.0639703106589031 0.7067602635932344 1.2635632492973141
Ni 7.888967104501931 7.664092629009967 9.564374847561208 -1.6342425344940112 -0.261708219911917 1.1898556352005187
Ni 5.09306959021442 2.1302438051783086 10.8084352893975 1.0911656401267724 -0.6061799934753108 0.19969346877201738
Ni 7.340468887529044 5.80184201209348 11.593830148965557 0.5024501219848121 0.12410252160957982 -0.8719806382890466
Ni 1.8798697046010509 0.618273465312885 8.131966816015575 -0.22738810647380836 -1.6867334053038756 -0.6877618681138606
Ni 2.9835842737990155 0.7255595225139977 5.891952891091952 -1.058351421810229 0.24473945326806237 -0.20715249615322387
Ni 6.890417895041955 8.0498728507329 12.908594845583398 -0.7593285246082536 -0.48302826581477465 -0.6087557246222871
Ni 7.561581573390692 0.8954359013889367 9.381746825589056 0.765365731941269 0.5973323132766939 -0.6965750955301164
Ni 5.3537497129905445 2.648903982747727 2.7576618058188025 0.9994446201716916 -1.2029752033016121 1.5642388516113641
Ni 3.762439477184931 0.5496240080301337 3.5270484657191696 0.18518524785351334 2.990056193887315 0.2587085138536448
Ni 3.8750460412281402 7.666746933128681 4.218161527713243 -0.1745002573358414 -1.51609931579166 0.9822570526488115
Ni 6.434380989128526 8.351026534932991 7.583426496287703 -2.5602765029840358 -0.9582735452500205 2.1970755284422547
Ni 1.7441340836337422 9.042491063403475 12.51250127944334 0.11124700580315036 0.7791869540950774 -1.73159015660725
Ni 0.06187915122546753 4.340757428015639 6.931817717075624 0.5346511321973889 0.2819782830148627 1.1813200869256817
Ni 4.660125130133798 6.520041789980382 11.54035324319174 0.4025403955713519 -1.274533889376205 0.4370070618896538
Ni 8.69050287894361 8.338661138848916 7.5082620953094334 0.9094950902947369 -0.5928825050354564 -0.17666615463890864
Ni 0.7928580305280521 8.190816399436581 1.0112221387109084 -2.657312507394127 -1.365679753554106 0.38224616409869006
Ni 8.382136809758878 3.4993521751563184 4.89036038466828 1.0886567576619894 -1.4218041073514998 -2.429695572738964
P 5.069043561553653 4.366522483512805 4.758061629896063 -0.029278180138827 -0.24508886618768108 0.4193410120684585
Ni 5.91540961728312 6.323229715964196 4.329308224491161 0.583982117222033 0.5952661747762845 0.8385807226723623
P 2.3928185519288245 2.9763078194046115 6.663736662194703 -0.07946997050186959 0.05254820641036112 0.5351344995917106
Ni 3.5127426817965866 5.955993011980965 6.039992584565421 0.10326861558336409 0.0916459437427712 0.43685330992060895
P 8.250291117241407 0.8785536119166372 4.802107518552906 -0.002838755000375756 1.5885424613537353 -0.9924386211675036
P 1.281836681109279 3.718826514682623 10.683410243187842 -0.1935557313053957 0.8297294429293194 -0.42164883426602867
P 9.006044722021693 4.083527900593842 0.6190441287845942 1.0710686122665811 0.8952750900406131 0.25604330831665584
Ni 6.7389303520460055 0.5064256661367146 1.4971648145466965 0.7111987589805623 1.174950435953912 0.6662898142830138
