# total energy = -381164.5684256891 ev
CRYSTAL
PRIMVEC
9.28934515727375 0.00000000000000 0.00000000000000
0.00000000000000 9.28934515727375 0.00000000000000
0.00000000000000 0.00000000000000 13.59589561907575
PRIMCOORD
 96 1
Ni 0.7190835512968118 2.070567131080881 12.247413358774429 -0.53849236032035 -0.22890505733896704 1.6246674892110666
Ni 0.7504731769653286 5.98675990421801 3.6947385042231655 0.20474388671173124 0.7354506895493914 -0.8508860224022765
Ni 9.153395429806197 7.049739651857435 0.1282421944427735 1.2947111356550283 -1.2242497964096721 -0.5214914548869792
Ni 5.711210063667208 4.163735238531653 8.339137894375508 -0.8290596705558045 -0.31367921366256946 1.048994406075361
Ni 4.1127274451707505 4.8368411767817 11.600711454734732 -0.6220138751837739 0.9201096325857895 -0.5947897493604982
Ni 2.9215361579270307 2.9507511479325013 2.096868053561799 0.9394903511052465 1.1867456288166272 1.9122212094311777
Ni 5.58313786423782 7.901684059927933 1.6864081267316808 0.10845787309378742 -0.9851629134416969 -0.1499228251067934
Ni 0.8301376706975749 0.7268828853535981 6.802761049704035 0.22406135609342057 2.4244541218343665 0.40099053458572875
Ni 3.9751708245027033 5.856030952120399 9.313148011402408 1.67672410069699 -0.3247915215256471 -0.1269145371370782
Ni 1.165645588510797 2.7898782713300405 10.207036598923366 0.38226647581366424 -0.48021316496348265 -1.406424796681952
Ni 6.255333446678475 0.3288901884396456 8.669490225717174 -0.06578116016086737 -0.3647420937766557 -1.5248138128465223
Ni 8.107517366300339 3.129004389018344 9.750255353281714 -0.611032950692238 0.6572210192125262 -0.7344834405401157
Ni 0.2812730060014765 4.6525405721049005 5.466067036084579 -0.0368945590335042 0.8942530765340019 1.89214655016849
Ni 8.499369806173396 5.352938605946703 9.707224320466977 -0.29677163927395345 2.085510220067737 -2.010118276289983
Ni 7.251188387392772 1.5325840051105082 12.617861289912794 -0.1488787001129952 -0.4422891362241995 2.6911736789179455
Ni 4.34072512869834 2.093047345965853 7.860875038435713 0.5196783129376406 0.2136761562043546 1.6105698734674196
Ni 5.7983626983989485 7.835887629336917 10.101981538519594 -0.2349399506791373 -1.5182310174226818 2.249614993101867
Ni 4.119824504746006 0.295390952523039 2.1197226290500217 -1.1297856664918156 -0.4176296858043066 0.0558513026416651
Ni 8.475291823949492 1.237238570377939 3.649151972600639 0.025552394547807607 -1.1887066091977398 -1.0576076016656688
Ni 7.146088738133029 8.344479267746937 3.6756228900949437 0.9868896663248166 0.09529408201831975 -0.3803173225070934
Ni 7.910759749986867 4.500390390451608 7.471420178505554 0.460339051747375 0.9725735068124606 -0.017825972437827364
Ni 3.8669592446700403 3.852477155824721 0.05728088803520925 0.5190383653607965 -0.04117158914230329 0.5966782246324627
Ni 7.854735710329317 1.0979541315410468 10.626008352571295 0.11268476669094143 -0.9613161887310863 -0.6936628069793279
Ni 2.8243696092919834 7.343115745451321 3.388559835358838 0.05526971910658223 -0.7412035328727686 -0.21801052191365036
P 1.7390582762874855 3.4566674549843097 13.86713327779569 -1.3260148308643163 0.49646922181102887 -0.4638815176829946
Ni 0.14529464504787437 4.719674668375023 11.49535634848766 1.773610981123726 -1.519132446191029 0.585723782503488
P 5.522097578283624 0.05502079039822006 4.6046716484173995 -0.87005179669745 -0.1937426505052212 0.7955944489188234
Ni 6.409926726065135 8.619109463143355 13.056138160326817 -2.5635813989875524 -0.9444775199071928 -0.09281039636451759
P 7.96110799985321 8.283141722752939 9.889314061035256 -1.194867229482497 -0.8696625316788312 1.0119892896059217
P 0.5458818560185924 -0.021268884297782314 4.924949685113302 0.12966073242364765 -0.6464082448677383 -1.988285239575292
P 6.103434077340015 1.9793643419318474 9.885793399282608 -1.3127708213702165 3.103118398522333 -0.40201306231297224
Ni 6.414980129741756 5.426983974892205 0.1035743388117633 0.4695577421321655 -0.46698638186056346 0.13680968476360308
Ni 2.1668976386664864 8.325129562124872 6.935184378328513 1.3168030824580612 -2.204617345345255 -0.24266534434785303
Ni 5.32604595218968 0.4523465123416184 11.167913439998046 -0.9743545099722832 1.1387598449659677 0.3102779012905043
Ni 7.632971177292561 6.304789919425415 11.811951159893523 -0.6964511683577425 0.868370552340285 0.1211400965471462
Ni 4.508184150901398 0.032090971215548034 6.913608016711437 1.1170581916228182 -1.053682812689966 -1.4920011371918758
Ni 3.874400010010066 8.69347995916364 13.317465084757627 0.14121501292015035 -0.6556950694863031 -0.19222261431626897
Ni 2.5377004227836144 6.129453532667623 5.7602550184309225 0.16237750593037842 0.9318428618623177 -0.8395788249195735
Ni 1.98253200857473 5.378326385814732 12.603680175845273 0.12942856180818355 -0.38191217779803904 1.137852759770666
Ni 7.603449638902296 5.79581741787065 4.26369973787883 -0.4331419225072927 0.20666141544941824 0.3415790253966311
Ni 1.8608880358810458 7.117914154766862 9.210988439833198 -2.216537750931925 0.7650016637336309 -1.5063180680351798
Ni 2.8518567811286095 1.710595723226512 6.142136275387645 -0.566170800072225 0.5543822920777292 0.06936373530580311
Ni 0.3760438325626247 0.1558687064543059 0.5096692024292996 0.2545019319714649 0.637835672707379 0.9336205225880309
Ni 7.9014332476131015 0.15223843043073265 6.058072347866339 0.00037538106154774063 1.4572033127864001 -0.5852108474228115
Ni 8.444794904334879 8.76685649526959 12.2939799162938 1.100754312256472 -0.49262799368806764 -1.7634278699431372
Ni 2.9703330871794114 4.398922875084437 7.1601964663750985 0.2030446446324374 -1.0229876975989542 0.7833637111805863
Ni 4.222880498107116 6.353085224048131 -0.11321574998081826 -2.2062463963082455 0.09541852341132599 0.45377296849408305
Ni 4.496916175423931 1.5324725329705828 13.198949763457852 1.0709174314006975 0.2964793048445152 1.2124715728278217
Ni 2.29050166315386 1.3599601070909026 0.7782929073527318 0.1820721561458284 -1.3640746138505153 -2.185580126208146
Ni 5.533346975071105 5.5901513197081325 6.6393382479007785 -0.606504209583949 0.631861714512131 -1.179741172474336
Ni 0.486110494590548 0.008326968852433642 10.378005135665079 1.8249402275253213 0.2037748379302426 -0.7329271517965893
Ni -0.005096134663593369 2.472024753677517 1.5695100803953241 0.7520314767262081 -1.888273954586961 -0.2766643270011171
Ni 6.7936602784136175 0.9961243317191173 2.025693092219378 0.3951117072074486 -2.532890140551283 1.0257935424788656
Ni 2.111997609753186 5.3732451141031286 1.7477661082846647 0.4265876663285428 -0.23675849194511484 -0.5771298701868899
Ni 6.618611861350633 7.122261568223957 8.229922136349016 0.7612452820149922 -1.3102277432333886 -0.6301372756218567
Ni 2.910816253804197 7.209553543130604 11.24463506923626 2.076556096198243 -0.14938880698019436 0.8395551707704896
P 7.795218876954103 8.660651413955584 1.0279356936503523 -0.11640541007563823 -0.583798026235685 0.9326062223909035
Ni 4.063614678188581 5.219041987206208 3.8154433241379775 -1.105614725672567 -1.5155727538642285 0.2907827686803702
P 4.026838161358166 6.951829955622886 7.434725407911083 -0.2918448913962974 -1.2208551689058265 -2.5034823768131274
Ni 0.0017073816098586605 7.199511761192317 5.68981391534301 0.2702229422511475 0.1563868355645823 0.22268838700529392
P 6.797459620516078 4.103651755111818 5.55438548361304 0.7153996844357873 0.2558661593088432 -2.2503372159798727
P 4.229160095322919 6.118659313784838 1.876953958047806 0.008853593735887977 0.21169949209395797 2.698916041867526
P 1.8582684405927967 8.582295788932962 12.66000797708412 -1.0596940518810525 -0.12385903814020605 -0.4123149584596124
Ni 3.26099669203511 9.036275368124489 4.8286368272831846 -0.18551820571289984 -0.5891855157998434 0.12099020123284324
Ni 6.822568720034293 7.590342373116058 6.024559177932241 -0.7716464227436581 -0.8409962740923902 -0.4318933948121723
Ni 8.978374880778196 8.167359326750338 8.092644196030781 0.716442780988321 -1.2905513478503838 -1.0881888168866356
Ni 6.9343381189995785 2.9173652420248186 1.100983386943522 0.29419333702381595 3.2060175465814207 -1.3265275088346766
Ni 2.8096738655118076 0.29013504112555244 10.539307180006253 0.9952730052925053 1.1513574791253205 3.255026629490272
Ni 7.740328137385796 6.693047382785876 1.8373088914833078 -0.6672521781962831 -0.7934748314726593 1.599383517833297
Ni 6.272137871772243 4.833850007693699 10.503318399631311 -0.11955192612441992 0.6265104775025468 -0.07084314806480702
Ni 2.0246313200865877 7.771345260320062 1.2575757333728441 0.6565404482057339 0.4334453126803245 -1.0641081217883481
Ni 3.144796275507787 2.4530001751302346 11.601350561670305 -1.7089793611862696 -0.43965864057988796 2.448024967175771
Ni 5.791117009303792 3.14227886301447 12.044372429507158 -0.9689253685369121 0.0009147985047855213 -0.4919474226812754
Ni 3.7703036100096523 8.252440437548461 8.943461806553533 1.7210674026990551 1.7820295442047245 0.855983748640158
Ni 1.117480334717994 3.7861791006040395 3.4922010574545563 -1.402650160130868 -0.842325020206143 -1.577247605166206
Ni 5.721939257135035 3.408279256911656 3.4709916249647343 -1.1738163223494686 -0.02533719321320798 -0.2030842396211212
Ni 0.31618236448814047 8.112171328142228 2.8930299449445864 -1.1735368434358369 -0.12488259430871396 0.24960115223573787
Ni 0.6189843564472254 6.966637171542987 11.233799048301004 -0.6289427410931233 0.5434808146738769 0.5419165555105506
Ni 7.913212137065228 3.5073501212704294 3.372557080738035 1.2241528658204919 0.5131255994207872 0.3608299032064431
Ni 3.917623332266173 1.725885985086291 3.938295840615354 0.8147779638258097 0.599563773710374 0.335022712335352
Ni 1.9542831104486136 4.921309190810236 9.563502361526552 -1.2555959148211215 -1.5279646997706782 0.2921307980678324
Ni 4.815484972640975 3.192394879255969 5.895900820833747 -0.814732712410171 0.9665442698992451 -1.1456252046272335
Ni 8.53300652439591 1.1789665092318922 8.182445223020252 -1.3773713309594215 1.4916576378095276 1.603962138342915
Ni 8.87555112104193 2.472944398831902 5.4041507648974685 -0.12702123791827155 0.07948488290020504 1.9154929382039139
Ni 7.952673274598848 3.6682322872178843 12.611892885754283 -0.2143346157239599 0.6243448373097956 0.9892869629123995
Ni 6.793455912823755 2.65388226062095 7.058472565086098 0.44831425937235697 -3.687731207349829 0.34701536592085397
Ni 9.031900086632414 4.647877320918018 1.515643026645333 -0.10475574165185184 1.7222136004883564 -0.6430305866447571
Ni 0.7570193783824527 3.149097242239912 7.717206957696252 0.1275262025791481 0.26702603258040464 -0.07294399645789373
P 0.15842327632759826 5.881641676268278 7.734881794415936 1.6376754714349604 0.6655305675194861 -0.22822525766312307
Ni 5.236747478764373 7.0853457112186335 4.334086033831278 -0.132738600018023 0.46042158415885226 -0.08556554187664618
P 5.250755811015009 6.678676766080481 11.802664601703231 2.1585352062752112 0.05906132493853055 -1.5892135192788308
Ni 1.4581391943302726 0.7941479613881332 3.0160998320948176 1.341611913971625 0.6082299340258042 0.32317481185783054
P 2.0029871462510562 0.30653073503959233 8.713296918838893 -1.3281946121244543 0.5411017729187391 -1.825675048808817
P 2.596771367599127 3.356649077436169 4.743404300161661 2.149326028972118 0.38602902817989 1.6422744036595525
P 5.054360479156294 2.153316616285565 1.6888280011025634 -2.1009900608708914 1.3281367623033256 0.20013852672923596
Ni 4.18549088450711 3.202306610364343 9.99317358273833 1.2327856017948253 0.5193828931844088 -2.6189459918007865
