# total energy = -340867.48126827553 ev
CRYSTAL
PRIMVEC
9.20957229612627 0.00000000000000 0.00000000000000
0.00000000000000 9.20957229612627 0.00000000000000
0.00000000000000 0.00000000000000 13.47913997321472
PRIMCOORD
 96 1
Ni 0.787155017267222 8.053549735698388 10.537761805814261 -0.01114624642480661 0.47674063303385 -0.9663406385288712
Ni 4.837696106771377 7.608230088366775 11.383753095136386 0.21769864710018635 -0.6104850486085679 -0.22686900074554475
Ni 3.80788175915544 5.282905239238285 0.0657406882273908 2.336549904522215 1.8058461870083482 3.122059201290894
Ni 7.742975337159198 7.387108263234789 8.701121715970695 2.087597441614069 -1.1811781620311788 0.33359343608799324
Ni 6.724240104730008 4.7892905960302805 1.3781746993552109 -0.008151939683173057 -0.7022574906268745 0.41899699846547844
Ni 8.594741028162195 8.076205282963057 4.20659728804066 0.46821614050260657 1.6685839880883586 -0.6328824424671615
Ni 5.096761368785653 0.5855243304404981 3.9986000240496815 2.373392527271861 1.1831483983836721 0.16643959181489398
Ni 2.9773165030318194 0.25437574792193046 3.4668890650632123 -2.583647059389176 -0.5705159644147981 -0.6087804072126355
Ni 3.689096698740931 4.934764996271215 7.953703239265613 -0.11652830880674771 0.7763191456289792 0.2897239883985526
Ni 0.8542255676999048 0.9726597434189727 5.185128133647122 0.3482484669970067 0.46033828041642655 -1.9812982667344974
Ni 5.5790298192172045 0.9975255879777548 6.798567797945031 -1.5522528828940814 1.226698772170797 -1.234552720997577
Ni 7.950632767941205 6.429607475424614 0.13660281947668487 -1.4405767599733124 -0.7209519817125842 -0.5850388406213215
Ni 4.38313004909272 7.077243001744127 4.505819968060163 0.6314513664475898 -0.9126806871115701 -2.1866440486962855
Ni 1.6728727166222215 4.748151437643584 0.8454074024535959 -0.07749664882558266 1.3134796745117832 2.755849778940093
Ni 3.5306275923250183 3.0902626947610434 10.342314425667821 0.29153430213441406 0.2951490160688659 -1.8457106273034536
Ni 8.491778012544719 2.460106936209149 4.39698953408402 -0.15050800818630208 1.7174390619178488 -1.2748547630507334
Ni 1.8513450135498661 0.5005411623534333 0.6952471719491393 0.8695023519518833 -1.4918772100195017 2.5502826249961177
Ni 6.031385579601747 3.4596770491839597 13.160829356732405 0.9708722078506378 -0.13040943766421412 1.4961182446840426
Ni 4.553700533193907 0.39669955356154696 1.6143827244767304 -0.6994321053629374 -1.1458928564663233 0.6936880037903086
Ni 2.677139711347024 7.823439368237005 8.64472505955417 0.11958046536951018 -0.49743441393777554 0.6758813146261908
Ni 6.457558526623098 8.321695635762648 5.354682801950224 2.277946235946393 -0.6438494830016266 -0.5223481464603197
Ni 6.08909275812224 8.443814561262446 0.07896287083222178 0.017789205662620974 -0.6698762460826915 0.164488124515478
Ni 3.488788506461852 7.984597669694091 0.06462725096548089 -0.04122198276426449 -0.177048734789308 -1.1639188607300988
Ni 2.2941043998491306 9.013122677221794 6.439861412954892 0.3776580305073754 0.26750528620966835 1.4250601523949522
P 0.5840517198682946 7.376010728903926 0.29638705278259597 1.3376033070328641 0.7487708036970653 -0.5161898401684077
P 7.1533969530984125 1.2915135472390313 5.523913293316854 1.3293114993377173 -0.7910613369351602 -0.5671658169956425
P 0.6396609578737905 8.790020794097165 8.358293554167147 0.19707634286414444 -2.224213008088995 1.6090110136207323
P 2.8126033067600344 6.783982598675497 6.660110170655703 1.0427599951298752 -0.04863550161951624 0.1950189461144835
P 6.484947793925993 8.610673587823934 3.0231553060401257 0.8990047322863742 -1.443079214680192 -0.7830083847236967
P 2.4581084590723874 2.9842789395082785 8.57974231910722 -0.8806059180642124 0.4777492768040223 -1.5652590653457623
P 3.1865303514917658 5.303737291235309 2.9054422398132624 -0.02750180496469457 -0.5552207288186244 -0.11528980841395628
P 8.68889969289145 5.333502628129377 9.562223150169707 0.12404338623687024 0.6271964478259778 0.6790365724257209
Ni 7.4247846225273735 3.227890539607874 9.767793691923186 -1.1951279393430514 -1.3590532493765237 -1.7089549357062372
Ni 3.5934552929102077 2.8061013488865156 3.519160754154596 0.9907717749880421 -1.1143194525354163 -0.7624555002730095
Ni 5.228108285488375 2.1784874322228522 8.797092824481124 -0.36999640019705954 0.6902905480729854 0.3377768780417215
Ni 5.08271677139597 4.826285446990513 11.523882259754387 0.6542503666199765 2.1729657798782442 -2.3768488612515775
Ni 4.533181606646883 8.202717174334905 6.375821732686763 -2.3262611210016972 -0.13403032224625303 1.088381649623732
Ni 5.365349328308735 7.424011018474434 8.357578891375383 -0.9559695797071923 -0.5992552413310196 1.075426889235277
Ni 4.606204303501173 1.0726204385452773 12.716921536797408 -2.3591858967541754 -0.9904357318048619 2.2143386863980767
Ni 6.778254244854918 1.3122903418037029 12.425636586935392 2.4983185732240005 -0.09650430027633702 -2.1883129517582764
Ni 2.0219799646554653 1.0837548111643764 9.6509693494 0.6652798849612607 -0.639919294709285 -0.2279450074185429
Ni 8.298947992777393 8.629728192413607 12.55372884087253 0.42343138008774817 -0.6230423164482882 -0.7912024904987147
Ni 3.812928604643667 3.218515195252007 12.415554868402612 -0.9467817425603372 -1.1792002123692016 3.8518719758282183
Ni 5.2902636873132725 4.662548465356962 3.339564889435777 -1.126447603257518 -0.0062079285829247915 -1.1553005229334683
Ni 0.23473265167769836 5.965435834088621 4.394267184583437 0.12277069017203372 -1.0834484739881727 0.6631625815079417
Ni 3.460128318214841 7.264188104965876 2.2402191937330436 -1.0014359395701076 0.6116569574294821 0.36865634122939733
Ni 7.145753008289601 6.676709503334499 11.352387134618496 0.18046084579465052 -0.21822829435141125 -0.9131889942065562
Ni 3.889892998339127 3.048497285474348 6.631912302926044 -0.08074369500797063 -1.6736025243488726 -0.07484198481155499
Ni 3.7300700848305692 4.682118805981929 5.015816598046374 -0.17452622547777039 1.255655050193831 0.7061213444576548
Ni 1.0858730127379022 6.821327413373964 2.3344119338789167 1.6889697508335622 0.44904599533205886 -0.16194710326117914
Ni 8.098860830227725 4.1723597829548345 11.498798148337812 -0.7913441582829016 0.9981778376441262 2.2103771306471676
Ni 5.586996099048074 5.908935109507832 6.300122734192183 0.6172773889400531 -0.6800557577188546 0.5340672346694609
Ni 6.135647144879514 3.2730450714122106 5.1645723688118625 -0.0022659132160412587 -0.15167503191120976 -0.39701200955395494
Ni 5.047425691266616 0.5845785073900585 10.624985662783235 -0.0005684709089603113 2.08362457300925 -3.2280097345817955
Ni 0.952527618898418 3.211414615194666 10.472441995029959 0.3155818300019211 -0.15498738411389437 0.2906866094221381
Ni 8.848437109666184 1.2907123144699149 0.4359516706333935 -0.4586282397038553 1.0230537749501993 0.5758047236175632
P 2.3539942469475608 4.821174134497874 12.313598459011166 -3.0599089530143946 -0.8703140492199011 -3.058237993069875
P 9.236648200661127 4.348216561417778 2.66579628144219 -2.0504586277802432 0.32038722181036433 -2.1495774828612917
P 4.4683370097808135 5.916717197897526 9.768629000108922 -1.075850864146573 0.990441902452449 -0.022565029784709523
P 3.4147619662531516 2.0438342791510173 0.9540214114863566 -0.65443342916506 0.6230024643492884 0.005492647683455056
P 5.722763610339024 2.838786120123226 11.174314533118206 -0.05185503699807844 -1.4755226799208783 -2.1680079216523374
P 5.608435982800979 6.230791233819063 12.984468814677845 1.916403365833325 1.6683842133727267 2.017634125051054
P 6.198622198617645 2.7700458742762817 2.9021802093900324 -0.02188265900570425 0.4680657309676713 -0.07148643807576076
P 8.308332546705318 6.870939378054764 6.0369159276230615 -0.7809353042447519 0.9567889902846941 0.5014725885628912
Ni 1.6147418977870238 2.757723466861596 13.173014541523415 0.07471368676380681 0.44058475193858315 -0.1598935631662601
Ni 1.3843276144477008 2.420155812618039 2.200630927281051 -0.17939332376208458 0.6946233711203843 -0.44243414644249607
Ni 0.8506826453288812 1.4271981723814529 7.500332584040189 1.077008374789784 3.310384794545602 -0.06503913978852024
Ni 1.5957333410576438 4.105829834402003 3.9069288647335108 1.2046628754166802 -0.5448262729581779 1.5293250704533143
Ni 8.140396000212949 6.333873973873303 2.453877581668571 -0.2041090813412098 -0.7745664246039305 -1.0990643261485589
Ni 0.1477924495281369 3.642339701398362 8.28438673839521 0.9624626436307038 0.9557430655186832 -0.42785984817274697
Ni 2.6388463107264992 6.771724658265223 11.41904141239412 0.6471798329264402 1.5867704570549768 0.9341810230771912
Ni 2.064822893873041 7.4031881760494676 4.753229595676811 -0.37553558484773386 -0.0009135129532048783 -1.3071259643796134
Ni 0.30954384742580937 5.929693484928387 11.701618711874534 1.1084843339108779 0.6568654356453204 0.4868658943933099
Ni 7.392615587325957 2.420496566784215 7.619218028790138 1.5576074623377756 -1.3034986520396712 -1.2230334075040679
Ni 1.6275432029487673 5.086768983101845 6.218628152000995 0.2569277678041382 -0.06972574663091217 -0.13324639289237697
Ni 8.835856834233853 4.0515209879712115 0.21534373962228937 -1.382213232432755 -0.6696376477093241 0.9041955324586944
Ni 8.745188597314886 1.0657961456497003 9.57366696440998 -0.45815567094281096 0.229480727336779 1.2518169073946634
Ni 1.1662173193789453 0.7772915655922383 12.107016706245627 1.052187459091362 -2.152006661128074 -2.3106920629188465
Ni 7.031747715773615 5.698367453955241 4.150536781004282 -0.5575483485105365 0.7173971744817903 2.390484192646825
Ni 0.7687911305819582 6.4465899263010575 7.972857307233522 -0.981120110830891 0.4508233989474558 -0.07667363870365504
Ni 2.0008532063525593 5.34978515152935 9.883646424594172 -0.14838016321002187 -1.215119809083946 -1.303754476804219
Ni 8.234490197937793 8.478810935085917 1.7544713669776741 0.5307985912205181 1.6163072901718292 -0.3151421713613411
Ni 6.7580760724740685 0.09131106504867186 8.537862711126996 -0.5774923957326312 1.8508075822103867 0.9868873523319712
Ni 5.656003422484724 6.849729733603329 2.0195256137017927 1.0182512113552333 0.08366343975792688 -0.2573219179187633
Ni 8.05593501486162 4.779371886922944 6.211713605299241 -0.0956982594352739 -1.1899515373484346 0.6772098036296272
Ni 8.51001296522116 9.145887868021573 6.731064397625585 -1.4576627689213217 -1.5058609258931035 -0.7747988523297108
Ni 6.4622646179451495 1.4994472651828035 1.1724844331649642 1.086846186815812 0.43132260991036686 1.4618133007545857
Ni 6.476963094951007 5.412585223398363 8.983092104652432 -0.3420513370473593 -1.1889691188305072 -0.21379828360451567
P 3.0958529050007404 0.06615327705562542 11.200895199994337 -0.9114352447402432 -1.9914302129621766 1.8020039304441224
P 4.161234619907795 0.15808598821826683 8.28535742729021 0.9471342408037494 0.6530254930739399 0.8561950933200158
P 8.954319559626304 2.212268142534561 11.933837150380178 -1.847539710092392 1.0691032610100943 0.28002681571544674
P 0.5999382316697388 3.3049194003077456 6.13521889977878 -1.1783751453647449 -1.9521967213828506 -0.9057430794514723
P 3.6243994550278034 1.206619712000937 5.2903870955788594 -1.6978961067889147 0.9881194249668593 1.8521810655191457
P 5.916514587312231 3.7921518100789955 7.277819192570118 -1.1983217636900008 2.0154222050014 0.4477730421569063
P 0.874832906138694 0.5306684354294128 2.9683353283600695 -1.4201388038339349 -1.5683081365847313 0.004890238212765771
P 6.837996738800407 8.807509771436843 10.696546800551792 2.1711264126766605 -1.4134691051232433 0.36530079449360314
