# total energy = -340871.3774659194 ev
CRYSTAL
PRIMVEC
9.29521671213806 0.00000000000000 0.00000000000000

0.00000000000000 9.29521671213806 0.00000000000000

0.00000000000000 0.00000000000000 13.60448923311666

PRIMCOORD
 96 1
Ni 7.022145851059925 8.346388904507307 3.7006525891124618 -0.453822847895412 -0.4052045726670763 -1.0443926456372918
Ni 5.915541002458765 1.6834659997396468 0.015700550602449532 -0.1025348227411331 2.1632120429255903 -0.028137124555848315
Ni 8.852978217060441 4.793069218875437 9.731658773966366 -0.0714679261329995 -0.449772074864806 -0.25618523321115877
Ni 5.312207074033098 4.443773564065864 4.415336707480656 -1.62043545340759 -0.9329348093749158 1.3660947296043375
Ni 4.104721238108284 4.819291025310526 8.52691316793771 2.1070267539832748 0.0761661029396172 -0.07750101970095685
Ni 5.569275588307767 5.475273061374742 10.726378028140537 -0.7066409644065508 -0.4979121249051425 -1.0286891188591056
Ni 6.825617083439542 4.264468833072287 7.979005687435402 0.03284481444416279 -1.1846964595970821 1.283165596909274
Ni 1.8581510080114094 7.585789203988311 4.969638367581227 -1.248390655321934 0.5086153702552595 0.28186284048292104
Ni 5.070354829568511 1.4633087911557756 4.2555928306033515 0.6054492859568734 -0.19850047690518074 0.4510229165527716
Ni 4.217658121549028 6.838388711245927 3.7584846391291924 1.3809006842689184 -0.10740397790797632 -0.8406026381983974
Ni 2.9418059664714007 4.7748691844905 10.843118514272964 -0.5051364105677236 0.6261559223766056 -0.45858581650169405
Ni 7.614697328062443 4.708910326474408 12.178521404943307 -0.2225742300249328 -1.5910099490576213 -0.7705369917295632
Ni 5.5979141510963215 7.05487430921588 8.173535983455805 -0.04516271257956738 0.8042210142455698 0.7885524544703774
Ni 0.5636470710150825 6.728212507178179 8.317608124902568 -0.183559025104 1.9932407838083543 0.0666080269375369
Ni 7.308996239782672 6.357017321719519 1.8149208139779758 0.6850544964850266 0.4239011206353151 -0.9493862700627198
Ni 7.932156865523492 8.236640280409787 9.193329084797172 -0.415233160547672 -0.24418100966143105 0.12788307169793459
Ni 1.8498689698924213 4.598631875022473 8.578405880134968 -2.077439527244461 0.2808732228761421 -0.7105086748920731
Ni 1.369250492922286 6.3843080780801795 10.39718978619179 1.012258226996592 0.4082567292298388 -0.31987582939158454
Ni 3.0102373521414227 7.256989502099465 7.802840880657979 -1.4774456079752039 0.5636989414929646 1.1634822874133124
Ni 5.393428677942993 8.297022008379422 10.54029615461884 -0.698555616295255 -0.5518554118908173 -0.9122461706773128
Ni 9.296796930940708 2.406903423715755 5.479575817205584 -0.8646128850700657 1.225479297941399 -0.09631918084872444
Ni 4.560921180691683 6.844393421262612 12.348318988251023 -0.5696703285850512 -0.6342412704879012 0.6355566468652152
Ni 3.7718316408520374 8.258019278921203 5.725436159130225 1.630277379198676 1.6991538904554155 0.767131308482124
Ni 7.087072940017423 6.860660050564777 11.746796697568781 0.4281760938615851 1.7761805416231151 0.5926287371534373
P 6.628967478001484 9.491438769562041 1.4505511061745062 -0.34759874922814976 -1.1418587956062656 0.7929091887771764
P 1.3137394585265554 3.4909301908455106 3.938499524682019 0.1565110198472724 -0.08311090968856655 0.8383395531958335
P 8.61794866168602 7.121418765886851 13.658907368301332 0.2683126126023121 -0.6443125386809742 -1.0117046684859674
P 5.621375278158415 0.2574709971596888 8.215370035934276 0.018364104329484505 -1.1044327895493236 -0.10367973497885369
P 8.5362158208552 0.6391846498859641 10.89330524851768 0.845558439541776 -0.6436301679019689 -0.5980393666460475
P 4.328326972104214 0.7234299878027132 11.671209854049156 -1.3394210769678931 0.05355659307021744 0.8658148757979669
P 0.5587122404456428 4.287939255351125 11.63479026532412 -0.19684648624152548 -1.26534270979524 -0.9679756030291331
P 2.0303077173287782 5.483694527744892 6.470227484532541 0.13472631987201314 0.47136445632360113 0.3979319502650631
Ni 8.760518696106937 8.622679927008763 1.6333006444934448 -0.4059046840578945 0.43681628603508643 1.4934705226485505
Ni 9.38482263350728 7.817779223487413 11.546088800500254 -0.805563130095761 1.1744015054289774 0.5178713416358887
Ni 1.3827750332849431 8.473157070463264 0.1465651185775287 -0.06226646213938954 -0.4559812889993115 0.014996216298516109
Ni 6.312920813485537 1.8671673682531806 6.718182038789626 1.2766105693995755 1.6158540046844945 -1.2683529573764738
Ni 4.167073552027667 3.395784352252962 0.8422758405276785 -0.25600756998271396 -1.176384083076645 -0.9995703471162785
Ni 4.522253079036251 0.7529385828785147 1.885895370949182 0.5240990677131554 -0.5404127172715144 0.7132109043145846
Ni 2.5865892585958403 5.417326680192059 4.329764942134525 -1.246573399607537 -1.8629401038078626 -0.10918986616380551
Ni 8.310918357411843 3.7912493486304504 3.4707363324689657 1.2559653823453982 -1.1679197543593758 -1.7911039957021668
Ni 3.4782979912902863 0.5498492512801489 9.629434627823189 0.5009889640582533 0.3041069965931021 -1.1660184235716047
Ni 5.248581315419773 8.816336472655223 13.449697136476981 -0.8325265460584823 -0.0980680452190311 -1.5781791158415401
Ni 0.534025074295003 5.564079562147819 2.608211791785952 -0.45999478103407876 -0.6203974226262735 0.9532066722500745
Ni 5.353208275091298 2.3864074707950276 8.73927912584668 -3.639355387149603 1.7207491001276882 0.8375548525110091
Ni 1.130976906904175 0.87051749756126 12.069835224119636 -0.7395094329997974 0.6330428793044259 -0.1862885082200211
Ni 8.99974968944969 0.6022175728947013 7.315936978125487 -0.4215611596482288 -1.0329808042559243 -0.4546579422021976
Ni 8.216618383543008 2.175629135905947 12.823210682185122 0.5808042337146836 0.6097026619165887 -0.7895019628678402
Ni 9.05367124178218 4.848570958054423 0.5395120407390418 -0.20153026487044 0.08587098893220695 0.10274848141383594
Ni 2.969347693684152 1.2357154091766287 13.792639510641965 0.14259415265586411 -0.011858442000482802 -0.7841643527050108
Ni 0.4512102702351701 2.2388366097657877 9.676533491065515 0.0967056176538657 0.3407621859222905 0.3500081300005907
Ni 2.569095660683455 4.966257697251399 1.1717141238068423 -0.846628018456871 0.06809875255045046 0.25236328836190736
Ni 4.8650885582086785 7.183715308505771 1.356064298449114 -0.9924525051245745 0.5538336186631106 1.3538999873103585
Ni 1.2147825810689286 5.907138126522105 12.77691492566949 0.3930028883945618 1.4673134046372085 -0.06498026152612679
Ni 1.861264905620681 1.218193925614011 5.053414297052399 1.3648174055538107 -1.8890555699479918 -0.2459941516107699
Ni 7.615031955865231 9.045937621451094 13.073002900792515 0.7306129018411158 -0.03970631745068645 -0.6691589083006927
Ni 3.0363290255420945 3.190192748307086 5.423620471449485 0.7717551804073806 1.4227268762760852 -0.008716553937391439
P 9.750589412387388 7.61103501266527 3.4081153867856773 -1.3136298269364022 1.0565156541530707 -0.8578053752299292
P 5.699157651872996 7.250808182964643 5.225688126100744 1.8131931142917226 -0.4981959746941484 0.35742576262090053
P 2.83457634611153 6.842134683593796 0.16137890550259165 1.9594654871301223 1.2561425313532106 -0.47801307198837034
P 3.780968838911482 6.6744303830968486 9.829311532514796 -0.4442051222999898 0.4457264440405227 0.7152644444095037
P 0.5780146875364289 1.478766736601204 0.6633401296388417 2.0106008723533564 -1.3672542971300776 -1.0406354925877046
P 4.185812708983762 4.837611897513137 2.6515962864173375 0.21362807657523855 -0.3873870848696812 -0.8926798185096111
P 8.769869684151496 2.9803718207426475 7.64346509436374 -1.4706141868756673 -0.624671367411279 1.085126118800912
P 6.186701065317481 3.292272818590729 10.660627382979513 0.4785568603069823 -0.41803900542758327 -0.2643603128227834
Ni 9.028341776154523 0.38022455900387137 4.323710967469097 -0.48588630408885997 -0.9193156759295844 -0.5058177529054644
Ni 5.619413987425411 5.3425838423527985 0.4424151361519081 0.37638019223621627 -1.8154160900849703 -0.9928407417019289
Ni 1.428228643163564 2.2405376344299572 7.383211109310869 2.6154572619212373 0.136013671224869 0.5774494583098377
Ni 4.285420251613475 6.026033243895814 6.3654722508699475 0.6979218393659979 -2.2583649713803555 -1.1336772882367379
Ni 1.9293895491381474 0.2856633895445266 2.4352714956970565 -0.1637551030041954 0.030963538261049896 0.4074236918055822
Ni 1.0702233702647752 9.049665003365474 9.561098982885632 -0.027092228231101727 -0.06995868857732468 -0.604760487419965
Ni 2.7622781502759652 8.352198414972365 11.494351624102624 -0.021024938991099276 -0.401966782456069 0.06579427278698992
Ni 3.958869992176701 1.2269314293534597 6.484552343056865 -0.1460368597888259 0.2158453959415315 1.4224607670988922
Ni 7.096293795027565 5.619534825243085 3.9320644461300827 -0.0721729226198241 2.7215324937154612 0.27785294799257954
Ni 0.9310274995219645 3.239132064464742 1.9012138881434488 0.29618928440792214 -0.5674735780440485 -1.0235314859175662
Ni 9.208250696236465 5.032476821336327 7.070415911612006 0.28087476553803886 -1.9461898530671387 -0.01616426846468829
Ni 5.875813246094506 3.1293090786332693 2.342190124743371 1.0615737854022687 0.10249522775244929 0.4247783810339459
Ni 1.9657431418242999 3.3465568843762394 13.081328626430201 -0.5281446985374388 0.13066037733275562 0.03816237000233428
Ni 3.1742514515909646 2.4598117974231393 2.8812401932102314 -0.4400409636199712 0.7276494483374177 0.6423973239361322
Ni 6.571114048986241 9.045946916667837 6.095844969252333 0.5299974354754614 -1.5577283041863559 0.24656570784352375
Ni -0.04527142363043645 6.064933725969848 4.940157658155658 -0.2762645204595371 -0.06691450243436217 0.06624884382590526
Ni 6.415549301557081 1.0311462790726031 11.242491219769672 0.13434862481762025 1.076452502286314 1.0076443823736647
Ni 7.286195073109409 1.4694064533399012 9.088819244856623 2.878233775196669 -0.37955807574356565 -0.17233076048834836
Ni 2.6901751539920262 2.411541736871058 11.021541129197528 0.059160569520556185 -1.2997489551892518 1.8356398733310129
Ni 7.456938909481676 3.9674030011477797 5.510784507423881 -0.9408489220156699 -1.087244193585179 1.866529620931334
Ni 8.028473901425796 1.8402484205622838 1.650292300701649 -0.43756087751059486 0.7463693933444242 1.1441002833422746
Ni 4.581110391459856 3.8437580280178385 11.983786614154532 0.39926095348913176 -1.5003739346366032 2.278229828625083
Ni 7.177840731523503 5.984148997246924 6.635140431441237 -2.0711925178934845 2.391626019560752 -1.617007144452331
Ni 2.260150541759996 7.0553111844028535 2.245189890410376 0.8951647897149937 1.4113888255554465 0.3620758597984022
P 7.232608148579707 3.806828131893552 0.5781550453092648 -1.2153131560416746 -1.010232454815815 0.6737593831871815
P 3.812935089294422 -0.3760091782104246 3.6688174012856134 -1.2492841136704809 1.8044693612654794 -1.0360617571740933
P 3.0796726212198062 2.96720979383301 9.121347855852582 0.44551227114718756 -1.1456570863064335 -1.2888680466106899
P 8.65652381117401 7.460071397524436 6.607455557890627 0.4787561208019819 1.6871416964858879 0.39697395722716794
P 4.950288514885046 3.6331284165966635 6.63436521036478 0.03950808539695131 0.12672864637851722 -0.13816876989465882
P 1.9475431074393634 0.03310956204246358 7.172450435333603 0.44367341816623596 -0.18797772299698592 0.03846858838884343
P 7.346985790615785 1.9488165521333043 4.323085399382219 -0.5566142667320414 -0.4031368915047703 -0.03911959170928102
P 7.148235466193563 6.131580430025004 9.493484646767415 0.8652278929462455 0.9138351124309876 -0.5465998199188328
