# total energy = -340867.309169198 ev
CRYSTAL
PRIMVEC
9.23896557406701 0.00000000000000 0.00000000000000
0.00000000000000 9.23896557406701 0.00000000000000
0.00000000000000 0.00000000000000 13.52216000659405
PRIMCOORD
 96 1
Ni 8.060480222599232 6.4206284772152244 2.439303146108411 0.3834273288909848 0.04921091450701202 0.33044743425984385
Ni 7.470710844840176 2.141934099342466 1.2900487963764096 0.740060677517577 -0.08578665674851677 -1.2967978429807279
Ni 8.501742465117449 4.150734702428834 11.058138415171072 -0.8965824959981269 3.6522430417455487 1.8322825268230054
Ni 9.124116152958932 2.6223510786499484 9.742405294048517 -0.13244703691953316 -2.376248251553101 -1.8575829532610073
Ni 8.550089972814058 4.144396771933922 0.5306889635669071 1.3714045718530254 0.02640060148071582 0.9995353801132851
Ni 4.689412599667681 0.7083394923254602 4.775283242804576 0.13218555572803042 2.2488333777408362 0.42217565330377615
Ni 2.2733491479716634 1.9364040675788885 4.04750681436367 0.6775319628557364 0.3764915210031 0.9551167447885938
Ni 0.05611101060459115 8.88929859981216 9.150824155108626 2.845995226877937 -0.22478872117774834 -0.285037895776793
Ni 3.777378858070391 6.388587744042694 2.9112535372154014 0.05225355798807775 0.2103380929700571 -0.964828315649403
Ni 8.814703190459506 1.329524125276717 6.077481279123857 -0.24619444054703402 -1.5758185860291634 0.06723254789541325
Ni 3.6855342996885816 9.183901500236738 2.788256110268295 -0.38783239993721597 0.17824069821488012 -0.0006831421099536622
Ni 2.505653702438236 0.43122964962546756 6.149243097685272 -0.024435250224228884 -0.6112278403118634 -0.19456180397240685
Ni 1.246087025714689 8.137431568214572 3.756374993366115 0.8818467324498491 -0.16853349822944524 -0.1923185164641849
Ni 8.81627381463463 2.1390700199642985 12.048393860172403 -1.289624208050424 1.0585229143910866 -0.542605354047459
Ni 2.0139651849328053 3.4774635523475976 10.118321255812411 1.556512943722016 -0.2069105553457469 0.7604592957785872
Ni 5.586922687127941 7.411091798945617 12.172094372412023 0.3191551491754761 -0.2637933845757199 -0.020663956107254734
Ni 5.69017736819374 1.6006046189373806 13.177087815555458 -0.23988572472018688 -0.7497678775030119 -0.17142007574862092
Ni 2.991937424988094 6.015019403472324 12.03665667810136 0.5037940376072162 0.8792386054030407 -1.8891401592419983
Ni 3.15502364816038 0.434000415449701 8.65158647870029 0.3656018706737897 -0.4231986952516517 0.069077571523952
Ni 2.3124854068294582 5.431209158613003 0.6075885709741246 -0.8170204800030832 -1.3548032158509182 1.119133843204924
Ni 1.5758072349018934 3.7615709876960546 12.52304849655033 -1.1736947091699401 -0.6452183383246952 0.22096163412217432
Ni 8.413464147509744 3.207362389054953 7.512046901439718 -0.111276316379189 -0.26518306583439494 0.6331099850969354
Ni 6.866565636395868 5.453364198447987 4.894319001244076 0.019576893690663056 0.4164657474031924 -1.4610751370369806
Ni 7.8921093110259415 7.571350898602679 7.409386285870747 -0.1513266474328555 1.6468126578495377 -0.20657811170699258
P 0.10647630841794932 8.05611943077183 1.2274945310675156 1.1994803027744763 0.29526600126270436 2.1326814784369015
P 0.624383162889068 8.62598807633549 6.579828791398938 -1.7145874514016664 0.13237941690639135 0.8658400726089476
P 2.8669434575454327 3.905199949028275 3.1550984837828415 0.2558255358788949 1.5977686079376936 -0.5044231865507829
P 2.8159166497853754 1.9621345871537137 12.962546096612964 0.2823330952511202 0.8727907928951679 -2.985075709953588
P 0.03177927044219982 5.439505749843951 4.644807796990733 0.6936872324593601 -0.6063671697854525 -0.9942455924692555
P 6.08955937903056 6.3342533865491415 7.575708918740362 0.7021610742583262 2.15699717236413 -1.2983055378745059
P 6.857077218584972 9.178099429754516 4.986756701226137 0.31406873579150424 0.46788935329080705 1.0908355104808631
P 3.1986592833316188 8.016262532586625 4.5738710180695445 1.4643070137107168 -0.3067855718665297 0.635988335085995
Ni 2.3712729458077755 7.668877420912143 1.3201946176764803 -0.5860819371738551 1.0341483422014641 -1.1199146872350068
Ni 1.5392024526557688 2.2222669064171896 7.8391072123915215 -1.2690114168960789 -0.7502425031465854 -1.224487366341775
Ni 4.981206854508509 7.787524218894156 0.9165617587045148 -0.10022880031577577 0.852978386154931 0.9542536254573499
Ni 1.3019920073833668 0.6833905892519024 2.2599859079310787 -0.9706356663597995 0.2250869691444575 -1.614359165306523
Ni 6.582190271041067 5.760181011575589 0.4512597273411664 -0.4733478053022171 -0.9076400393638691 0.4524110551495499
Ni 3.815323290348239 1.8682666952757156 10.830006177630889 -1.6711589479043862 1.3818982722954976 0.8956124187753737
Ni 7.532547242511381 7.915890408830465 0.1261774789534457 -0.4392585769279919 -0.5374994002794615 -1.0687571905245852
Ni 1.4444753369643206 4.68042308600653 7.40720958554334 -0.3794868561859981 -0.535211118465917 -0.5357716189550773
Ni 2.424332326029758 2.7665713337892743 1.3179957438313068 -0.025956571964761744 0.5425009672591108 0.8604618390161697
Ni 0.40178044634189286 3.4815102193399765 5.59533476543059 0.6757792418306878 0.04752761326731814 -1.5579149662758653
Ni 5.888861326346923 7.944383379160362 3.4053127733286965 0.21118835678549436 0.20027968029279056 -0.6206082530854989
Ni 4.475022399763256 7.426114357232391 10.186188850316094 -0.371218959750251 -0.4649559816940961 -1.3683321035752887
Ni 5.412601881620651 0.3811914111991646 10.692824166589263 1.656024406255793 -0.6898020384723411 0.27972034021862147
Ni 6.815806758642156 2.912713293801693 9.211728341137068 -0.7633551292691434 1.2720869704976092 -0.6601729027519986
Ni 3.4409142038958893 8.81487873080849 12.09747863733475 -0.09950117812113186 -0.002252543479602572 -0.05332493667538558
Ni 2.452104657032245 4.9050315820149955 5.0101636209183535 -0.8588312453912821 -0.9813759355954389 -0.4615263871872568
Ni 8.49448987701467 7.39377797715631 4.7477659072564045 -0.6997180120344724 0.17298459202226338 1.8738184412832632
Ni 6.35442204875088 1.673749510669478 6.9512555397117 -0.947123442170472 -0.4157689784464839 -0.23194255861371024
Ni 8.364830231875317 9.056921155160833 3.1939751277034545 0.07377986209562779 0.2914679676728529 -1.0947718694207922
Ni 7.72852418370391 5.4670471067030375 8.912158572732801 1.9927556166418197 -0.4641309146896394 -0.7925710887114673
Ni 6.363300694823199 3.0468538373230176 11.453891360266784 -1.2349895514246794 -0.0021792670395059245 -1.2986832329288989
Ni 5.184186931728943 3.7502070598407458 1.3508107023325149 -0.4550747180246421 0.0817615947495237 1.244688009659366
Ni 7.782987886717768 0.9152424343974107 8.581622562871106 -1.877577136994747 0.9603818498422751 -0.8301166510654091
Ni 6.1984775460925405 5.598471394297971 10.329848300235243 -1.0483768270960203 0.11136141989382757 3.337472909011646
P 6.72602248961948 3.5522345020492354 13.385018130617254 -1.1256978695756872 0.29846496781597626 -0.2532534042763445
P 4.983230188004698 1.835385216221208 8.925640071534806 0.6814485243013232 -1.1385628984638134 -0.7750806452361878
P 5.889175451181948 5.817785962939695 2.8588686014921483 1.0229704712077736 -1.1280504289682638 0.15790995707732805
P 0.5645331428511081 4.87456147301759 9.495842243761539 -0.4634685985152921 0.3900438057662379 -0.8569756802397822
P 6.539155168642669 0.038954251232795625 1.3070789819176216 -1.1952562373907996 1.6456975704084882 0.9655243132751629
P 0.06880165393959295 1.785984466430691 3.9388297843074 -0.5365480921097856 0.17110460139073114 -0.1662488159603266
P 4.3012097373714475 4.272153190131654 10.58369997059137 -0.6553376861468843 0.3811192495830985 0.2082598702847897
P 1.5198930142674796 7.717308079300378 12.533730588734318 0.7523839749696203 -0.1640456376614207 -0.3476879665078464
Ni 2.1324549204973056 7.855208881876264 10.285672185568448 -0.2656062694147426 0.4331702046420669 -0.12406806882721859
Ni 5.361833764901203 8.802470799825011 8.22351563145997 -0.2522321621006817 0.047346093384131364 -0.4892323377429575
Ni 3.514197680114027 3.3530516397463064 8.029566643246499 0.7879125068935334 0.552170629138391 1.904655738379094
Ni 9.172787024456301 0.2734586034411161 13.00925091620171 1.3341251186762764 -2.0315970149890497 1.2361354921036647
Ni 6.974162631357596 8.098036618316167 9.671927691724411 1.0014462239827528 -0.9006245272779844 1.372430184904062
Ni 3.7696920385780195 0.6685444952106865 0.5842583346975182 0.3353412720170354 -1.2020259520144652 1.8790362380387768
Ni 4.589594813855683 5.924144936492797 4.985187924844161 1.2215143997563802 0.27817947809406285 -1.8057664828103481
Ni 6.767209798870671 1.4657619140201186 3.1591691720861337 -2.1213742809541984 -0.5099353746182637 2.554233896334382
Ni 0.787331725471887 6.773926526960761 8.347986673441971 -0.330849811904585 0.49246087198258415 0.080440561945255
Ni 7.287982580513104 3.889586096934395 3.0732357039822324 -0.058370983739725275 0.9120507668370551 -1.4653459964981925
Ni 5.095317320314134 8.08622922010553 5.8859935513824615 0.49989393122186165 -1.6052152940237259 1.4639303470975884
Ni 9.10859469052241 7.650039169776391 11.05013377525738 -0.9784207096218569 -0.37715846516313756 1.1796429563335749
Ni 0.7038595178400624 3.795616576433301 2.8697678093709356 -1.2034200041485146 -1.5464858985033172 0.5747533995349133
Ni 2.6897400947285037 5.545162562001115 9.204669771314746 0.7889201222224413 0.2671311906997012 1.4337137143048921
Ni 9.213087392996837 6.186845688230887 0.03968505342251508 1.063144729433814 0.9284436063727816 -1.0183010907565624
Ni 1.4672309095721463 5.933319229468669 2.720158465517787 -1.0120916195117409 0.7008294999310962 0.8814122160155917
Ni 8.287222919692718 5.385559428911311 6.678108289415888 2.0245395939216357 0.23007028129166182 -0.9286852900699425
Ni 4.9206639120403475 5.008637343778762 8.58490886298341 -0.07516877202335441 -0.33357158171112233 1.7066535412665702
Ni 6.259066683389382 4.288081167060558 6.854680630873047 -0.8716919034040341 -1.242218465072951 -0.353707690339365
Ni 3.666446596477957 5.81033935655646 6.841144622173199 -0.6692136727980281 0.106601536611339 2.3978393474603155
Ni 1.7484003538165473 6.9232928860150516 6.016699047443132 -0.2647796597483892 0.6500378712005257 -0.5068744763047529
Ni 4.5727429403531765 3.4395283590354855 4.7392466569512175 0.13566605807746313 0.35160761327722667 1.2463414861023892
Ni 3.9816339125623967 3.9536675632794536 12.737752821289778 0.604638874240436 -1.2012924162825505 -0.4593476343683831
Ni 7.16796841560216 2.9207881498549773 5.112403863546335 0.3420212551403723 -0.15468785059560455 0.5392176685221488
P 4.617949199699539 2.161289732559435 3.083363458222061 0.10867847374502575 -1.4991688585849086 -1.95971668390898
P 7.58020182777779 6.245420730997276 11.92357081359586 -0.0770104532177835 -0.25126671286361885 -0.06516666650532002
P 7.411184188602977 0.08794294315148629 11.636386802657306 0.27109634599503635 0.0661961362110989 -0.18452781677517255
P 3.310848044264151 2.4222627977048887 6.314105050072021 -0.4158720796832515 -1.07990420828034 -2.7702111898680872
P 0.3027599832729144 2.2557212013473307 0.6198616130578581 1.4537035271632577 -0.6107701839491545 0.052620711519509374
P 4.3256560407089655 5.886523868015709 0.3036478478801463 0.3283987792609312 -0.08835724568917042 -0.48854199654415215
P 1.6112294295338074 1.3215047030178484 9.823808897252047 -0.2840109971741754 -0.806776690787888 0.6725324527586158
P 3.128018151313983 7.408763579580139 8.282120238916713 0.18368063828352882 1.1441259943738875 -0.12326254220678771
