# total energy = -340863.24181262986 ev
CRYSTAL
PRIMVEC
9.36125043964607 0.00000000000000 0.00000000000000

0.00000000000000 9.36125043964607 0.00000000000000

0.00000000000000 0.00000000000000 13.70113626812089

PRIMCOORD
 96 1
Ni 5.078796760806722 9.106680801006654 7.541777379894078 -2.591721608867194 -1.0283175944523 -1.4989053205108764
Ni 2.5133085748384225 7.013158789120703 10.951990188000684 -2.2309341288629128 -1.9086178083506353 0.8107104786246555
Ni 9.3287858339574 0.3007030295434196 2.3228221020872226 -0.9637679927056886 -0.36326448078986473 1.332302977865873
Ni 3.2681623823498613 4.717939270703655 7.260205002181483 -0.13814331597336207 -0.9137646642043683 0.2132241562686005
Ni 7.362211742152588 6.948912525901409 1.0015480375477337 0.9644673327655582 0.351086193556118 1.3563584761531802
Ni 4.184844129868868 2.657696504882775 8.082985916668274 -0.08911366423922072 -0.9492461449404297 -0.264429475497822
Ni 6.392142782169697 2.3199144976349553 9.113571617611013 -0.09849844788823037 1.4846112724857077 0.3330797296763683
Ni 6.8706524704572445 4.375598334388693 10.44866476036183 0.2584853420992451 -0.0037381268861935617 0.6034186286800898
Ni 7.439685452542049 1.7997753277014508 1.8225521866609238 0.9323704522310137 0.12665819815189802 0.9620294127480269
Ni 5.181714350466189 3.937351385152024 3.0544487744828643 0.3562463976008187 0.8687045386409362 -0.6225147260795925
Ni 2.042484473335523 4.76717944912905 1.5161537722213045 2.1343328979973952 0.21008483930867042 1.9203667213564475
Ni 5.7696664201171 5.003054881787735 8.54623489414421 -1.9559747003680443 -1.0378378752379094 0.2966729089125601
Ni 0.31840328227473846 1.1104596359991739 9.680264287033014 -0.3175813769304531 -1.519210607727132 1.7815317786326996
Ni 8.600752009561695 4.322173676922204 2.2387112649860486 0.7104317989075507 -2.4911745059800516 -1.3451476950390253
Ni 5.721090890487941 6.620323266793082 2.9976849589090877 -0.554020023642304 -0.3573548001736491 -0.14065014155561584
Ni 3.3636284164909602 5.7542578015452 12.900017770015308 0.4643718270558519 1.8192460053540218 1.259987616130914
Ni 6.5761756087219485 4.722563728525356 0.5829531618031626 -1.5075388278161586 -0.9793673898058423 2.0650995176218694
Ni 5.158208250080986 0.23903953537879588 10.425263505983919 -0.8973599975940998 1.5923402378332707 -1.7475657060998997
Ni 8.072571525318796 7.679015186691032 12.665672901838098 -0.06288301267746589 -0.04669226185021637 -0.5050883309386075
Ni 1.590027145610309 4.441754292740835 4.518072824799937 -0.7530069532656 -0.24804357794063092 -0.14594018630996158
Ni 3.665950006271975 5.832864223263459 4.681802034814766 0.010042471837666576 0.5880336615835873 -0.12139232176726836
Ni 7.684051539541387 5.736948849091102 6.741028168814924 2.0965567076898863 3.0182431978444924 -0.8003882707630409
Ni 9.240986664099648 3.8388710283012335 11.394824150056449 1.2736846540020321 -0.5863223353194355 -1.6480208192250263
Ni 5.878490958937484 6.918057843755 5.575005765700524 -0.036902015232671934 0.1589859637503262 -0.4318854243923723
P 3.4312072849420874 0.43114082386733055 8.67693012286103 -0.3675253129487477 1.4020914594139207 0.8273866537287557
P 6.53353511200566 9.156192455700936 0.9662729728438223 -0.3785481464218126 -0.18947564769875108 0.004925719436391517
P 0.6024629442853615 2.617049954555196 3.1279561229714066 0.11993424916450311 -0.11474242055091852 0.12395185496432846
P 0.6206097286727433 6.009351881790831 12.09932285418993 0.07348649922492506 0.252826601151571 -0.8735099304493794
P 4.016781596927591 8.167054628141518 5.541328666482775 0.005247364441868382 1.4648199487913933 -2.0769661871524683
P 8.962236703458395 2.9926326919326263 9.18476205656338 -1.1332664259515643 1.2070653142105856 0.04935206807056662
P 6.641451609512877 7.634464994841896 10.325272243278024 -0.300045939149851 -1.2169908008544137 -0.020961175632699384
P 3.6662308437915114 5.091031915407862 10.059141248514608 0.9512631753704586 0.2682254522051445 -0.21069084832378554
Ni 8.923125398237614 5.015009198869337 8.515009506472014 -0.1579140708423861 0.5623198017572509 1.597793804748674
Ni 8.510331689521601 1.4811558005366692 7.521896891886091 -1.1691384572578252 -0.776384965869908 0.17593236179667768
Ni 8.490476476890374 4.140827529306851 4.97271787680234 -0.32756599894699073 0.47451919990249897 -1.119381440439356
Ni 3.912104092145695 6.880734537408603 7.0722254723546785 0.3575651164122423 -0.25348531778149247 1.6743782261726323
Ni 2.4768745873038904 2.2809904174271995 9.785626099237513 0.5773648690158315 0.6451170368601405 -0.3476370586652529
Ni 1.2497456844386141 8.385499412087638 3.962656717912391 1.2454940505004293 -0.929400313859096 -0.9984313484158289
Ni 5.933666170275751 5.953961361687586 11.976752254913304 -0.5948090326342079 0.5930604253742173 -0.03406994510051552
Ni 1.869104750024355 8.30412206017662 8.78456578284871 0.005968301768292947 -0.8355869301513609 0.30985598326173736
Ni 3.0092582730891855 2.9470995687651125 3.4144880912790154 -0.29395422442981634 -0.6176918507696523 -0.0193704341068118
Ni 6.040899296485428 2.008334630959888 0.13054357645626968 -1.0848692655950993 -0.3185743369713417 -1.7771423913157525
Ni 0.5849920421949973 8.337448112494949 11.36869596336384 -0.3533366801531915 0.9606073355895198 -0.0316191695671778
Ni 0.49440415576824703 7.06372826513857 1.2609707600944868 -0.35633561488051535 -0.7643151791895676 1.1877293328861351
Ni 3.323487373698547 7.21294660051895 2.011847908329289 -1.2186887573821272 -0.474809220339092 0.35700127348897226
Ni 2.684853493021952 0.051612319340413285 10.846820281434535 -0.5977295487151125 1.2856387410401149 -0.9301238222886821
Ni 0.6758373630146561 9.09570941524343 6.103404367083596 -1.1178647466845135 -0.9390028699458668 -0.1045053162039426
Ni 5.5654320146595255 0.5467251217829574 5.362131862016941 -0.25736819777566644 -0.514938741370126 -1.0583830463791128
Ni 1.8403095430212153 7.501479068090724 13.221939010284775 1.061274766104611 0.2822384786547849 -0.09440010944914065
Ni 6.374131735916757 7.139273557893882 8.162191458428211 -1.2044916399461387 -0.42971747020677603 2.117531253059024
Ni 7.684117068295945 3.6202951868459956 7.253559450344185 -0.627468727650758 -2.614752522544729 0.009772763116047686
Ni 4.040662147338842 7.369110983882533 9.522371816799218 2.8757236071803054 0.12341346596235521 -1.6199515717926358
Ni 9.034589809741641 7.016716064368165 9.735109982348359 -0.7715638903321809 0.363972819710799 -0.2354533999804461
Ni 0.5474992972118129 2.1446063566896365 0.8273379713038027 -1.1103689525281006 1.0287138014494541 1.0113650257583615
Ni 4.136830275278782 9.299541286923002 0.8779608064503825 0.9061595981636006 0.9374586653871985 -0.5342009320338478
Ni 1.4600087353155724 1.2099135629176907 7.674664077388348 2.7745108456847056 1.0194264626102572 -0.43821188083103235
P 3.399266697720139 2.1375386124479685 0.8545932525748176 0.7984285759335088 0.45395783081137947 -0.37843990297872243
P 8.570927064986922 8.021721211781392 4.52880081804623 -0.3119015529368564 1.04281810206132 1.3110450969283616
P 0.7013945134175404 9.044016589147416 0.4553022117981186 -3.373951977774286 -1.7541595572673336 1.8071610491650294
P 1.3207414093774348 1.9025712211024515 11.564266531343716 -0.36668867598006527 0.3992344711265705 0.6701559821066394
P 6.262068204371052 1.6883670837013312 6.963506715666654 0.4177137608776806 0.7726607229407855 0.6713602868273858
P 1.815670731307215 6.41695945764607 7.656893615277145 -0.7003093657615681 -1.1924686473433335 -0.21998924290657595
P 7.025337776217934 4.9886479170355145 3.5567734844271057 -0.19588129411477878 -0.47420809641998324 0.3129616187702546
P 4.349733198839383 5.3175929036685865 1.377827251973614 0.2660122466039096 0.14808422923615788 -0.16872813073875456
Ni 5.150653720805455 7.254398218402534 0.49703373107617355 -0.15703038268585215 -1.0259364958146333 -0.47636473775166993
Ni 6.966567844629601 8.857671533684314 3.2132867310324342 0.14753941247628138 0.012220196215275729 -0.1062166424680945
Ni 4.767759846669425 3.0753112576841644 5.68723218300756 -0.41544167701405227 -0.28682532669451893 -0.7763440853296436
Ni 5.74301493951309 8.486123495337559 12.21357691838802 1.5810448674251094 -0.2973557939121976 1.9908378307938166
Ni 4.351296527698136 8.906125367055006 3.4622913177294494 -0.09957368323028014 0.2143850093459211 -0.4329393195781834
Ni 4.564386676271762 3.932530341066648 13.279744733056033 -0.010670849450284847 -1.4322476712823269 0.30449523317045624
Ni 7.647168211975596 8.2804849022823 6.884122374019279 1.8750523136903643 0.5448728099253971 -3.066847846226073
Ni 0.5496580016119833 6.4197959165933876 5.772329695927372 -0.2841549789512074 0.4301247329475238 -0.24894140716455188
Ni 7.639286038927272 0.05648859480463161 10.895609247578541 -0.11016997068888769 -0.8508590258190831 -1.2308385053707833
Ni 2.0520423102504144 0.8036877076585711 13.370720175259743 0.9620877767897884 -0.3673268237846964 -1.3057599372700222
Ni 0.7673005263772952 4.2079196127241145 6.734176669463299 0.6789195872318823 0.03860434263575932 0.6813485083883491
Ni 2.513374103592981 4.038387363430596 11.787073658093304 -1.042583874563327 -0.3091417308035321 -1.2960403959894131
Ni 8.7798046507675 0.6922803997835167 12.65749397714413 1.3448787576483547 1.348760094980632 1.4761855103158577
Ni 1.5543420581278742 5.144653159138025 9.707365107668284 -0.2625142607529801 -0.11993244939229024 -0.4308801230563095
Ni 3.4831715873069866 1.9166130970792752 12.260489889901525 3.0553897249878026 1.136544582482204 -1.472171246950142
Ni 2.2807844699128728 0.8471473138068405 2.1894551724345463 -0.08908152544970464 -0.25473513102819356 0.7551929051733252
Ni 6.809673283715224 2.337916182637243 4.238679746238945 0.47198512062673553 0.49781905097070395 -0.11486891882645378
Ni 8.74322088322255 6.3017973521348125 3.2128205407500037 0.6481681649816385 1.6912379780424485 1.2086943651735764
Ni 0.36156520065229925 2.128046304287636 5.607546409089215 0.7727625386259723 0.14317033687430825 -1.7025891413892098
Ni 7.412397406893755 2.2621181361143488 11.33974535959989 -0.2600478014903586 0.10843421894470359 0.8090171500826325
Ni 0.6409554708380958 4.43463038099526 13.670693027252367 -0.35367812265301024 0.3809217888603117 -1.1101879468655462
Ni 8.006958519504426 5.227837232424729 12.756676427793764 0.2599241314283008 1.6617775066894864 -0.9283258498479948
Ni 2.871198548485055 0.810285517117548 5.275238861222226 -0.02664305650882508 0.0974707779546644 -0.08475153061578308
Ni 6.783957928176335 0.15755265683515757 8.660693969731561 2.543614468947322 -0.545362347967306 1.4663114457352555
P 1.7948513098589112 6.16433674757236 3.2633226157631827 -0.30314206157667145 0.866634543485785 0.052913045948947586
P 5.278856048473855 2.8718070297773837 11.424282133605693 1.2679750052117646 -0.07416475623887227 -0.5521140648688427
P 3.696046427115634 8.251961171548045 12.194696211949584 0.7645560915557801 -0.5173964588819993 1.9130542468554346
P 6.004006607668987 4.705797728609029 6.453920483592265 -2.8649260023441694 0.11700062045747592 -1.1594636531722224
P 9.245442619409626 8.754650970267683 8.22967016149737 -0.8272820098300914 0.46192902194231417 -0.3015940003632612
P 2.464826657715776 2.91374543269483 6.138574585780213 0.32829670646542813 -0.45779365961770185 0.11219882819345839
P 8.179458285254379 3.1502667916484492 13.423030843898736 -0.7367966620543246 -1.2642304505676678 0.5288257837648634
P 4.857169151639187 1.7832995265553109 3.477855333062161 0.07343893381644127 -1.0112069029139423 0.907817702592314
