# total energy = -340887.64781901153 ev
CRYSTAL
PRIMVEC
9.06595321721134 0.00000000000000 0.00000000000000

0.00000000000000 9.06595321721134 0.00000000000000

0.00000000000000 0.00000000000000 13.26893893398470

PRIMCOORD
 96 1
Ni 5.070769035810373 3.38821875090004 9.629919125404111 0.3641926490310889 -0.7890849299350797 0.038784062746733204
Ni 4.481862837161709 0.4018574488331019 6.306355127518064 -0.23619182080836745 -0.22776785841073033 0.4870705542049482
Ni 3.5248336021491045 2.799892773266703 3.026220672629128 0.004024804888676939 -0.6865290241480241 0.9428104166174149
Ni 5.004632906016629 4.428419042078211 3.547862030290172 1.3775129987436083 0.02695364577070842 -0.32010517179357134
Ni 4.92789867673983 4.892713711732357 11.518009985207497 -0.15711780019333585 0.9826265201730884 0.9038700307984755
Ni 6.11734269220376 6.088712411478792 5.44106155481443 -0.018511428540626183 -0.5716979005380413 0.12315635564622661
Ni 3.7500862794425043 2.7253797025641973 7.3961461835998366 -1.3626288825429242 -0.2366736455407924 1.1659024668190308
Ni 5.401023584970961 8.107600500257265 12.849295374035101 -0.008558688203288487 -0.13946640566015983 -0.1465647072678379
Ni 1.9762599760587778 5.641371074616188 11.771154974621998 0.18170603105566124 -1.0132005363052035 0.2871037771668862
Ni 7.92483088042973 7.538095441808549 9.736203829672371 1.028008033631681 1.4793163426353555 -0.10908342249292825
Ni 8.009715401781179 9.250354855894221 7.73779482294888 -0.29959162522125177 -2.7918187408355335 -1.2786134587622173
Ni 8.540563235083834 2.715606604837308 1.9333907089795872 -0.6706030969463871 0.3163058526521391 0.5937775060459
Ni 1.347363857119477 1.3940263190863584 2.907662480696061 -0.03759647019653525 -0.07015769196200822 0.6983923512445133
Ni 1.8094555001060584 6.683783458415288 0.9369780659564266 -0.5386674524456336 0.6476542014596974 -1.6500753877612095
Ni 7.55819466041756 4.010940955598143 4.199792016942559 -0.6588744956555491 -1.3042892662617667 -0.4239103766066957
Ni 7.582699932361698 3.8848063464383964 -0.28626019726886803 0.5594267964801721 1.0606114214889992 0.7310978118973345
Ni 4.321712770978504 0.32705608081360643 10.907757999362211 1.1249345090471012 -0.3005329060885985 -0.8802063686329487
Ni 0.6822420017264628 0.32585484199281534 0.5847621513657678 1.0548660343647898 -1.6977143297954118 1.1962422554531527
Ni 3.110800577947531 4.762309038537948 9.750826305853911 0.8243591797563417 -1.522247851891559 -0.029496723907536295
Ni 9.285984052616552 5.090405890797795 1.7714428642442095 -0.7991495132599333 0.01695231158362242 0.3664423642972141
Ni 6.426065602123753 1.8691276051509413 7.846613461182506 -1.7084268311169093 1.0787994052519356 -1.3353073119098358
Ni 3.724484027141266 4.877165601712306 1.2506464534367334 -0.38560788148207137 -2.0815682047008535 -0.23283293163846353
Ni 0.42306996651526796 0.3074835940950714 5.484609861800619 -0.21121663892026848 -0.13275094131319717 -0.7069502681168535
Ni 6.717300288003701 0.8219592222168454 0.974199244089558 0.08575348951773618 0.3640234704430763 -0.3681305506329144
P -0.03159031449846464 5.821656623221862 12.886886443065503 0.7338846306138522 -0.017740611812872672 0.697897928106598
P 3.751890404162032 6.2875015709013296 12.890177384136804 0.3249678992025113 0.2814375800200444 0.5368239714789915
P 2.324048079026234 8.740839210858143 1.7159655758210628 0.3459812682293848 -0.3519115176708907 1.4158972549487614
P 6.38590342871919 8.26532995689216 6.463538813760416 0.35154796368388486 -1.25776438322735 -0.2117745683062675
P 4.614515866790503 1.2596598242716808 12.855531843354514 0.13188370821689543 -0.23799262146253206 0.35189480550034236
P 4.03621683357826 6.316557951434428 8.3602015324699 -0.7243278401633526 -0.6148937191992249 0.4486629009610273
P 4.3121572561323624 0.9464583333896436 4.136326717009986 0.4227803767673106 1.3796544705666434 0.05002029778218483
P -0.04497438145041853 5.697879161936875 3.8828363147722986 0.8130090448508449 1.301410916272707 1.3123751285936947
Ni 2.422323013496992 1.9589440051326572 5.403404304324468 0.5180724019031013 -1.2375544839383783 -0.8824622545466609
Ni 1.7766730127401673 6.597076680437582 5.190915582772893 -1.3097178934765057 -0.6393842481414214 0.8130231859182321
Ni 6.861358286964988 0.7928556987262523 10.009768972444984 -1.1797306309513746 -0.7086474533136182 -0.45595917751212445
Ni 8.39801925033441 2.5816571438773956 10.721807136499084 1.0625803722899119 0.34667340920040296 0.3397152327150149
Ni 3.565884238983384 4.365873029816794 5.484026014403947 -1.2249424516013228 0.9879242782369181 0.12217959355525411
Ni 2.037844997263562 6.726638219969096 9.543432650093163 -2.8268027131098865 1.3021030572437253 -0.31331925921998943
Ni 1.5109680515345418 1.543469494346135 12.03458256834247 -0.47710855789622997 -0.5554572703094628 -0.6366971882275615
Ni 3.979228250729258 7.06310294718434 1.8201007425466087 1.305357559625281 1.1297496710475576 0.4877467543363665
Ni 5.3458209949347575 8.048762462921912 8.476344554426673 0.10260012876142975 0.8536833826417556 0.40203028870415275
Ni 6.9168509875088535 0.8271014309651676 5.13588887223196 -1.3683732412258691 -0.41699822286789473 1.5769971797182971
Ni 7.9279314364803755 7.628020633230639 4.725082420832798 0.6229466714106884 -0.9457167916309327 1.5123023106430729
Ni 5.185661862798187 4.562450096618404 7.585175844225532 0.24282886650891078 0.9934516358130503 -0.6234788897650746
Ni 0.6204303316875671 7.550289149083749 7.304059668895659 0.2591651417750891 0.6625876828410783 0.1513731844000748
Ni 6.507731710030819 2.047772216197647 12.025028866687002 -1.2067087022021155 -0.8182780065592682 0.07385365275635668
Ni 0.7009514096847009 7.675045733332098 3.027003064404481 -0.03921960762225504 -0.31051032901628456 -0.5779245981740434
Ni 7.144905044391872 6.410009798715292 7.62357650289138 0.4195425865563033 1.0864834041597546 -2.1358575621720375
Ni 2.397863071319676 5.790442545788022 3.101787207112584 -0.3092458604815642 -1.5508508603402322 0.21226462056880865
Ni 1.2032605283913682 1.369774893836425 7.788124463051685 2.085377036923983 -0.4773289014371522 -1.9704731510945352
Ni 0.8218966671386305 3.745353851786256 4.551007050281782 1.4707301436282412 0.009458831420054678 -0.8910952476313106
Ni 0.6393981193166925 7.64785693919208 11.807843074697299 1.067374965465078 -0.4715503470821621 -0.23688061934527588
Ni 2.054834593868562 5.471049008758058 7.501820749206668 1.13659729009701 -0.27216875312360866 -0.0436511610310474
Ni 6.048051610639184 1.8956001889751677 3.192426795659793 0.26711782096326253 1.0846630631215641 -0.778608198773472
Ni 3.9672974561016274 7.029069358254152 6.213618583957654 0.08284480051137345 0.3423634689711394 1.1764853845411996
Ni 8.115143373456497 7.791615761692339 0.6422049384783296 -0.2649956324139372 -2.558872680657974 2.1092178480973223
P -0.06713066487782497 6.044706273847698 8.744734851018851 1.2502374787226855 -1.7867426334096776 -0.9801970847959894
P 8.501126337948428 1.9538126755283725 8.582920275797932 -1.2764249357513306 1.4142682039857706 1.2915062555644856
P 1.5718005986100756 3.394927556389742 10.977366389294543 0.20610091496025795 1.71670244086214 0.43414773806398776
P 4.229593618842215 6.277674077454254 4.232950741373076 -0.7443937576752921 0.10697768900383513 -0.7747471731561689
P 6.683266699073514 4.012817607944586 10.916210187683896 1.6902452751118764 -0.3701061863020465 -0.225569822318147
P 6.016601818417868 7.734110419501563 10.668890073306065 -0.4276832133855667 1.6255244378947231 -0.33539346541120946
P 2.292135923183331 8.583236677570351 6.170626926508043 -0.353961458221384 0.37690418306048634 2.190058987915106
P 6.597013218764031 4.104474396459288 1.898214809925478 0.8109272226211517 0.17692506472725011 0.8825270463463254
Ni 2.8994732050219434 1.925354647917329 0.8893709316489685 -1.1292699031976616 -0.8557423220533132 -0.20508712898376294
Ni 1.0621308323668026 3.5108176382476475 8.870485063755947 -0.02689888127337303 0.947734850502226 -0.18885626894719731
Ni 0.26978645341030577 9.51109167465612 9.89572290550141 1.260364025633726 -0.8914426036684001 0.6315624381041575
Ni 2.882755587017877 1.983023177268666 10.008893201349977 -1.3894907399307748 0.19515007237570905 -0.38672554002628234
Ni 5.179016518982038 2.923497981437765 0.812906867782431 0.3697115219667891 0.35788059077013207 0.7495704167802252
Ni 3.973462304389461 6.885963284396135 10.732514934017852 0.6960994414452786 1.292185283909381 0.14367247332170743
Ni 7.223887630103057 6.536026550481301 11.840272896477314 -0.1278912992280507 -1.2140422597490512 1.4583502819066496
Ni 7.751100016106562 3.963924921450048 8.51707969608387 -0.6974392433026246 0.705296020342882 -0.5278541638802136
Ni 3.013114930445463 8.699398738029192 12.822306937464438 -0.5035047885015715 -0.6362567582560332 0.5525534663991064
Ni 8.717811689312413 5.064214351527867 10.739335250733935 0.7787670929488394 -0.4496152375719676 -0.4287034271199649
Ni 8.469105390665153 2.493245966667171 6.147711822784031 0.05738136613294634 0.9162660904699833 1.5552014239994443
Ni 3.5924474823412553 3.2562094039601224 12.316839240605594 -1.2769550972231878 -0.3119663447365208 -1.016430613206727
Ni 1.1075149949092948 3.703224366501605 13.180236215865381 -0.7585942175453902 -0.034586222615301726 -0.5393850473379485
Ni 2.816710116757778 8.700341597179095 8.399437165440613 0.8243851478982706 0.5007547365602601 -0.06592334216568646
Ni 5.578562149707202 8.097256247468415 3.779126341259546 -0.39551511329345435 0.1589584529465004 0.43124573392584437
Ni 2.7249173389426096 8.494961489660595 4.137016636061022 1.3367062491398913 0.36985061864781466 -1.6566743811349662
Ni 5.072781677457282 2.6125448469901147 5.561503651856633 1.2830380701924742 0.0006576881886569319 -1.1150879552703248
Ni 6.391859760079641 5.721903938352696 9.548129720531291 -1.9809216001213692 -0.42276315037612994 1.9326195705818718
Ni 7.947831204115368 9.212549830364418 3.082931837305178 -0.289236764349489 -0.5046818395288083 -2.1697279896672375
Ni 4.4203231457237475 0.34115545148601634 1.9119742073467207 0.24665286824069133 0.5359222856003287 0.08205881427496835
Ni 5.946812109418247 5.747932290462065 0.5523939780686324 0.05904872653304024 0.485442531683222 0.4183686208528601
Ni 7.933960295467743 -0.16496408741973384 12.048170619245125 -1.7349554735350572 3.0113896652577687 -1.4047381530081486
Ni -0.05457250627737348 5.288379114417532 6.479289094540495 -0.9432333630874464 -0.9761493970891768 -0.9002550597537076
Ni 6.964066472630966 6.026737554279335 3.2149312116963946 -0.31638555685013897 0.871939500638466 -2.542855479294111
P 8.444545723000825 1.8637152309923581 4.079654535933403 1.2324019932031614 1.3600536656165803 -0.48824837656313336
P 1.9315648259719846 3.6583750952076164 1.8883555856416268 -0.3517775631961877 0.03732239059954218 0.9701996072636451
P 4.512949991248447 1.399447759198306 8.919407667896587 1.927277075323036 -1.5910261470075375 -1.201103697310512
P 8.527970625860597 1.7719768488973762 13.254038515824112 -1.7116224552360715 1.8098882182882055 -2.107940009826163
P 6.1862348718203 7.848205442593305 1.6628499682493583 0.1875151815382706 -0.7701698381981317 0.6495102808318297
P 1.6726683957430697 3.4942450754974126 6.634588875673713 -0.2585876720050644 0.5239165193887041 0.2055733245915621
P 6.731234658324877 4.022527243997924 6.185886739211105 0.3151449995748185 0.20374938400894588 1.0059703371053512
P 2.224105009136415 8.67285362657805 10.711563515792582 -0.1853217734313776 0.3878642816164159 -0.4091463309236437
