# total energy = -381160.50632880937 ev
CRYSTAL
PRIMVEC
9.35712071488490 0.00000000000000 0.00000000000000

0.00000000000000 9.35712071488490 0.00000000000000

0.00000000000000 0.00000000000000 13.69509199850110

PRIMCOORD
 96 1
Ni 2.103826884569573 2.644631016543327 4.803320569577647 -0.6503260918649058 -1.2750473386775139 -0.7183909058536273
Ni 8.368297365272612 7.544271912332328 13.742750365539381 -0.5002423157002159 0.24133171313809407 -0.3587956463852337
Ni 9.13216589101276 0.7838684349324891 3.161922576317904 0.16338177882517668 0.23499548650742108 1.0166843810887458
Ni 6.330962178429622 8.810636519034038 6.02855221061143 -0.43040524030242006 0.4309904233819287 -2.614356829768207
Ni 0.6484484453211499 1.7818202994492736 0.7790476464905057 -2.5027254440424445 0.5628610189727016 1.380331699139326
Ni 0.6212772390365388 5.839105143389128 11.114498052584656 0.2907514012218025 0.28753315139482094 -0.15316858573760075
Ni 5.79185168525245 3.3269148093144234 7.437351840105681 0.16326710762418334 0.916857187086763 0.2787320081634232
Ni 2.6598550514717183 1.2599456220914595 0.6671711075757399 2.3134670545608222 -2.7063771261312617 -0.1653808115330765
Ni 0.9969824668409507 3.460590631678896 2.8883362822510446 -1.523887187267195 -2.2825893911453594 -0.2260688734417526
Ni 2.532953784293573 0.008657207815456392 2.7688046831181365 0.9711221190779146 0.6965352434311165 -0.23100024930509894
Ni -0.4204575276519944 3.421608867996242 11.12535792654771 1.3075918482724385 -0.6647142422657779 -2.0422424105180377
Ni 5.683599159077552 2.0899315607412623 5.515602354713174 1.8995104467327288 -1.3901304303973028 -0.4164264095248248
Ni 4.746296406295162 1.392966446026315 8.098962011013969 0.06331315823634902 -0.6625411458738589 -0.044268482900072154
Ni 3.9023402868536645 7.296607648973596 8.572086090967408 1.176946126227702 0.6612645931542807 -0.45589798525688574
Ni 2.9213491388157995 5.481270144168761 9.655450686418334 -0.3642016478921534 -0.8108202647296422 0.7237699107773535
Ni 7.277986979331617 6.7647582812447515 4.871316892268263 0.7919334551274684 0.29047012253595783 -0.10956164768092745
Ni 6.523204217522307 3.136263480693667 11.38885163052621 2.8503396198895623 1.6787853541013924 -0.05235280257010339
Ni 3.12753328733891 3.2039528898344054 1.6107618452824555 0.15085664977497243 1.0070635701695303 0.023596556373017427
Ni 1.1567740123063082 4.214493824168435 0.2863044921459435 -2.01630280783414 -0.9529829862750427 1.596900346400127
Ni 4.0244226370139105 3.4217492248025887 3.8849687927881713 1.8305190071646797 0.03580441129311898 -1.899737218031554
Ni 7.844410907023831 0.6113427842833286 1.2204464096494083 0.38017591183322264 1.854895122016199 0.7337825578183492
Ni 5.065823354503339 1.9095637074654979 10.595248983217566 -1.9805896707032473 -3.7993854758937275 -1.7614550624874827
Ni 6.360680392893402 8.605294511349006 8.105495152493381 -0.18773141131413473 0.45910697911248677 3.7708416028177636
Ni 0.49172135679435913 6.416205545484105 6.544062174657449 -0.0834945182802304 -0.8094645220326963 -3.9268170618765406
P 3.7126153131547954 3.312944628522728 8.722019910067026 -0.04092810567292951 0.1611408053097999 0.11296501693552158
Ni 6.076935073183178 7.981015508080736 12.535350588895907 0.07512120661487062 -0.11056309236224832 0.027754801515765103
P 1.8662495970269466 8.903300082584042 6.938302922307988 -0.2540064803922852 1.4359598300265914 -0.49815637970546467
Ni 2.6667793205848156 7.763864814421748 10.625295632608196 -0.2780010435346696 0.3388408005298616 -0.0992983180817064
P 8.34053478897726 3.2759840028514646 1.5542289308221846 1.27883508785472 -0.14904530759784654 0.6222599297563091
P 4.684399054696325 6.756383658466073 5.155133326093703 2.026094854223898 0.04570495823628258 -0.08713828568040477
P 3.994517280141668 5.1072192552551545 2.2561018551990504 -0.4397108339740621 -0.2939740219241582 0.8886082195433986
Ni 4.9636155281217675 1.142008476278649 1.6666790612188864 -1.754945286393423 -1.5256779606190305 0.7823676658159042
Ni 3.8423143593394484 2.96703995784182 6.154451330192261 -0.7065003250636284 1.699520786876531 1.675390726597547
Ni 2.9041694657189794 7.95694899435251 12.933302370506249 0.5630029438672045 -1.7041559716556973 2.221131283839878
Ni -0.14789677398350692 5.251178552964618 8.403787051613364 0.3443763856361101 -1.2542566271844076 0.3984299729474041
Ni 0.7836045641365577 3.972855546362181 6.174911609709421 0.7652996545900239 -0.4913213590615022 0.09052725675729571
Ni 0.6063872533072523 8.528538052518279 1.5710053120287686 0.35411521019042885 -0.12488105164681718 -0.21866821010230725
Ni 6.028914331171805 4.73890428116091 4.988340783127779 -1.2451711199433717 -1.0207564942755905 0.09643899425604036
Ni 2.161363818051243 2.01147210599353 7.376464121800497 0.5770144276549481 -2.8311761595872333 -2.6833333569379203
Ni 5.666363343258193 5.57949183725009 9.051072406865922 -1.0819999144671044 0.24551258398866108 1.458327141978198
Ni 7.3971218365585845 8.441048976562252 10.587058695711221 0.04595204125008215 -2.791698927428218 -1.537315801968275
Ni 8.758395715711844 0.3327981521042657 12.916074040383231 1.974803660149089 -0.9092878593799373 0.20607391837706446
Ni 0.1402426494774074 0.23043499752367047 8.219889692514004 0.3277940557973968 0.18256657928374365 0.8290774111676172
Ni 1.3621534484730315 3.42850506574807 8.553831284733974 -1.4107748461205316 2.0159392538471343 3.0894087622457245
Ni 8.83243860961987 8.657404314985277 6.173651205588429 -0.6375109423781086 -0.2169391432263425 -0.9340311277628881
Ni 2.5679400575555613 5.087569302366634 7.271039317417462 -0.8310687305660333 -0.5349925746972076 2.2686509266873967
Ni 9.102082748852478 5.641071046754541 1.7833062101724624 -2.8031421362681535 0.18146537579976488 -0.2747156879151785
Ni 4.510169472418117 4.091709689976455 10.906729743573914 -1.3460180134591204 0.4692592370551402 -0.5969530755604042
Ni 7.776113285055591 6.056377479613617 9.917479065338574 -0.2229858636410547 0.7506199410906621 0.8188135673477639
Ni 0.22168047565581378 1.578836286110865 5.651087844167475 0.3066531600537235 -0.47759423928339684 0.261788181220233
Ni 2.9662633168467023 7.15159099665632 1.7424127867873684 -1.1779804810294874 1.2645742070603319 -1.3821461266402455
Ni 1.426362008816375 7.2384905740256915 8.418003324672187 1.7023970799830614 0.44062486114789917 1.7000296081921495
Ni 8.321923476455707 3.07789376349434 4.295944750315433 -0.03860999906271415 0.3442087497099943 -0.40185776768203046
Ni 4.8886743506531225 6.466593638962523 0.9112974437024971 1.3941452079836505 0.9993805997029757 -1.4675859415723047
Ni 2.712329782804489 0.6315027002349074 12.105858761475407 1.35518631022195 -1.0148018193540522 -0.4569734777092518
Ni 2.5488047462903127 2.193131241887683 10.533470467048101 0.8745843944604808 1.5379912307687449 -2.3572997354750562
P 4.684810767994942 -0.1917011975322289 13.64666583876269 -1.0814401853088924 0.15948810019772533 0.14270882385685743
Ni 1.854749696026951 2.6181410086255177 12.622806914930456 -1.3681436417135662 0.14249773628731588 -0.2710420957183332
P 4.237493626168426 1.2226200687236954 3.955759151637127 -0.3212040612847049 0.1660140742417012 -0.9499120606592026
Ni 6.1937025789431 2.78442639566451 0.999629596208647 0.581222809309341 0.42781999607374704 -0.7218112443890858
P 0.7768505946151607 8.067325586863452 12.052173218759885 0.1402048264880811 -0.1510533391668108 -0.1893352654661449
P 2.3072319683270206 4.542404752275713 11.860579628112522 0.2330090522050116 0.5640452690887898 -1.1227015059515244
P 8.730099783552376 7.397187336401547 8.018065026396018 -2.1467423274053417 1.0503660896119071 1.8471895258418254
Ni 6.3605213218462096 8.457704650915378 1.3070746305265106 -2.5671673165665982 -1.5271519740613957 -0.6284326342259241
Ni 7.729533539589376 1.6940972954826676 7.121200940946161 -0.8869830252351497 0.016111817960198057 0.7437268135152546
Ni 7.9261359967992275 4.447691979353048 6.228158303477098 -0.7022214951826165 0.32663577382323744 1.1828660912565627
Ni 2.969201452659557 7.187803052693734 3.9427480756887996 -0.41124178000009176 0.4551158556752226 -0.23349550492312693
Ni 8.138102845743816 2.6785037924749657 13.163900181925284 0.2525296387364425 0.009225889473642175 0.4850733212692614
Ni 7.947320517437136 5.0454154748605475 12.41369679485104 -0.5195584995303245 0.910137351864426 0.3532695743606819
Ni 0.2433974164457973 7.29888142923641 3.9782733190871586 1.111485582631047 -1.8985501397019884 0.4669390735623958
Ni 6.7749481853855125 4.24754317350284 2.663133786467974 0.5114872924864159 0.07591979125676604 0.7886820380697062
Ni 3.82275797765516 0.3652495814436348 5.910171537290565 -0.4824176288139692 -0.4948111173823155 0.40605920735788775
Ni 2.7500389781096004 0.26446310165433273 8.781306625067815 -0.2544430537090715 -0.7785241237000979 1.387211971198927
Ni 4.223813516109847 2.5554202304294473 12.92712573531496 0.5182780901560042 -0.21994013483619543 0.2111551895547138
Ni 6.962249664894798 6.571599244350603 7.188677007741252 0.1712328994384793 -0.6923636285519302 0.24725116394632254
Ni 3.114377176024025 5.115752949081025 5.13605696468712 -0.15558799381237076 -0.5194304585928925 -1.398687061718062
Ni 4.869726181796335 5.372474905009323 7.001779755834246 -0.748342457910395 1.084002289609114 -1.398802504250004
Ni 0.9722983831648007 6.399783799141556 13.566398588349212 0.33169621906528035 1.3747927715989678 -0.465015888397754
Ni 7.073795897458628 5.834314297732497 0.8426620296869825 -1.3166195056923453 -0.22577319657820472 -0.6041349380208241
Ni 7.414516723425137 0.9783805114398186 11.366350563044769 -0.8615316750415809 3.385605502852814 -0.9503656032568535
Ni 3.0669272183584613 5.386173729308749 13.694639795171947 0.3204383867632739 -0.5787483796269194 0.682367950791799
Ni 7.894696072177595 7.74183815294576 2.732896733494473 -0.7565190801839164 -0.03095556784124991 -0.7602656917105423
Ni 5.173841952667658 8.555046774676935 3.7543583630743074 0.07239892258770111 0.3733336921004086 -0.04492591397841295
Ni 4.471290637060118 6.104285936179912 12.09428587493611 0.7511567874307387 0.4915977526513405 -0.7475037640591836
Ni 1.6199795446112562 5.458794340912464 2.563981059904546 3.918423695606523 1.600944948783146 1.592015250393684
Ni 5.7773762199579055 6.235800263726648 3.1359434671751965 -0.9040152981270883 0.7668657135255632 -0.4307595383180452
Ni 0.7186062628295037 0.6864037328933892 10.875792296319002 -0.9725051154683704 -0.19850356222897425 -0.9016136306641311
Ni 2.857318363760495 7.172148590225881 6.270228852611419 0.3355310194303383 0.5562226877205775 0.824631716691438
P 9.257869446776745 5.079774821054188 4.516477107295333 0.12734673957849035 1.0036455456269167 -0.5187352322980808
Ni 6.492709362063408 1.9372420696770412 3.3258116048165394 -0.35433118285597687 -0.662149309752079 -1.210485395635728
P 7.55615545526967 0.891932882986882 4.82393149873362 1.0133193212712548 -0.529340775728069 1.0118309096511864
Ni 1.4647449167919506 9.01429424504291 4.710412785184599 0.506924869926714 0.7808985374695454 1.5216953218221987
P 4.572188466582455 8.905265077872894 10.093953420806287 0.49404235753709114 0.4234293232052191 -0.879047572438157
P 5.829064953175137 4.077112582116413 13.073087456794967 -0.18450107730229515 2.2427046391352796 0.06651289612056932
P 8.452230735467861 1.750024804251564 9.452817565095792 -0.23571359562036825 0.7878484864248173 0.6297801493927542
Ni 7.201595448197391 3.901217432402892 9.02806418345755 2.031209035522011 -1.3346028296436436 0.9348171139992931
