# total energy = -340893.39024728077 ev
CRYSTAL
PRIMVEC
9.03943802111093 0.00000000000000 0.00000000000000

0.00000000000000 9.03943802111093 0.00000000000000

0.00000000000000 0.00000000000000 13.23013126429661

PRIMCOORD
 96 1
Ni 6.286675942727411 2.067988362035453 11.67963893304155 1.6742851522381939 0.5646715898188791 -0.9644819880535775
Ni 4.708480482894694 0.3892788726729251 5.934481363965728 -0.8877165609670646 0.15950172704448015 -0.4660101339902233
Ni 2.4685077757147473 1.66695370039688 4.823732411947454 1.108770497692729 -0.6551415109756781 0.43992269287455205
Ni 3.306011695489655 4.107701362375753 4.4748272846310595 0.5464851487178395 0.9651566455230992 1.260399763967668
Ni 4.970795930794835 4.419914507384987 2.6882302962583053 0.006514146969433943 0.3693384548980865 -0.9074947720352565
Ni 7.2770186782125625 6.130149036361276 2.7562592978712788 0.12693844839647814 -0.26053888219416416 -0.10179537347194727
Ni 5.20117504465758 4.561164763730402 11.639816593395826 -0.3310015069911009 0.18270130508939503 0.21814010551297913
Ni 5.589943189090167 7.715829150760357 12.475060653700211 -0.2137604883880448 0.7640837799050518 -0.0027024865328276037
Ni 1.8533197912117672 6.6477472494892975 0.39868621567680795 0.2278043680756206 -0.48145706467291277 -0.5898041232204486
Ni 2.4674592009204255 1.4400818884323834 0.41642520857660587 1.369508126161261 1.4313069046356124 -0.3130174117088545
Ni 0.29200276979247486 0.21193414086435616 4.916608116466906 1.1113577988039312 -0.7051391830500436 0.18021401989116706
Ni 8.709661109267993 2.2016002933705088 1.1290167520341736 -0.12955891673846073 0.1736978160392041 1.1243472690850635
Ni 6.990531773415735 0.7117490678469577 5.09547870538997 -0.10157914369608312 -0.03059895583277956 -2.0600357299457164
Ni 0.7994777164363529 7.509558217729125 2.4011232860227665 0.11844712309601535 -0.09401238709241873 0.00868595780977214
Ni 7.735435691526593 3.8413272068665574 3.858606996321946 -0.5919957315551289 -0.10237001502849467 -0.7471618073387326
Ni 7.688701797676228 3.9104608277887216 12.585717836477508 -0.5230318027909056 -0.7403856649571636 0.22466736510853566
Ni 7.905720622349256 8.621318682846404 7.076571855008757 0.03394087572181896 0.5251300800808312 0.3694757518068992
Ni 6.806253792751608 0.6082601593101525 0.484399973562287 0.9391129131611697 -0.17608251422129675 -0.7106210321002212
Ni 1.9955734251620931 6.280366415085717 8.998446743118233 -0.08793558477071951 0.3664045690807432 1.6382352005931722
Ni -0.005232026646149126 4.798034193992482 1.3248516540305417 -0.6644663879210299 -0.1910951855800451 0.941902560091165
Ni 6.542049102334112 1.708218734328585 7.032264146285942 -0.7360548987922936 1.6308178250831784 0.9323838219674523
Ni 3.3629149569573618 4.330830847057068 0.2647904459922549 0.25074400759092946 0.011118221400348594 0.5199109977737368
Ni 5.854970468354933 5.3263893382001815 4.689671220549657 0.27699779908113586 1.1384757380666457 0.7450856415359942
Ni 5.127856163996012 2.853678223870266 9.422842928019259 1.780127184975689 -0.6765032644809059 -0.5443963845096108
P 0.0337632044333649 5.602128351355215 12.570318250101595 1.8167803174223485 -0.5346639877131953 -1.25512514583229
P 3.956860262437449 6.264963212934648 12.52663245470507 -0.04566690590949554 -0.22267604571011973 0.32423899145628676
P 2.5355623259240327 8.644776024150406 1.3964539454383023 -0.433572325176492 -1.91246212179739 -0.07935632774214076
P 6.381852184187853 7.7347396548096725 5.757739562663892 0.25822077558394885 -0.14029430087809386 0.0698843836959635
P 4.72127128749784 0.8714479129659142 12.664833708652857 -0.3834918635803331 -0.4407570158503893 0.28567347247826286
P 4.036434434113418 6.014064575079578 8.12028433569351 0.5421057887032212 0.7354715154849978 -0.5882817730386515
P 4.522638679476968 1.3781436600643568 3.620544360259431 -0.1272464665552002 -0.962416877994433 2.286337288223566
P 0.3454168082376981 5.658751390248576 3.5064341122111795 -0.9034445132252827 -0.7932012660962985 -0.40121113523696705
Ni 1.49147109279202 0.9374710633128537 2.8033457297990445 -0.7958865262379454 0.3627088653967108 -1.3087832974773783
Ni 1.9102230526794741 6.7340558023874175 4.576937678890848 -0.1523427474021957 -0.9575970880082865 0.6950630297609642
Ni 6.01489620336473 5.632537020390538 9.192573191354889 -0.1591111764742808 -0.2041517616536871 0.10859774110576136
Ni 8.631885785730558 2.304993383865764 10.179117555041989 -0.1714686695983692 1.612669436308926 0.6547658728038144
Ni 2.3993199181652907 5.4973251085503545 6.796649390001895 -0.008828911145539634 -0.8592577914057395 -0.8579426721387419
Ni 0.3227115481654842 9.243729178217167 9.406424596994034 -0.29881155252211766 0.16047823202513653 -1.039066862549004
Ni 1.6673423962258098 1.283392272184372 11.34462561386234 -0.14816470476510613 -0.60793400005194 -0.8659956243502054
Ni 4.1745660843895145 6.884598600875614 1.5723614066236202 0.2303739285750097 -0.009399181826712845 0.023913059172171718
Ni 5.53212694439637 7.95397314176381 7.949350373230913 0.08333742387707582 -0.3131675641334736 0.18189732113086093
Ni 5.472638403694388 2.9142786154317446 4.966749878398815 -0.6617677580429442 -0.9075927310657015 -0.5403150153513857
Ni 0.8571158842038731 7.39648388926216 7.171617024619909 -0.4525820335097754 0.19707402887129932 -0.7393019449746816
Ni 4.958240151576623 4.362071144377544 6.9198352336837585 0.3584740013797569 0.6177083058298846 0.5473482680490831
Ni 8.18151387213158 7.239306143368515 9.230688885128476 0.06771642951036724 -0.6712332743312182 -0.24543905043824826
Ni 4.903506355200616 0.5557961657863361 10.511617006546192 -0.951050030918388 -1.514077657375941 -0.4330051398191123
Ni 8.362763641105209 7.003069473758182 4.966988519558902 -0.8347461794176204 1.1430479308183605 -0.25759728306733704
Ni 7.14945413082062 6.0195967110634125 7.017697996082756 0.3342076726332245 -0.29633995105317346 -0.08735245857373988
Ni 2.1951099769711737 5.166427445438857 2.3294161371355733 0.5916990262503165 0.3180467466026458 1.0851073497478345
Ni 2.288930302749304 5.206887969399055 11.511259515724431 -0.015384452875870279 1.2662641931682452 0.33774242525936027
Ni 1.0223061878361943 3.2357300659564667 3.6886131353990863 -0.03729822222982609 0.8956075336793672 -0.4622542664922168
Ni 3.284651503774295 2.753937066279372 2.595659220795479 0.04546841674544427 -0.2211899480828965 -1.081737404834337
Ni 1.2119987917916875 3.46072167484149 8.156574063014917 -0.08369095056175264 0.37103718275674813 -0.05517998760625335
Ni 3.622111798788184 2.428002054565137 6.922772147051647 -0.2648164265235955 0.3745004587150002 -0.31138167587764437
Ni 4.367241702846095 6.9017373751000415 5.944840559778593 -0.8508785662031088 0.13480036764305817 -0.022565029784709523
Ni 0.8584736077737617 7.1565500895580545 11.298981876220555 -0.2914916218219367 1.2544818558213362 -0.3126109202990552
P 0.1109337895764881 5.580659686385269 8.088451955191756 -0.3665292675840655 -0.4469518318071915 -0.6802830432383122
P 8.722280164551378 1.723188043461313 7.906048753944376 -1.6089541922408677 -0.45314664776399377 1.082081161327001
P 1.9064264887689994 3.4855349318278055 10.410419595512495 -0.23734907434126223 -2.3436302084077636 -1.2571010386117383
P 3.894967231258833 6.174840017250291 3.8346877397421686 0.5984813392794726 -0.3312084807955844 -1.108454509114207
P 6.972199793390872 4.067204680664026 10.511551018649651 -0.08356496650684964 -0.5451913696070804 -1.2263696709661525
P 6.270893084185294 7.718504824373453 10.090859195392705 -0.0355940950545258 0.5022765725214253 0.8266130087875248
P 2.294805937372657 8.424159503200311 5.799309225652224 0.8226514530366155 0.8679118675363117 -0.6564579157942566
P 6.846840868842157 3.945298821386266 1.7117676176410903 0.46587926483931374 -0.5905667124180861 -0.1612981568232706
Ni 5.093931153624558 2.654322460818827 0.5240053666988416 0.23924552003302665 0.9228203466487334 0.8548864018109212
Ni 1.4197160348840523 0.9992556212368849 6.917929720178215 -0.04603637343377233 0.7779001169628539 1.0395959955795968
Ni 6.888214376028446 0.7555695508679272 9.177808173518295 0.3576314508738035 -0.36190128189375087 0.5517996189522174
Ni 2.8183701795028533 1.616179177813225 9.046565478852134 -0.7906515030912512 0.0754744761892313 1.2145415679829727
Ni 6.3756963269901545 1.8792720173712247 2.5788042849205484 1.7547804786807841 1.1895172780244934 0.7437841491157513
Ni 4.146887325594579 7.101219690281829 10.098228145154177 -0.6571019771361586 0.21690700443682645 0.5994758419822579
Ni 8.12077788900187 7.122805867944241 0.34453907881934787 -0.22491881899770944 1.779469239676716 0.9980803928343134
Ni 7.587432975083262 3.7166010429695886 8.277722417398158 0.24739463150272228 0.33279253745325266 0.12836412509941117
Ni 3.0694224878019196 8.392494352299376 12.345445057852826 0.42238108444636285 -0.1561937457171697 -0.739626675303952
Ni 0.09574120632807269 5.020124143317358 10.229047794127457 -0.11056514924477732 -1.3247218230845057 0.12214771187605417
Ni 8.600961868735956 2.4880239221021627 5.821218111247027 1.1067562954761778 0.2924028207822964 -0.0829396742180249
Ni 3.8255714666380882 2.571096356238497 11.520440872781261 -1.1260225999049573 0.4824957903500723 0.1096593496010563
Ni 1.0046792839661343 3.2979123591473094 12.486055321996188 -0.15636883784245328 0.4918183533025788 -0.38562176543914234
Ni 3.013848023702879 8.430261123770716 7.891006225364802 0.9656819218989497 -0.5845595869920577 0.46510947655282475
Ni 5.480123058260752 8.10336793164098 3.7509409635398305 1.0103119019034985 -0.8005926734643631 0.04292559571893252
Ni 3.1767296549001167 8.403477269326107 3.4726844669346377 0.03197938112007396 0.34564702481841764 0.6982578825491782
Ni 3.6805517646958448 4.49842202539087 9.625263964456513 -0.5761212264167175 0.36185294515431876 -0.1281628077218825
Ni 7.239306143368515 6.177768795124085 11.452477859064826 -0.20255562081116085 -0.5174195988104509 -0.6084201956597393
Ni 0.6946283724982942 -0.0733396713686968 0.0015475517654124575 -0.6748407891768184 -0.6651536437960415 0.21473185116237856
Ni 4.816935658603916 0.38603913813598684 1.7454648341779162 -1.7041485154565295 -0.9530140966232941 -1.0740099542830923
Ni 6.202889392998391 5.550504121610643 0.4782097665006371 -1.061643205187623 0.6469610320474148 0.353305826915256
Ni 7.841820835960816 8.65291151824428 11.41667716533284 0.005347123244526275 0.47542140000179406 0.006458611141150167
Ni 0.1303215759459778 4.977295286632052 5.620172877255427 0.01340650321389304 -0.7417108115264903 1.0105103910675501
Ni 7.935270544785782 8.690190160069987 3.0191026489437336 -1.0669486765609366 -0.3138193387848595 -0.8696504474939734
P 8.560709251847044 1.6199486234100533 3.457721485408427 -1.0952110138407394 1.0153404654663416 0.5801910256107169
P 1.6323688110600338 3.2512327019242373 1.3061273624015968 0.5362963811102958 0.4087051296211671 0.8207519220210575
P 4.734450787929916 0.9968330518844869 8.258327399478361 0.5017325270924972 0.23948437551671015 -0.9765715722282601
P 8.505731390648219 1.5272401484914189 12.302659590469355 -0.40239230002926185 -0.17126992332400182 -0.25599034359153333
P 6.41036257126794 7.792935555894517 1.6125679223793332 -0.6170542171856535 -0.5097937068340769 -0.15698615971147803
P 1.776385135397366 3.5782614856222037 5.8996994148830515 0.4524123407011305 -1.4961439557156555 0.1870187015178263
P 7.016131461497791 3.970175354437756 6.096669670277409 -0.33418916069046317 0.2541072676362075 -0.15554557061020954
P 2.113899667038548 8.463462979111604 9.965715409465583 2.085817724005827 -0.41687969501215943 1.0212825419823894
