# total energy = -340857.5966378465 ev
CRYSTAL
PRIMVEC
9.41764510104658 0.00000000000000 0.00000000000000
0.00000000000000 9.41764510104658 0.00000000000000
0.00000000000000 0.00000000000000 13.78367555553590
PRIMCOORD
 96 1
Ni 0.27743534777293444 8.885105490745419 13.478381053052873 1.1178061255324363 0.23625224173265766 0.6384098000432941
Ni 4.585649153332757 3.8511481793211035 7.840926919311811 -2.281953043112941 0.2618144064724781 1.4434584523964817
Ni 2.524945983438256 1.4531614690217738 10.58601412323309 0.11951001714289096 1.9364456291961811 -0.5799567981127237
Ni 7.414719148897363 7.2060523871631315 3.931517420552487 0.35362721481041676 -0.02159829499606603 -0.0798756905807205
Ni 3.7745733072869365 8.504820982967818 13.811793941335448 -0.21636167345631768 0.4739273319547709 -0.4574990111954186
Ni 8.423396023724502 2.255620169831921 5.461643652114173 -0.868414518204343 -0.7527616700240133 -2.31407023536246
Ni 7.541838522002417 4.460667585657757 1.5737233358671552 -1.064366003435425 1.4013278417750188 0.8668435741727973
Ni 2.0051390640032722 1.2849717457825427 12.94634437973478 0.8566015847298151 -0.23880920382655646 -0.39929206383738336
Ni 4.820562891866795 8.606861167261288 7.0065320423173 -0.6647461239449778 -1.050257846168817 -1.751354740828687
Ni 5.585897235825548 0.3229800210781165 8.74898096542796 1.5680055177426477 0.1628999540927517 -0.062064373430912465
Ni 2.112660317725334 7.685627126874839 3.2537464568912715 0.09052931363982474 0.4932921096346279 1.2686440062543314
Ni 2.885952571765119 3.383336078297218 5.887476600254981 -1.8284171303303283 -0.43312495322642824 0.8019939246872639
Ni 7.869327711538282 5.925506934561755 8.0045801629226 -1.3537135823311655 0.8527104772055251 -0.38936374898007786
Ni 5.0165723386319065 4.464519402489877 5.678516007994681 -2.736435636079539 -0.2932075760717789 -2.041615061346684
Ni 7.34079063512683 8.05334849613398 6.056932996755632 -0.7857471238110983 -0.11890837900315004 0.9636484364086888
Ni 9.263129763707104 1.9695215303624878 13.422791519519965 -1.4730114834632502 0.5745847351675331 -0.1845761535146047
Ni 3.5153714621268852 4.149188392734618 1.7054818409318728 -0.9280075472766276 -0.03241132645116998 0.8503288643472259
Ni 3.9274122690680824 6.422240623584279 12.44114516956215 0.14658681875502497 0.5024210685190895 1.5693070101628908
Ni 5.786719099219543 2.2682680671559754 4.518674628679187 0.034377191928289176 0.8767544055286063 0.2251561318194961
Ni 8.500931495555433 0.49864452920647806 11.339775123169854 -0.2850463804172252 1.4833568312533163 0.6855000686628775
Ni 1.2960563140255894 1.4316704029804541 2.3604677541196573 -0.8895489861901132 -0.5004875989418025 -0.0012403001650043155
Ni 3.102765596481709 1.956534597816046 0.9342341576359837 1.7944356311785612 0.1246555658995724 1.2880098123754526
Ni 1.7178161306752189 5.860657030635144 10.155330146118626 0.8129571085669871 -0.770540334163673 -0.55946279192443
Ni 6.983956063564341 5.385574507620067 5.720004501569803 2.8165553243502655 0.3516919454609169 -0.6087557246222871
P 1.2518875586645952 3.5542475009606127 10.282718863872574 0.22813861148658773 1.2757461645167512 1.7811700244179065
P 3.2975790023233986 5.69094164889517 3.671075271537202 0.30955259308870564 -0.45110981983962306 -0.32666097063421806
P 6.80757298911742 6.06374854649012 0.38050017184961843 -0.6629108705084519 -0.37114825441331567 -0.5143106208678239
P 5.682192656628568 6.483945034058742 7.110225965084414 0.3609000943227462 0.7328001393004219 1.6215986204777557
P 7.98487279885684 5.095991339476099 3.6421706352996837 -0.8443631336820943 0.83279368367694 -0.8950439478664135
P 4.483204010301437 2.0607125875395678 12.796391926166459 0.26654857872335386 0.17213818486156804 0.016580272956184347
P 8.698325336145292 7.804308290000478 7.618264595244535 0.7223578609211753 -0.06410017291401862 1.0987295685169594
P 2.2901829272252785 5.319707498026294 0.05375215098047126 0.23873901271025336 -0.2891884276100568 -0.10702088353694472
Ni 9.074061121355863 6.97280557180583 2.359640884882835 0.30725685507599343 -1.7652104157648567 -0.5588914928019924
Ni 1.4368877783471898 7.3690812409060245 7.479270513475372 0.949726684121274 -0.4782879229163118 3.7231414685283233
Ni 0.7303120054861589 5.031923100089991 7.425720841863827 1.988173653698092 1.708832294085444 0.25964490962498504
Ni 1.8600225711765008 2.7694751375849957 8.45420396602992 1.9130573321792277 0.7511048511468805 -2.2242400046721884
Ni 4.488873432631355 1.7313587042805727 6.611312091229038 -0.70945092305152 -0.4818386163820476 0.45898382327106113
Ni 7.6471654644240274 4.353146331935695 12.592999987433867 -1.9498914702884418 1.954870411560272 1.0795002879737021
Ni 8.745630167313367 7.78311858860128 11.813174713011582 -0.6353859256153057 -2.7854802002120156 0.4572745538894383
Ni 0.26760520985272007 7.173844041036351 5.626468450771212 -1.4823985811051053 -0.3679870830765146 -1.5975611199125777
Ni 5.299233537652136 3.490405285056097 10.963163496968116 -1.2538277671771052 -0.44413107452894474 1.4460411255219934
Ni 1.530131882148726 6.916149019086909 12.595550285717824 -0.383623761172507 -0.18839218482658524 -2.5157856196605124
Ni 3.9230424817573146 6.348481627424937 1.374697417387305 0.3690579475431902 1.2783936294419274 0.05317529847139875
Ni 2.196524447040825 8.661558849806417 5.92375525257942 1.4320610091928176 -0.06862660002946246 -1.1738482040286686
Ni 7.968994649275041 8.650832152075889 1.564020336155336 0.35763479330791315 2.282490660783966 0.8845093668836767
Ni -0.09703847299875215 0.3767632502873066 7.369097250902638 -0.0938421800631416 0.2903464524738999 -0.42369260416893484
Ni 2.8308122599018737 3.4936261196687752 12.534902535019798 0.25458343594167765 1.12518364894343 -0.43568654330601736
Ni 7.567897145900897 8.207082134196426 9.86151657181087 -0.812475283834562 -0.10416104549064643 -1.77710202499612
Ni 5.014208509720262 7.39837011706225 9.53953011228725 -0.13196958306248238 -0.05846457189479609 -0.08393391981049417
Ni 9.415121137432282 8.708628239847835 3.732260769768512 -0.5625416879600699 1.8721410535808403 0.6659558279823629
Ni 5.669638935755176 1.1637854890692647 1.6759160860106987 -0.19072186140102637 -1.0337842739938259 -0.21982777762804726
Ni 0.27087972504227603 4.626399303534681 4.705499046211126 0.9635245092363147 1.3404816570219236 4.709374989326379
Ni 6.670404988726615 2.2303055398936795 13.293362939844652 -0.22727394949344729 -0.8323686803243794 -0.17275987760596698
Ni 9.527925690036545 3.4710708597349624 3.013400620682986 -0.7938378712390328 -2.3363791832723053 -3.1386147916567304
Ni 5.195262736120074 4.263895309642274 13.950595903145258 1.1095824520710633 0.43474783354183194 -0.8958844414898377
Ni 0.7326861938073758 8.173366964859037 9.88224763389534 -0.23419844452742247 -0.6582348051890212 0.0017568347901066518
P 1.9161705710618413 -0.07219755060734613 0.8934962503726465 1.587522761839969 1.022277044685175 1.8015755846574522
P 7.504902518052348 1.07640857814404 9.550239858256658 -0.9609801455479062 0.3409498764530644 -1.0022455799555965
P 7.752172206913386 1.2634053385806925 3.334794710331936 1.2121908083626092 -2.5007500654836283 3.4701333474935656
P 7.71191177425491 9.458988528151153 13.347311919607009 -2.8269181556418284 0.6416115948100434 -0.00657842454846609
P 6.307966918349672 3.1903873661786575 6.502849073000346 2.522870808642068 -1.1621535412995598 0.7982982210032316
P 1.2140568784332277 9.520014868180843 11.49138131521182 -0.8001851536132993 -1.6252842968594592 -0.5765716836905747
P 2.950058481731492 8.146093464747002 9.391465896554724 1.4181459417736222 -2.7934171956709055 0.6652341193249898
P 5.491466508745656 7.75479031224182 3.3016455414630315 -0.31488069016983833 -0.08799446303311297 -0.8334032922364809
Ni 1.7161115369182167 7.2711283145713335 0.967897529925509 -0.51343490313109 -0.3506599046519767 1.2937310311299461
Ni 8.688521567631263 4.520921678792008 9.538372683708602 0.8634404620285194 -0.816558195654684 1.5643635501146864
Ni 7.5450876095502935 2.803811871496763 11.059566278924892 0.5416388763691317 -1.3484615899036068 -1.2890991887848895
Ni 5.630706391051051 5.6381557482985025 3.0299003348391613 0.0832482065973792 -1.0942885020264703 0.21068184946272103
Ni 3.5470053319046206 8.790316893153008 11.462146119632473 -0.7292183354864344 -1.128024717936651 -0.18809933617651475
Ni 6.017225379862548 5.112161436054953 9.605361334829771 1.8530770949708537 1.8999087106124115 -1.0496873183773276
Ni 2.4353370906323155 3.2154665549902415 3.605547297165817 0.3570125863428819 0.45183384248984115 0.2941547704763966
Ni 7.608138743269239 2.343863504103246 1.7813193113573476 0.8259710043281516 0.25398025514003997 -3.2617320665349054
Ni 8.581621878483578 3.741065326141005 7.212280275845482 -2.8240531753892073 -2.0567318623834643 -0.0828406867463154
Ni 1.7798124881467379 1.0559722883501472 4.69058432171961 -0.165821755725237 1.3120007759734114 0.14972510727369054
Ni 9.530185924852457 1.8700052749467893 9.536539068214191 -1.2758865467493576 -0.5771352695035287 0.1386074000939742
Ni 5.946018565516178 8.039240863824649 0.971059975138776 -1.012051767412741 -1.0298147478231168 -0.4590645559103255
Ni 3.990453985141962 8.87813643339635 2.3775598381505034 -0.4208145112901914 0.9395037208416851 0.4220255008791571
Ni 5.982144651990544 8.115137665414041 11.809466986148976 0.11116498761230532 0.13511147112557376 0.7037338180620848
Ni 6.2539849768295825 9.486676404646106 4.415242516444916 -0.3011584554877394 -1.2741014298244766 -0.32767501372102925
Ni 6.602437844283055 3.068042739122224 8.681909439030205 1.0052262598504753 -1.6985676789346422 0.30589931260683445
Ni 0.40058047466000474 4.354558978695641 12.116884348755015 1.3194490047213405 -0.2584539746406775 -1.3379691750127152
Ni 2.0085294162271436 0.24223689933760068 8.61261911545483 -0.4573352319240446 2.5346418331350673 -2.5074303057172815
Ni 4.540679898141127 6.636661566454026 5.303393311477925 -0.019767412434914342 1.8482153960031782 -1.4184663012275183
Ni 6.737929503852058 1.0040622287446463 6.593476013237954 0.5691113707577876 -0.132370675155643 0.7525179294443234
Ni 4.92378969943862 1.1286859259071271 10.767008076704478 1.0284818879443063 0.6427174262797125 1.6935722826025799
Ni 9.238860492371224 5.210076691809379 0.3466493884232736 1.5881645091890262 1.2981471579197708 0.725422358779112
Ni 2.306042241516945 5.820537862652663 5.735042597211686 0.24064651414561136 0.020263121124410262 -0.49271104032017726
Ni 1.3255052901479412 5.571403480068497 2.7759770797387766 0.9056227518235241 -1.8237117544348591 -0.5678474164436994
P 7.881146856096501 6.174151599602473 10.74168685441469 -0.5594334813483914 -1.0706464371274982 -0.4643276040814778
P 3.952058246206616 1.745918383553088 8.87421963481327 -0.17492757468124712 0.834405251138434 -0.6976341329222502
P 4.284482281757228 5.454652934181452 10.716325136251116 -0.7769950886500812 -0.43854252469757377 -1.1264884837977827
P 0.7726829324039945 2.228958816649197 6.564007260060963 1.5631029382347081 0.45957620543942135 -0.27042348829772783
P 4.9376053847508965 2.850335038124334 2.6706011655628203 -0.8890653616854753 0.8655623934675285 -0.73627164278879
P 3.9541960516366683 0.33442528512720315 4.94084128759568 -0.43553150578539185 -0.215388510909771 0.44006718887221635
P 2.7820288584583874 5.342931410759815 7.896750010442363 0.210777751610637 -0.5270668920922278 0.04796752901821416
P 0.9259089593973656 3.3060831358182763 0.8931063598669011 0.5141879792470305 -0.2837870540888274 0.8501116061300973
