# total energy = -340892.8587783411 ev
CRYSTAL
PRIMVEC
9.09838578339162 0.00000000000000 0.00000000000000

0.00000000000000 9.09838578339162 0.00000000000000

0.00000000000000 0.00000000000000 13.31640727292672

PRIMCOORD
 96 1
Ni 6.544041121562617 2.0802366816013746 11.600841030065322 -1.1835698021918066 -1.203066734574154 -0.7618250657778621
Ni 4.622680448910424 0.25393958081406853 6.067394897943915 0.0024728870205247733 -0.32228083928865137 -0.6604320699506561
Ni 2.9514161990044885 1.721432747978653 4.58252199464975 -0.21682755734914272 -1.0999498140773054 1.2638314153570362
Ni 3.3160794929389312 4.370737053891995 5.259940473123556 -0.2712261867046813 0.9365379533451419 -0.6944503358776298
Ni 4.761585501517638 4.51123432397522 2.447901532937738 0.5957865660561288 0.7421764383089993 0.1648917877117999
Ni 7.546464850916936 6.100540316601678 2.68268355308044 0.20393476054687457 -0.4375878740937883 -0.3228691076919536
Ni 5.333892151095092 4.517885243832158 11.98163667146671 -0.3259318057776774 -0.019950474979997898 -0.9339730208314431
Ni 5.696844948541019 7.899582293553904 12.524307149703526 -0.7560357127895948 0.7487692610351686 0.8118368789196149
Ni 1.591280342296712 6.630748736113396 0.47881254922463506 0.8504818449853224 -0.38976998327956097 0.21976247160775056
Ni 2.7434271047095447 1.583628600026281 0.3316943839568766 -0.33160005980704826 -0.30544088491317717 0.5979542631314089
Ni 0.4723290396623176 -0.035006948346860314 4.601098168482733 1.0375864213487356 0.0027140564970533905 1.4222450515436604
Ni 8.794408515072178 2.554999539405595 1.4798787994508358 0.26095797200945375 -0.881914609573307 -0.12801985438611502
Ni 6.975532057561642 0.5866857381436702 4.855748333210381 -0.340447225785033 0.6928125431638907 -0.7071590416935498
Ni 0.8133165146477531 7.604421567043743 2.713803671108718 0.07500704963450953 -0.33117454223385545 -0.2638250091446037
Ni 7.5521968338305765 3.8158720094660477 3.7455060052504887 0.8001522434928349 0.2971637325060495 0.7389162795004888
Ni 7.680183823745144 3.786975536872839 12.648922277923178 0.73162077428034 1.3048194277336238 0.4782827807099892
Ni 8.065737010964853 8.690523148551634 6.913652117573944 -0.3642301871372437 0.4083179214850774 0.1935829849989053
Ni 7.034899023452915 0.7460002892776741 0.4612672224775497 0.39601467863769213 -0.2819821396696047 -1.369650565276396
Ni 1.8286208284637246 6.380188295702702 9.386615153584097 0.6227594951005467 1.3310217971606044 -0.5465568824960394
Ni 0.0909956836733169 4.842624821853819 1.1968389422066297 -0.06369548127643224 0.6134806409017821 0.5517137441066305
Ni 6.456569242623352 1.8686810201601656 7.023791714340261 0.5119184664865636 0.3335777523587094 -0.2366916432629214
Ni 3.3024774065010076 4.558700601531507 0.4195638623458653 0.4649837496082379 -1.4197122578194776 0.3722430301393912
Ni 5.934221828250341 5.64215455283643 4.868651663635975 0.053003034559592585 -0.37163959222743737 -0.297536542464436
Ni 5.524758083733732 2.974626180611943 9.098381937852421 -0.6579087893081701 0.49783139226587814 0.6741447915510583
P 0.0726415104484179 5.653463846108898 12.483039602240991 -0.2740425731075538 0.1843190431984761 0.12345820315736158
P 3.8777319330054754 6.171043706439453 12.636151783927012 1.1138425128989977 1.5852861591999665 -0.8334187188554485
P 2.4412697196905118 8.529700085088928 1.4525008474104635 -0.35528454790818165 1.0075063141339036 1.015180799960026
P 6.334605383960897 7.842753777238672 5.715241884178131 -0.64212452989072 -1.1904575304505756 1.0820269110502978
P 4.5735218716367765 1.4047179460360895 12.628654714211395 1.10087001189873 -1.3151403500436576 -0.9373319100013471
P 3.965467665126479 6.12981892138913 8.273550506418156 -0.7752297692195423 2.07577859460227 -1.1044538725952462
P 5.041843072452335 0.9772212013054578 3.8499864061877833 -0.4513103658862034 0.21537771227649358 -0.33863536938727484
P 0.2860869065740128 5.564436143235931 3.849932725712878 -0.6142445156510002 0.19333024555815093 -0.9027721697486064
Ni 1.4951831938302553 1.1693063176114444 2.646356428986327 0.3433286610978861 -0.3957513976739765 -0.9607677724267841
Ni 1.8503750683788258 6.623397240567013 5.018260966874773 -0.5686809680885884 -0.6399740592066204 -0.3774870521471499
Ni 5.729362578593956 5.698983069151662 9.337997020413736 1.408523845302826 -0.5209438099136254 0.6718914767405074
Ni 8.638953499100026 2.6581115431520783 10.31436934234484 0.23550302227145892 -1.0479837054226595 -0.10432379632075582
Ni 2.1240454081556246 5.200391539520738 7.276990686568346 0.30557998159420274 0.14479321718971191 -1.308477079090869
Ni 0.4269917843310968 0.10081557122679603 9.384724509061154 0.5102001982438762 -0.35107642336410505 -0.23348496340016564
Ni 1.5626477228852427 1.1909422785140422 11.437222032714741 0.055620674688097754 -0.19432783358472983 -0.5885267991699219
Ni 3.907665621554485 6.907994741422037 1.5812830362244774 0.8594933044553134 0.09365371820141935 -0.014800041127309996
Ni 5.794234067759439 7.688217698209816 7.849449279184938 -1.0776856033624667 1.1220697859047966 0.8754886514423051
Ni 5.158830114204058 3.1938244859380056 4.442659791879813 0.9724061279966607 -1.0213483622233186 0.5635801565269132
Ni 1.0576509298079646 7.706205206495954 7.273114774312456 0.08944662209860724 -0.7591349205402088 0.11487123281929894
Ni 5.018032597396785 4.4977505165498 7.174653865273041 1.2228110070806169 0.9441255358844127 -0.6345557164045266
Ni 7.986271711333529 7.16869078336574 9.261028317784799 0.42948658514289256 0.039741798674312205 -0.5861688404607066
Ni 4.639257707432095 0.32406538765038884 10.400566537464739 -0.19893139379501223 1.1557877469825322 0.8198057560577043
Ni 8.210510522269365 7.215774928727783 4.874830377281456 0.19068329485360708 -0.9488663930035076 -0.29703826267177874
Ni 7.150093683245929 6.064601693571712 6.993536852780376 1.1871006981632006 -0.13487930051010963 -0.4889400033135193
Ni 2.164569617516503 5.443882534337942 2.6769169963016064 -0.04838893282634892 -0.8982498563982207 -0.03889127774855883
Ni 2.2361830103946967 5.280521021299197 11.478010095257359 0.3339063393427217 -0.6968244925367613 0.43127273050903797
Ni 0.9733452890495677 3.3642827397269723 3.9417763789219906 0.4264953637250526 -0.08119466650246016 -1.1807639573118953
Ni 3.709102454717527 2.29903465796204 2.5487735141551124 0.391085616767191 1.037535256395826 -1.1356992037627733
Ni 0.8846333001561297 3.2414454360491054 8.198325964304368 -0.19089258265093575 -0.21968559562322812 -0.42137989687535815
Ni 3.9776686001855133 2.554963145863286 6.729326104488199 -1.3118624506233343 -0.9770289714806529 0.7101556624280285
Ni 4.0638576067583925 6.8179935112923085 6.065250408463367 0.23342994179251414 0.2979216937179966 0.47147809908332994
Ni 1.1699432046018492 7.43014199131235 11.588630086782153 -1.0976376210043612 0.3354461730260158 -0.633031052229884
P 0.1717647819578535 5.805215819151127 8.000590750554936 -0.8504085685452258 -0.7303359940306454 0.04309811674105481
P 8.47985912889699 1.4233332429270542 8.023228443709586 0.6433095513377566 1.3834910707039143 -0.3860161726640836
P 1.7103964062735013 3.402295794668542 10.384161238430478 0.1807794054763338 -0.5454790760508283 -0.5084168810912083
P 3.9101494808170627 6.093652838719732 3.896846731264629 0.6149271435403216 -0.2823048131163461 -0.5253303690170953
P 6.860109938129199 4.036043842048871 10.368766770033844 0.6712548715977731 0.650724355744589 1.325488783157517
P 6.2267895148709975 7.85155191609183 10.414015771024966 0.250975149765129 0.01680061649710655 -0.9241809744416858
P 2.4050672434788067 8.578831367205844 5.754405884895217 0.6167749953823378 0.5409817024011071 0.6433095513377566
P 6.969081302187402 4.022050525031127 1.6016306657293424 0.8034121451910292 1.0730190511247328 0.5014931573881816
Ni 5.542108705029466 2.8647176828392866 0.5938479872700473 -1.5397614352952902 0.03652611995049193 -0.7480318686485117
Ni 1.6042910336721175 0.9831624470873737 7.128618763768048 -0.7947117892035539 0.954353127149692 -0.9525027042045144
Ni 6.962757924211244 0.6629875291097984 9.33810347152499 -0.9937318860576306 -0.03489141256054636 -0.058811413711253556
Ni 2.700091494205309 1.6430683530021721 9.136693419840924 0.2488339350524102 0.36953411584866036 0.7262836783381428
Ni 6.661637755148012 1.9646507912285411 2.4673038401811307 -0.7653940140760431 -0.5877734659436652 1.6561524471932252
Ni 4.045770016230905 7.097768867791413 10.39001968890364 -0.33987181289753726 -0.41099855364103416 0.6776119241640524
Ni 8.289047786571812 7.434199871279784 0.44755413573558384 -0.6144630594197095 -1.6104086652992073 -0.6795968158045651
Ni 7.5351828528012 4.071099921677848 8.213879654448604 0.9455427279469133 -0.20957576088273586 0.13628260861553948
Ni 3.163153828157242 8.306525785265626 12.726703466384162 0.7116613004392777 0.5528465721594931 -0.820482984630387
Ni 9.180907934391916 5.061131649876013 10.343186658983527 -1.0544258615035775 -0.3420875896019335 -0.4568179259679939
Ni 8.704061546290516 2.195076504356877 5.751781910494751 0.021483623795072678 0.22909737585543127 0.5579856931582713
Ni 3.650699917697438 2.970568300644509 11.344926189742441 -0.25632330145091986 -0.5039961263156932 -0.0010880908578561907
Ni 1.0418925259882426 3.1057612119362226 12.710590225526929 0.8148550969206481 2.16555843167058 0.11676382185632149
Ni 3.3838078751756577 8.574600617912443 8.062565313752637 -0.35605047953992874 -0.8999254443284309 0.6581353034966795
Ni 5.811502803584977 7.6388680548390475 3.4635306591188155 -1.437118626221383 0.4194921929343421 0.9905146646719133
Ni 3.3414821854704924 8.261698039526728 3.7793028683155807 -0.060746940171069574 0.7165014021403983 -0.6624619558964914
Ni 3.407672940544671 4.298777922361867 9.047566544565164 -0.47729470576510696 -1.7453589282565685 1.611014417204006
Ni 7.147637119140083 6.2029699414298705 11.515869387482672 0.8052677103425293 -0.9602260409907011 0.13225163307927545
Ni 0.6894902164576437 -0.04998653036117335 0.11001676856102512 0.33822142177830783 1.121331107966559 0.3455081852477082
Ni 4.82069771261275 0.3929519943710935 1.6043337960843305 -0.21437472493327597 -1.1000472588871184 -0.2909899995951698
Ni 6.092788492089898 5.747077135312777 0.5133982423192707 -0.08764787832697163 0.09213368201246713 0.45067581762599795
Ni 8.124585368878225 8.68841232309772 11.270008263222605 -0.08401593800133918 0.7188737590273168 1.365159876494894
Ni 9.125771717794045 4.750103338919204 5.8754116835563925 -0.202254030410342 -0.1855680851142288 0.641329030572618
Ni 7.788272644402358 8.777694780766849 2.539771571465024 1.6520322543772643 0.5597533265816553 1.0750489370705678
P 8.629081750748757 1.532386492455453 3.5471311749949788 -0.6022708882288917 1.2485472355044562 -0.18749666959550934
P 1.9472455796193449 3.348597122991868 1.5270057072250933 -1.1712192510462538 -0.6065636020669747 1.1422478035145682
P 4.76425132849176 1.2051357600144843 8.370040705141548 0.044634865100555386 -1.4479527407224098 -1.3965278492832143
P 8.640245469851989 1.6724288432598182 12.467646043682915 -1.1386459450959228 -1.430596508832149 0.022341086699361523
P 6.413451993372969 7.701637816936196 1.427092695847556 -1.5448020830429914 0.16052862564709774 -1.4896218383264215
P 1.7971313159810125 2.952917432624728 5.929969242831555 -0.3784481305088386 0.6077252264752437 1.7264479502846781
P 6.980809121196422 3.9164364652509125 5.979919379650419 -0.9390951725493568 -0.15590603927342184 -0.16868802152943851
P 2.374869701748058 8.608628579971196 10.242953384433672 0.6404047189861358 0.2876182549094595 -0.6127594464650415
