# total energy = -340862.6293279173 ev
CRYSTAL
PRIMVEC
9.33804431947003 0.00000000000000 0.00000000000000
0.00000000000000 9.33804431947003 0.00000000000000
0.00000000000000 0.00000000000000 13.66717176552896
PRIMCOORD
 96 1
Ni 5.15232186812042 6.897098058630043 2.705375185682176 -1.8543122529295355 -2.248512504066308 1.499023591256296
Ni 2.218793985820465 4.949985128259986 4.074579910951966 0.11919505700563343 0.7224306231406398 0.7243772053440493
Ni 6.526274988822139 1.0755185688649282 8.215241424880503 1.3597965553004516 -1.7255861165050153 -0.9958247640309172
Ni 7.442038298986112 3.8141894846396998 12.345787969424842 -1.3677955143455283 0.8305246851371052 0.6239164915231256
Ni 8.733881997794127 6.106006975431025 8.421601927949625 0.6204514157926605 -0.061918334771351426 0.24877788500349413
Ni 9.089904267681467 1.1200797153765578 7.813480481118769 0.48311002689530347 -1.3105432175912786 0.6799616553431516
Ni 6.9204525069589575 8.007970462510274 2.4233942675741127 0.5257908535932816 1.472884728077399 -2.2451513009035593
Ni 2.1251614174901827 9.047771012639457 9.62697813967597 -0.1278884710145733 0.41499147685051113 0.4788975314758527
Ni 3.9736832781054647 2.3098772681076474 0.9747237206992685 -0.05440325734122889 0.09855706904030768 0.12787612971939913
Ni 5.99179335787366 3.000603053170246 7.280761872898999 -1.3917278567914095 0.040819605119523254 -1.752420720199356
Ni 9.205481239679463 4.079735445107262 4.716773079341285 -0.2041905853114225 2.0808295267626167 0.4969736722512731
Ni 0.8453815378729418 6.782856426940337 4.241606704604431 -0.7289033753491769 0.5818725270781979 0.16189722385985023
Ni 5.449831953589932 0.4773402714065746 0.38791169053637903 2.108873577384026 -1.514475921255624 2.2412344823476564
Ni 3.087381497120911 8.31363266049124 7.1252572918787 -1.170231690322004 -0.6394904347019825 0.3600313185645477
Ni 8.01358262702274 8.315080057328899 4.355536445620732 0.7500057045454309 0.00573253160840303 0.6073675860255088
Ni 2.0031038428771253 0.40729933772570115 4.290685596858376 -0.16472518022694857 -0.7541354104430884 -0.07595578670102403
Ni 3.5046800124837985 7.994915876839014 4.760316379044498 -0.5147788187534941 -1.0466698717072427 0.25198585041783056
Ni 0.7642152584347432 3.6170260212183782 2.413923623233775 -0.8860764542604805 1.7981853280289806 0.5035904062368425
Ni -0.11567875667883801 8.028420779119761 2.256218065215825 2.165203362324007 -0.582478536093313 0.8971260272064226
Ni 2.1310350472378388 0.4514953667124763 0.4230171335782524 -0.8761928765981813 -0.09257488331494379 -1.0765897991951265
Ni 3.2280591316971265 5.757324408217226 6.14161667285505 -1.556938204184893 2.652711261176689 0.14129317445625345
Ni 8.387477913344126 2.187035297789021 5.940190392295723 -0.9465346595465377 -0.5222504445401909 -0.9844108657670207
Ni 1.1204438990970007 7.452543598614273 0.27305094652192047 1.7548514411280358 1.2869399763500418 0.19670841800176445
Ni 5.9111686849940694 8.891778985716412 9.905787858002945 2.4271350111006393 0.223412409655512 0.8064848705790821
P 2.183346770364022 8.546775607883498 2.1798459376257133 -1.2024866937009677 -1.0461050003427081 0.7933575891685046
P 2.682381185856057 1.9915246681758636 6.941091452059546 -0.994812520716319 0.6087557246222871 0.0830412327928957
P 3.008316277608345 6.3528208194060625 13.029912691103311 -0.4485315175894856 -0.21605185552538275 2.7859316859271375
P 5.386968240615017 6.456996039540961 4.848592645271035 -1.3126813469802037 0.7929115027700215 0.2878702230192655
P 5.988216886978029 1.1290815899023774 2.6274183920059313 0.6915084796404866 0.3727698491771387 0.24944225806037043
P 4.105246981626493 8.124910788948904 9.603224023058978 -2.5349537079485307 -2.089837129577865 1.0158572572017601
P 5.60545045874842 4.046632078723413 -0.045552846796527866 0.30489709659456526 -1.2920698413774394 -0.9989165155823634
P 7.626175190868514 3.088828893958569 8.750242251081715 -0.41982772189688994 0.5558946149571975 -0.9941815720005394
Ni 5.404943975534316 1.9128049562955123 12.083734437455886 0.22191628472595976 1.8871943483695368 0.661463596538964
Ni 5.3895642168786875 4.289972170288072 11.162347757126511 -0.5313539495033559 -2.0909018233969543 -0.5602022411936158
Ni 8.165353858006295 8.194292456715335 7.827339072388239 -0.29062207473278984 2.24494535554034 -0.8717705791607697
Ni 8.083991479641703 4.521098100151723 7.089872641317821 -1.0236695541573273 -2.009519723474036 -0.9516910069364966
Ni 2.5022970051190967 8.285235668340809 12.02441824743985 0.17628331737819317 0.4859030162594084 -0.38423491239394475
Ni 3.773709063405853 1.9754072040352366 4.3045171077999145 0.4863395895761947 -0.11689186279375353 -0.5988973437709685
Ni 4.436710195494221 4.312009954396925 5.013514643780222 1.366204001488692 -1.2424406083860862 -0.5930239157093271
Ni 5.982660750730246 4.690648967128181 8.826614378671827 0.06285395921174336 -1.556976770732312 -1.6218462177121875
Ni 0.41910542689893104 7.255426825413521 10.088313003471283 0.22420019566413002 0.173315750109437 1.0756739722490765
Ni 1.7896641685652401 1.6206642461915037 2.354744702466214 0.7130743787367204 -0.01977358308250143 -0.18173791273486123
Ni 5.522631345502059 8.175691072840404 6.950070915279492 0.08339193126409508 0.5792906252836346 -1.0392578955138874
Ni 6.102355800182481 1.6643849687328804 5.02615742170606 0.25113841481587074 1.0109742180778458 -0.35775897759060327
Ni 1.7611644579295542 2.8813095396149095 5.149407464552464 0.7699952602934803 -1.179917293040884 0.2701663779815992
Ni 4.179363037758682 9.09701051925216 2.692897691137155 -0.36328916338021305 1.2982934536896478 -0.8990888073597483
Ni 0.4763513725349104 8.940430195549938 5.732872739704925 -0.3786954706329542 -0.3522195358296128 1.5401082771117476
Ni 0.7385066891847082 3.229852036166999 7.324195917486079 0.5290013901107793 0.5767933127830777 0.4645685164476902
Ni 7.706781187659877 3.0764839996399655 3.3606892398559642 -1.2600745194177654 -1.054420462186939 -1.0360021075807513
Ni -0.04949350141260239 2.4364171038953866 9.804008779987678 2.1690610455071995 -0.9455951784514038 -2.651996494497852
Ni 5.07279908444627 8.276513935138405 11.985179786073155 0.19178578388916648 0.4636750580991434 0.6129494509886605
Ni 7.0888641325535175 0.39017523242959334 12.257990744861349 -0.7150960371524395 -1.1110217556207511 -0.2375128536126361
Ni 6.199200655687953 5.934700556161149 12.457859439662473 0.9032917896975022 1.5388924024267754 1.8855416432574623
Ni 8.27464632631562 6.548004617475232 6.039769427117751 0.07805046444652364 0.7061118313759581 -1.1201175472744322
Ni 8.131055221975863 9.132765890164363 9.975572929275096 2.175880896642511 -0.722241389947969 0.14827551931135757
Ni 9.360268658911812 3.106711248436727 11.743161961555028 2.227893799374692 -0.2987045946306081 3.850881072669858
P 8.59889123208329 5.273604385072021 2.34987864767845 0.726784015013329 -1.352595152456006 2.3956402829264674
P 8.367120977175778 6.149559613178351 11.926999102221373 -1.2533323155979252 0.0029248869562788333 -0.23256605113032205
P 4.432750864789919 2.479484163348789 10.294673506540404 -1.2706553802574052 0.5313984295880461 -0.55780314483382
P 1.495002186550473 4.740056558534936 9.694821831576837 -0.9918657793831692 0.13665901811835174 0.2971195095316754
P 7.1824967008838 0.055823761517429224 6.1331704119540085 0.8024140429438181 0.7257949116271822 -0.36558978648893165
P 6.605956519246225 6.744551769985034 7.921519783908008 1.093150788877601 -2.5239445013222213 1.0751008733544258
P 4.123446829604525 4.300552174269144 7.30633317290056 0.5680569613513442 -0.7987579342484695 1.5663857227510378
P -0.2819697124551261 0.8448165862040496 11.68157756062372 1.2964006075423093 0.4343765662453422 -0.32421379464530614
Ni 2.6295838844359496 3.0327165868780197 8.874941558374601 0.7295510362355049 -0.41171409165082 0.573300983359103
Ni 1.8867424751735598 6.332267784311322 8.2082164142936 -0.3893213257779166 -0.17595010240849052 -0.36228103383067284
Ni 5.660983807093906 8.716625292271601 4.477748097961669 0.5882555477864063 -0.029549945742974915 -0.04396226451356299
Ni 4.330051055625019 0.7430235011226116 8.905815933628457 -1.8867462050885246 2.4743957438598154 -0.5626051942081537
Ni 8.613972173327271 9.067091425911158 0.12604678705852412 1.370640182883175 -0.03498320094340427 -0.28171525916146317
Ni 8.520619746320406 6.402723327150855 0.6986864676697162 -1.2266694615947584 0.33367365450662534 -2.3595309387984202
Ni 1.0508194421836081 5.859958851073328 12.30730122060932 0.3455295254039468 -1.5697525823407417 -1.4714209990476788
Ni 2.1935252384481956 2.02443193563332 11.350079795992771 0.5160067776233241 -1.193687607352099 -0.42615546388713055
Ni 6.539927209316691 5.08470509069152 1.6009591055023085 -0.39420770733594046 0.17204999602313595 -0.4292577569615382
Ni 6.164649892466446 6.325992618666768 10.113132590921673 1.090991062222121 2.968457898891249 1.255804688397818
Ni 4.387227899734556 6.510624426887208 8.216334909846244 -0.39170319574653184 -1.0898124685329875 0.6358492384049694
Ni 2.3149571641056204 6.190133414853336 1.953284443724947 -0.30350124468830314 0.6827114501741468 0.6257386323335288
Ni 8.41683672403829 0.8404342421013866 2.108380018413056 -0.3842850489055898 0.7904288455574838 2.1991213552276903
Ni 7.0869965237307335 5.343985223558642 4.022262584999314 -0.1266491992908335 1.117088273529805 -0.26222758275049673
Ni 7.3184679612266 2.1051406509099366 0.45546683687412676 -1.1500120208410194 0.8248093799198828 -0.22222764531879147
Ni 5.367741207784456 3.364254505098659 2.884237950249035 -0.2247792080960516 -0.38115833035115004 -0.2949710957301049
Ni 4.306033606164015 0.7956377768780863 6.580429108051999 1.009532600535313 1.2968189260266505 -1.8886182253002572
Ni 8.549380922191283 4.83224173002756 10.27145352604673 0.2903976174268096 -0.5024676054863089 -0.04888181330236743
Ni 3.769647014216298 4.720941582233739 0.8193788202333182 0.6439453851495426 1.1795362555523816 0.3050395357097005
Ni 1.381890458198552 3.9712740627240732 0.17677384409857544 -0.4757921530776515 -0.059073409123388584 0.16222503951291414
Ni 4.535581406572414 7.530450900656713 0.6176322447608847 -0.3957513976739765 -0.4950857111999409 -0.6821769178269155
Ni 4.086010610751817 6.259412364134514 11.349506440084175 -0.2312553027386985 -0.17847672548508617 -2.4993076766101474
Ni 3.109820817126663 3.877324000893917 12.393814464107146 1.157988868398909 0.6862251197543601 -1.3482242770818198
Ni 7.117447885586229 1.7746112414536 10.37801648406156 -1.1446109044301063 1.5665003939520312 0.8408574345216809
P 1.0354863737485505 8.425577133328922 7.8864909128278695 -0.7537402318871986 -0.004564736552546978 -0.10439398743705892
P 3.1744587584832216 3.802339506659134 2.6925829990505155 0.30168398897390625 -1.4992467630106956 -0.44700685341484303
P 3.8394022037472855 0.8538343354048629 12.917513455517282 -2.897155037581204 -0.872079111540124 -1.625740153449955
P 6.859026852777588 7.75087543196581 -0.059799900701136645 -1.426035114713712 1.0749679473209874 0.40807392379507146
P 6.674198945630756 3.82681452028172 5.460322312347511 0.5126820841254653 -0.9442132105022125 -1.205006374799028
P 0.1665636266644146 1.9699911384491626 3.8685882606253443 0.24278670041706576 -1.2452068582773137 0.5549841873277861
P 0.8862821710919144 5.373838950590846 6.074661028949415 0.6545848671412597 0.6753884341501722 0.8327790283889207
P 0.11767149529274867 2.2335667716086878 0.6516395338149611 0.756298479532678 0.025824160151955523 -0.22619794282044917
