# total energy = -381162.80929122027 ev
CRYSTAL
PRIMVEC
9.32542263763053 0.00000000000000 0.00000000000000
0.00000000000000 9.32542263763053 0.00000000000000
0.00000000000000 0.00000000000000 13.64869865833764
PRIMCOORD
 96 1
Ni 5.596866923123083 8.753895526799173 13.387899499695987 0.20431322693221587 0.05957785956363288 -0.33791288939895353
Ni 8.01350359087177 1.0892559994458129 4.846557400145378 -0.12273366628651122 0.6866871469924432 -1.3053164219747002
Ni 1.5299288495276748 7.040834026125426 12.235048780090755 0.5135619156272575 1.1974157069359634 -0.5622652943702318
Ni 5.9080096517863225 2.902659048461128 9.38200657569154 -0.9513572777461615 -0.8619929309487154 -1.0988442397179525
Ni 3.6023548396894043 5.939809343221707 12.889243968840578 0.7042786348219613 -0.1786055377534666 -0.6785997419986184
Ni 2.449900450549278 8.941439102886282 10.87936452132585 -3.2146862780000114 1.0110490371798395 0.7829924438840967
Ni 0.9008199804055174 -0.2330320555160436 8.827268885210538 1.2115140940105587 2.0088872320963596 0.8052006045500197
Ni 5.847002736428465 0.7359148004851365 4.487173327269708 0.11655761938278637 -3.426024015879177 1.1660821869300046
Ni 0.5079567074646921 7.308221871441208 3.428430110925532 0.05286316654761863 0.044460801416536334 -0.034778284021449786
Ni 1.1951181980307095 0.9533752651628203 4.461513494145483 -0.4239510000366441 -0.3693101727633124 0.19703854764767356
Ni 9.064450753831785 8.119020748816459 13.125898951078804 0.09601270535189915 -1.608716879419081 -0.6760299243889133
Ni 4.528816934916001 7.041113788806675 8.033446939875791 -0.6236020456065001 -1.0220700708806916 -1.6133836887671311
Ni 4.607047906016133 7.554058664878051 5.392327764150054 0.37419321188722654 -1.2782573609743793 -0.32928426718967807
Ni 1.6760302470989907 4.866910135206297 5.136660110094096 0.44740023219851976 -0.037423434953780706 -0.6773180470727174
Ni 1.7743575041355615 1.745439368317048 10.482255383425924 -0.8305020594292858 1.3271880252368111 -0.11100506499567334
Ni 0.6417019199474784 5.148267463739146 2.864712038376415 0.7237192600450763 -0.8280237730921223 -0.16124184966403846
Ni 8.940142869129824 1.0551156269106376 6.786774074944382 1.7742265032205378 -0.3791721531590567 1.6037351099337736
Ni 5.004376191349703 5.664093895427393 1.3656615285205431 -1.2872389956476993 -1.3993162106616286 -1.3276361685178233
Ni 2.2865003938540203 2.930812499617559 12.76968179175488 0.2596492805003593 -0.45683078148380035 0.67269623202999
Ni 3.4409597488764363 3.8223322359560643 10.814778508732537 -1.1331157593063133 -0.20946314656427154 0.33498877377362307
Ni 7.195915805764859 2.4519240672769844 0.2634842233700764 -1.1187540912680023 1.2410596688781594 -0.23118922538745343
Ni 8.825449495240143 5.568079343222487 6.2992018089778155 -0.22684534659646094 0.9724614067146283 0.4936950015000013
Ni 7.8617043600256675 5.559863645816454 1.4921170580722325 -1.9530906939520298 0.9235487401743255 0.8893119304786425
Ni 3.5075339415911633 3.2537052608932857 7.759722469829704 0.0739518688971178 -0.9017396147190342 0.8988178130865488
P 0.8114264783235212 7.2768604748731125 10.15336264517966 -0.49250406651569373 0.4492377996278908 -0.2290724361547668
Ni 5.419087064611591 2.998608322707076 1.9270184040399125 0.8317660137433739 2.1474133853304376 -0.6523012133134056
P 5.3745115440658005 6.414333477734787 10.638164328059585 0.825691782524836 0.4219105725678476 -0.05440531422375792
Ni 6.524457394497388 1.932498022423324 6.907592386468889 1.21804701003307 -0.14030587084231966 -0.26626704292719305
P 4.695471564136463 8.335379881072289 3.192716996380845 0.160923032872039 0.22214022781130777 1.1983258774550587
P -0.22438552358088534 2.7675056971493843 12.44824099879484 0.6181021988341935 0.7006549220264449 0.3418083677986178
P 8.61968404318097 7.5308010606434905 1.4195326304219906 -0.08813278838319015 0.4283545284209784 0.7664551083507058
Ni 0.6015653006108509 3.5233405330817726 6.717125290362721 -0.8226239422327897 -0.5028815530952758 0.17919791992182685
Ni 8.607104047947441 5.084043277546917 12.501171165545017 -1.231789042209511 -0.3356693447804155 -0.0034779312462714295
Ni 4.464751280909812 4.899306653695015 9.292457339050314 1.4105663296541515 1.2337104276019397 -0.993620814401063
Ni 3.369331177053798 -0.014556984847694139 5.088617397385351 -0.4469772857284883 1.3232717209015403 -0.5814349253201471
Ni 1.6449765894802708 8.337002504623538 1.0479732856583321 -1.8573389555710011 0.4900743740282785 -0.9140289736093485
Ni 8.101218516866268 3.141035503731312 8.329800480665899 0.3104398807896654 0.2548477453466579 -0.0007895857808308982
Ni 5.406730879523061 4.137708706528882 6.81951749915785 0.8268549495950018 -0.05533476801656277 0.9026700969531034
Ni 0.8966347306940214 0.9722965478380101 12.744254161656094 -0.7288632661398607 -0.5453194105445125 0.43491984034332193
Ni 9.169184576268975 5.57518531532623 9.1492141835391 -0.797051235970008 1.5316344353127818 -0.9159012509313967
Ni 4.167279621936978 7.93692321959101 11.766557261527693 1.9958026309982597 -0.20690875557353397 1.3404957980893106
Ni 5.869206567896985 2.928443842249644 4.230414598756875 1.9798728471418805 1.2840222884826145 0.16823602159368445
Ni 6.574460311059422 7.614645936214033 9.048486562697406 -0.29243881622655443 0.5066860144430305 0.07853537450274216
Ni 6.867614299318303 5.484271769342778 7.999897799140324 0.5863439325859902 0.08586764649809728 0.6241185802316026
Ni 3.4254795471806183 4.746155236556205 3.1803104540096907 -2.3723041793036885 0.8587836799827984 -5.8471760699235045
Ni 7.677107617514388 0.4308792911535798 13.21750910613857 0.7450082513308395 0.300727795708224 -0.001812370618390427
Ni 8.717973998526707 7.861620431221292 7.949370793822082 -1.3175170778059504 -1.3785599519508838 -1.778463424120021
Ni 2.204781714660975 1.7857251944170087 6.455165773605455 -0.5345943108175245 -0.5805337536621162 -0.36676195242016185
Ni 3.850131321049579 8.102803838726683 1.19639578094175 1.6663790100172398 0.8420242011362724 -1.6716410297471276
Ni 2.0027464316851304 4.736149057990173 8.650708791989294 0.05002441154724288 -1.1548012146995468 0.903313129853741
Ni 4.1039506763247475 8.764461230727703 9.540494932246322 2.0765918345321848 1.2399404676720516 -1.7095295772627848
Ni -0.34119297079854227 3.7496685422128015 1.0758124700694927 1.45051690190516 -2.0700051824536025 -0.3185614814555352
Ni 9.237166907812659 3.763768581347788 10.40621868428906 0.7395114898823264 -1.4795783380474905 0.6835411451642938
Ni 7.400207841036117 2.233653223365947 11.138962841053367 0.5171385772349223 -0.10092814037564554 -0.6191823192722498
Ni 4.526746691074752 1.9338129070251977 5.997074898988986 -1.6650620909780292 0.19327856638460908 -1.0405881842895368
Ni 7.467136399813761 0.6137163263997973 8.565718754510169 -0.22126733828805117 -0.5268203232990604 1.6006472150370692
P 9.054612432874505 7.950594289281414 5.511890873778021 -0.5956055603935743 0.12694976125038782 0.1050989839238835
Ni 8.539578662116464 9.058240022308043 2.928683505613248 -0.11439763561699008 1.80423821909128 -0.61881105197576
P 7.671736174034394 3.5104527988988687 5.714232030618699 0.6561555540624893 -0.26158994916649786 0.8365896603842625
Ni 2.8120812176951744 8.956257199569809 7.367103522963838 0.8806879362550575 -0.4992609256235531 0.05142951942488562
P 2.6150350358682832 4.990229525101175 0.772501231396705 0.7019456158134105 -1.705659038563785 1.6904602193361598
P 6.533661586710504 4.51690837011747 -0.02922587476788817 -0.5011288320702273 0.4176613103731903 0.5605773651448475
P 8.078539088839621 2.0466411963732125 2.323526984717422 0.7644961848521221 -0.5260693040656489 0.2860694223651009
Ni 3.1429751916546436 0.6062681112826588 13.02447565370307 -0.974394104960967 -1.0723652195908178 -1.297335974872385
Ni 3.004408735631654 6.806299645011071 10.20930865363371 -0.5703354729728759 -2.5630730918925666 -1.187878971090122
Ni 5.819791152965575 5.441356174039069 3.447292643437659 -0.9693596278608533 0.4376814622488591 0.09108210081950119
Ni 6.425579937521025 0.6228393874353509 2.0703436232709604 0.4953050262995986 0.25603045280084935 0.015005986490528993
Ni 1.5746722276822145 4.836257470764034 11.822516325573535 -0.09478320382017223 -0.07016926192623399 -0.49540889886731454
Ni 6.328325104095913 6.125926129634443 5.899677386596435 0.33006691099197344 -0.08786385099251964 -0.6065486896686393
Ni 2.7605675826543914 6.915929314370131 2.6230474390592757 -0.7340766920200003 -1.2017349031366078 1.722656087342414
Ni 4.30472702723497 1.4026554804044655 3.098650524979708 1.9416662541651721 2.964339762957817 0.6605459698207011
Ni 8.933838883378996 -0.08759835821064375 10.931789250165235 1.3726173612142039 -0.29331633373550126 -0.4535379696651415
Ni 7.68812094173292 6.906389406939515 11.040978759572463 1.2522223703631983 -0.42660797804351686 0.25680744017619
Ni 4.277935087793954 4.3680093457336575 4.892690266283458 0.5071241304217138 -0.39694541798207766 4.576781142416338
Ni 7.211302753233593 7.421917425101096 3.9906747666867335 0.0007535903365728957 0.13871075844105787 1.0303783336360706
Ni 6.768345174588191 8.57694563090872 6.493968857494792 0.4077967588742848 -0.004889981102449642 -0.08459597887452527
Ni 6.168198270771277 7.557546372970964 1.725072645122068 1.5567942224078606 0.23709659201082392 0.6409549350626509
Ni 7.806721667737388 4.97913227207827 4.155565025930781 1.6723956485249647 -0.16988949803670741 -0.08660581021570245
Ni 0.8972119743596668 1.2235793881365151 1.8390395685827692 -1.2462772085233567 1.1217018610424165 -0.7459500464188186
Ni 4.1970090695311155 1.6559619374306769 10.647664136172555 0.508868109696014 -0.9414721574219657 0.39831041665040434
Ni 0.7563813057030958 5.887335189641967 0.5292158736128589 0.0511739517706538 0.9509232755325365 0.4203560835965341
Ni 7.060706501916865 4.75297212055599 10.196956198714265 -0.49765552880964614 -0.1384798733771744 0.6377875930782628
Ni 4.962663575575369 3.338706488879661 12.505293002382098 0.4926002257739258 -0.3253227114387688 0.5719012747980989
Ni 2.964495926440026 2.7809343058493714 1.5784853930276483 -0.6241764300527315 0.5581175907504452 -0.0555841650232075
Ni 6.21097398473436 6.585343079360037 13.017937599842265 0.19799011292766547 -0.8010873537125945 -1.0884605824907834
Ni 4.67495563417815 1.1975614587802905 0.680809012617107 0.36229414645679536 1.8888804778227084 0.7773213616412484
Ni 2.6709222941592703 0.36127247097410603 2.790831376969716 -2.7022222234226234 -3.7879870042487984 -0.9609390078973256
Ni 6.757313199524244 8.966757625539381 11.155203997242186 -1.9834685349129388 0.2918104386139362 -0.9893707808754574
P 2.6853860247798815 2.8865167417530184 4.091525483108177 -0.9755811832905329 -0.8988026435778973 0.21121972424406202
Ni 0.1195733675929459 2.9725717425054348 3.8472674837358527 -0.3179315611810202 0.5333434691295589 0.11135884879066628
P 5.835840205446601 1.2810333174425008 12.2076283071592 -1.4999558732625782 0.30322716509131004 0.6828718870114111
Ni 1.626167211877581 6.789756345126505 7.830995743047156 0.39814098095207556 0.7062789530814416 -0.5302859132501576
P 1.2792801379733358 2.2682225653457047 8.414750418827378 -0.5035600672195393 0.2131025430890717 -0.017540065766292374
P 3.281905339163258 5.596913550236626 6.516052391010375 0.1283821228215402 0.7401732918360414 0.7177566147037381
P 4.452217912789825 1.0890042130326882 7.961408981996257 0.20612636888155467 0.2492034025766869 0.9948976242309576
Ni 1.9630201309476691 7.320736588715778 5.217311028387037 0.211825476148861 0.28079223312656154 1.2136339685670388
