# total energy = -340891.86882697156 ev
CRYSTAL
PRIMVEC
9.06387839490793 0.00000000000000 0.00000000000000

0.00000000000000 9.06387839490793 0.00000000000000

0.00000000000000 0.00000000000000 13.26590222181727

PRIMCOORD
 96 1
Ni 6.6989766120726 1.6839870430783745 11.471888115140397 -1.1784000850654093 1.2265200805010876 -0.38283237561946326
Ni 4.662576910566582 0.3857958291859791 6.0984946640560525 -1.2148027920641595 -1.131422173653974 0.44608614137278657
Ni 2.69101113168943 1.499473669255388 4.757298066031519 1.0169042104090358 -0.22243873288833305 -0.34796101766357496
Ni 3.5147092145558414 4.209065751789104 5.0673624715154215 -0.49561767244401095 1.4204347378077988 -0.6326520716239104
Ni 5.216071712643238 4.560961769144492 2.57882478881871 0.42767138631102475 0.012125836729256536 -0.26278988301187
Ni 7.254619553344424 6.5742304528189885 2.7888511677326693 0.9069083034041672 -1.5814739845427281 -0.6741183091884971
Ni 4.942106922292322 4.742021805273979 11.639847221342894 0.7631694956208985 -0.5668385155632109 -0.5654226090522908
Ni 5.572998182544274 7.973756734289041 12.298712329687879 0.3437752617170015 0.04951816133478568 1.4238486485853543
Ni 1.7683083043975885 6.274614886424499 0.5192378734347158 0.11551400860962041 0.7349891765319406 -0.9756079227634101
Ni 2.7048516740988076 1.7966329245870485 0.26853643354084594 0.6772188024906918 -0.6096900635110983 0.9451979430129851
Ni 0.7505788689366863 8.998219725058343 4.753319023387305 -0.2833677071632217 0.009524394550667467 -0.24396118034114117
Ni 8.473865292232604 2.2523284780735375 1.3964753799802057 1.9369832468672061 1.63282405687993 -0.44304349789172087
Ni 6.631740761651668 0.901636560973652 5.031305456611201 1.334230019685257 -0.1707950405701123 -1.1530492650054465
Ni 0.8210759028277519 7.46282590546349 2.5674559660655456 0.49692790661500225 0.03333332404480711 -0.07605605972431417
Ni 7.551225912089986 3.821630266989597 3.651837538174515 0.5622431828830445 0.8860882813350223 0.6335874389539862
Ni 7.537022814542183 3.6798077607161646 12.568792341730568 1.13969212697225 0.53175015650051 -0.41957781066961286
Ni 7.907536038255699 8.782943547739988 6.975210997590056 0.17643552668534132 0.4468639000790756 -0.7371656153579692
Ni 7.169165307217632 0.7403946950983257 0.27876048844443335 -1.7389581669365473 -1.5678628215171966 0.5773918655990249
Ni 1.7840160057698555 6.149678385723214 9.190006861345983 0.33898581074815815 0.8340612375354539 0.18400459728185084
Ni -0.006574031047492855 4.839485690361102 1.5686129341530517 0.00435442031395379 0.08283245921619928 -0.06695435453336211
Ni 6.2844673223112 2.027498972857682 7.232277999326825 1.0020910566556032 -0.7403617536977636 -1.8904143979687311
Ni 3.42117905272063 4.454234600270607 0.562901295143095 0.07203382593879853 -0.25259648741863594 -0.4091399031657405
Ni 5.92993371632377 5.5871740884566945 4.835209352503378 -0.07495742734349671 0.17509701037957587 -0.42844708813478466
Ni 5.395563697799037 2.9403946836551245 9.136279815382771 -0.30379100801458003 0.5153819995551318 1.6111866811158122
P 0.14375311238554622 5.5511723632110845 12.362083342333198 0.5429236566188262 -1.2806939954403298 0.4939472267201236
P 4.03340778722215 6.2687686848173945 12.831324862179097 -0.5277556906291362 0.5231354182483056 -0.6515018573405618
P 2.517782286549924 8.854094993655911 1.4650726249459238 -2.4248858100551463 -0.8557348658541456 -0.11324141052535981
P 6.490471151964333 7.880933554973759 5.6171673686707555 -1.5772566040272709 -0.7881125387194814 -0.6865213108385403
P 4.8296332544744 1.1789567991306915 12.68067685744855 0.694846542874784 0.409072797373231 -0.15309685195940084
P 4.0679502280356 6.181537918512318 8.264591215230876 -0.6822633068931346 -0.3133688815110023 0.24461321210284326
P 4.652932943884475 1.2527548975571177 3.471886014380763 -0.11181419116053001 -0.8391599922146 0.8192203158678794
P 0.33162012123896467 5.613178355760234 3.695455640490591 -0.779948000630818 -0.585091805346444 -0.13332095488405427
Ni 1.2027766717252197 1.2680728521555775 2.7604748834359842 0.8339650782772218 0.29363540763781687 -0.8195463317487304
Ni 2.0008511701834384 6.36569780107534 4.925258078621863 0.03065937675706978 0.4792495154986327 -0.4399093231381133
Ni 6.016230903147401 5.715545799094556 9.249279188151409 -0.21673705451786543 -0.3203450557185193 0.32047566775911257
Ni 8.69624755026409 2.2874600709869286 10.121167193629436 0.3592167930830523 -0.6089745255013125 0.05519490000458881
Ni 2.435736058724328 5.116205899764048 7.1320405674307485 0.20297213952328913 -0.29711436732535285 -0.24889461308701652
Ni 0.7392327058796732 8.910100698664126 9.063051834911517 -0.0216232346967305 0.04707098534587377 0.10670926583379686
Ni 1.5177373843535515 1.0706434515261976 11.525733897911444 0.9521548339467923 0.2718365665951706 -1.432651334478649
Ni 4.050166898495849 6.815193661694761 1.7627467085741477 0.2579569803996009 0.5006385226973701 -0.5452916426303706
Ni 5.689296807072581 7.595702363696284 7.660713938342979 -0.08623068626447085 0.9335562450089987 0.7717736923501418
Ni 5.279917672519896 2.82730467210188 4.834479710287297 0.7474960507496997 0.3967078480499749 -0.07830860320391675
Ni 0.6197300003155349 7.232413051115889 7.216823180163609 1.0669263079634335 -0.06556313061279032 -0.7704428893538602
Ni 5.0073215278165355 4.5673880589730755 7.130342902995073 0.9033768932121409 0.41750010220497774 -0.11886595580098885
Ni 7.820142122138333 7.373682660803222 8.868958847943494 0.6886111034880334 -0.44706393190502364 0.7636646900897621
Ni 4.551082141622408 0.45021643895704033 10.629596391999854 -0.6236262139762163 -1.0525859800813615 -1.0749913443597552
Ni 8.408804772642222 7.14874438904584 4.883695663940657 0.24642455427996915 -0.07272930934392635 -0.21131125551660385
Ni 7.358509728260132 6.06405192590567 6.680814412413195 -0.5811397626772314 -0.14906459087155619 1.7045562924179098
Ni 2.2928802703063837 5.14528282186574 2.602902981949366 -0.3911064427027974 0.6930457422206193 1.195530831208425
Ni 2.3293351894750263 5.3083057398585805 11.389984190206631 0.5608876972964147 -1.098830869981514 0.569362053316013
Ni 0.9142281009311551 3.463616131673286 4.217787922031765 0.6038857981244954 -0.39883852123973246 -1.0088512581975724
Ni 3.4466666789519134 3.0077393006175845 2.8788065359030095 -0.07081280904750385 -0.7557058402540018 -0.4087817484953734
Ni 0.8699338332819164 3.304200637307776 7.997773293046165 0.09735404987114202 0.07736166590961516 0.7150353591178331
Ni 3.9384727242255417 2.557636160141302 6.933875179870366 -0.7189367510547683 -0.4288983167395904 0.49903929653105017
Ni 4.055260798190722 6.795361895622909 6.0989850198807725 0.21643186457262079 0.463730336817111 -0.9331255852294834
Ni 0.960200092483456 7.22029464561403 11.329399413800108 -0.5898899980660357 1.5147392022193396 -0.4073691844185629
P -0.09982683820180897 5.4503639069719885 8.28996826214494 0.7425590184593985 1.203262652635044 -1.4072380366118669
P 8.584045798799988 1.3931725026691533 8.048807460718727 -0.2783689683970496 1.1516639546221457 0.8161753583939687
P 1.9093059977311042 3.23632125151614 10.495238896026594 -1.1393838517032118 0.5491243861128995 -0.125054601110204
P 4.045000487773292 5.971971984624159 3.7838329874209364 -0.498361039517103 0.8557888590205325 0.7003595022732132
P 6.898255043907948 3.9429321524281704 10.428485243939768 -0.7647106148557733 -0.27615679123707926 0.36940247536680254
P 6.190647116365248 7.8864262653209 10.222372647745107 0.4650788804252055 -0.5998612503461346 -0.14657987677648948
P 2.4575528141790572 8.370219842035333 5.936703527146013 0.38672014070964367 -0.2051634907476531 -0.6267742726868948
P 7.042769522084187 4.066799115471101 1.3983987349895506 -0.49601413655148124 -0.2998276524914579 1.349221865108399
Ni 5.330249389611758 3.186388345076545 0.3873520971176687 0.1410931426303054 -1.3826091823195932 -0.4453598047297233
Ni 1.5755921205677346 1.0234659641386332 6.869229785913481 -0.6677484011064112 0.15273072686923372 1.1798262759889746
Ni 6.613431727161202 0.790465372490522 9.281952657226277 0.9347631208329062 -0.9193195325843263 -0.7873666616923923
Ni 2.650241806373529 1.8482063930280168 9.018412233492928 0.1966675374615 -0.9866017027707527 0.5722938822508273
Ni 6.4847699724125984 2.065802923232292 2.4742230994438428 -1.581394280344728 -0.74812828501706 0.6008554959386039
Ni 4.073787365764244 6.862090168850045 10.467885017220267 -0.14628522835420613 0.5970494919289524 -0.1955161974658762
Ni 8.205674192461109 7.091732593528495 0.12130823015349528 -0.2924840676421931 0.25167551826626333 0.9717286423136619
Ni 7.454713734241229 3.8666596151819927 8.163557974805958 0.8957702845094767 0.2684756205427376 0.9987501652078283
Ni 3.034776850065635 8.3616635407685 12.543494150559113 0.506174879134567 -0.40720977602256314 0.15869054399709442
Ni -0.056380043188638915 4.6784386978726795 10.242509866521083 0.5605436836934347 -0.19334747194933152 1.0698810197163835
Ni 8.560271245597763 2.394767328082293 6.0448074991580665 0.043364225918247894 -0.14353543352321085 -0.49455426417650317
Ni 3.7547750994640112 2.537269625240273 11.379106629666033 0.05375173980015904 1.335253575853765 -0.06297120151589801
Ni 1.1471607134908117 3.54749326294793 12.793716111282414 -1.0258102546494139 -0.07794504921691092 -1.3460660930882367
Ni 3.095187600005715 8.189159805905845 8.10449774275651 0.35525549444245913 0.3833622799810043 0.21605699773170534
Ni 5.698097833057849 8.221354702197992 3.4129191402794605 -0.5834871798634854 0.365784418998241 0.41658016149386967
Ni 3.2003104623920686 8.442576783786519 3.471116491099455 -0.2479242787539472 -0.19606101422575267 0.9032262265668897
Ni 3.540568459804011 4.276981393094583 9.323263096086276 -0.5423834678446401 0.6013967131540545 0.2860100298820752
Ni 7.283252345401546 6.177323215028127 11.377235845151757 -0.28242128408955236 -0.23736475807054605 -0.6284326342259241
Ni 0.6823387407823168 8.610467004512715 13.41633748882689 1.2421115071814413 2.0558941969735174 0.67467598146418
Ni 4.516394678753588 0.40402872709737664 1.3620634590165888 1.6343803456234562 -0.4395005177354689 0.48821932309741073
Ni 6.2362384250222025 5.812638065164794 0.37657152007659883 -1.2557558374377535 -0.0012922364488622906 0.17473705593699582
Ni 8.140187670583076 8.890522721189173 10.95967837306405 0.5029424882401984 -0.5663898580615665 0.6833007470187135
Ni 0.2411127628703725 4.922311411734313 6.056640392488415 -0.08142169491160171 -0.5979398649537058 -0.2334826494073205
Ni 8.032019345033952 -0.06894439151076025 2.5637814697376076 0.0353989483245842 0.031591144542719794 0.04078258123400073
P 8.331924955539183 1.6495714965633732 3.866890744082739 0.7614214025815403 0.7070798517161822 -0.2560754471061719
P 1.751331660040834 3.327802976819249 1.54222707756632 -0.5957801382982255 -0.9946004047055129 1.3610358270241916
P 4.6261945024256255 1.032248862366981 8.402211707449963 -0.10457962108530376 -0.7769236119821975 -1.089047822452821
P 8.850958891708535 1.4972802106679164 12.536516776920122 -1.0310118534550115 0.5344158762581313 -0.25566149949720485
P 6.501239039575559 7.937872839463419 1.2257055650670683 -0.7231564455630708 -0.36896744471191295 0.8691359697514
P 2.0468866088849635 3.0550890016959005 6.117013980526806 -1.94329350535595 0.7886007912098096 0.30157728819271284
P 6.940030459732979 3.9194023239443823 6.081262418326709 -0.7296579941270144 0.4148343824473566 -1.6515666275947556
P 2.4880890207129096 8.51415423199009 10.253547857710434 -0.07386907937532439 -0.240505874802689 0.41401522898017085
