# total energy = -340892.4471302404 ev
CRYSTAL
PRIMVEC
9.05579314793126 0.00000000000000 0.00000000000000
0.00000000000000 9.05579314793126 0.00000000000000
0.00000000000000 0.00000000000000 13.25406864560022
PRIMCOORD
 96 1
Ni 6.302134744720764 2.156510360440485 11.510866683999106 -0.38460386569758925 -0.5324471825675345 -0.2820705856183529
Ni 4.387260113223544 0.46506750247215656 6.150603252160686 0.9906938705622551 0.17443932219091893 -0.6878899090512927
Ni 2.667619326507191 1.50310771641832 4.790656758682751 0.43466632957161916 -0.1309552828653551 -0.6651351318532803
Ni 3.4098230782765233 4.123818034346036 4.759005856002033 -0.956426978959585 1.144088456267733 -0.2897792671165203
Ni 4.970344523342308 4.4120367633149415 2.7077926361327247 -0.48057080541321745 0.43635117347320984 0.018256117996710494
Ni 7.220980797909252 5.924526281449157 2.61510749869835 -0.34537268811110844 -0.06745623387044512 0.08344926686459177
Ni 4.86747976881446 4.465973067388176 11.408015513161002 1.1118522219418463 0.2782782084554562 -0.7940325037483422
Ni 5.812460841068656 7.795770101491568 12.352036671340018 -1.4184565310355055 -0.827423163393646 0.680770524397692
Ni 2.0212168105992987 6.781140924027964 0.5665476262255249 0.04211029890648877 -0.28034383273523333 -0.568762214948485
Ni 2.6590253787963953 1.651812895932519 0.37893875928711346 0.26148427682656905 0.31257286797226813 0.7794324944469803
Ni 0.4914379721600773 0.17547138736330145 4.658897684912716 -0.13806129778251708 -0.6596823362688251 0.9865618506717526
Ni 8.472500468699202 2.338414077686798 1.1448786505135233 1.0716090581510835 -0.07201454266508887 0.6240941547515703
Ni 6.744437794342132 0.7982971457737688 4.748455856968232 -0.6023521350887885 -0.22797637487711062 -0.27779175573734094
Ni 1.031744626539899 7.489919743236131 2.801724756285515 -0.34537114544921166 0.15224684525427973 -0.4167264572637468
Ni 7.393339709162753 3.7749798259502967 3.8220364439583125 0.8409844470178486 -0.13416196272811087 0.6381498615136881
Ni 7.625675138528582 3.728523607028925 12.695608030432705 0.4330460203593768 0.7935465652508591 -0.4481152559876734
Ni 7.925313222674847 9.01148316611873 6.640315190144074 -0.31955238461389485 1.1290899259763716 0.8744255002851132
Ni 6.890888081358978 0.4115731211052316 0.3126856709341613 0.09873550359970093 0.5016785339261102 0.3528990783951406
Ni 1.9691097767448011 6.225042777532141 9.415346184925784 -0.5718405967634926 1.9389781658100478 -2.137819056773783
Ni -0.058473256447425896 4.845347410326384 1.5390890993891357 0.7242676763493785 -0.3783200895714065 -0.4263727221042592
Ni 6.065189916635446 2.160811862192464 6.8560377669541035 1.7276090604723149 -0.3393113124083769 1.6351835582510421
Ni 3.2464112906671376 4.47434062026992 0.4500674866785192 0.2700177682188769 -0.5338828865727966 0.4535261425905996
Ni 5.795743846891492 5.520040224072554 4.797150667959265 0.20211596217058092 1.0913152783307594 0.18939954304517706
Ni 5.46838597987616 2.9871529882305023 9.314163996767448 -0.2397309443098775 0.3073900382197481 -0.2473792048837546
P 0.4359322991318587 5.483481987077315 12.536400847588464 -0.5020361743758451 0.32981931375754164 0.6028964376280327
P 4.035949673294562 6.0919860086019835 12.598906648730956 0.047090525729899545 1.7535293798825027 -0.2511666969506448
P 2.5075310149882815 8.73977314808426 1.5431578672568496 0.16983447642905591 -1.102791654401475 -0.7700186573322481
P 6.32483761817805 7.824830141748621 5.885707718480668 -0.5933969827780298 0.31922096941640504 -0.9376846653550756
P 4.754689864980994 1.1110733746395505 12.744449545272962 0.7578676237920109 -0.6452409640325146 -0.6089894378996479
P 3.923848009741412 6.189580291509512 8.053940803169441 0.24311503029076192 1.1228318608818018 1.2734044037574521
P 4.663661032115961 0.9327557514854135 3.6512179231216777 0.516112449963253 1.0020491476740743 1.9438786884354586
P 0.318437005171386 5.652463087481368 3.7659050156225953 -0.7888923543082994 -1.3022701789492088 -0.75786968067454
Ni 1.2640438327330799 1.044739689727456 2.6086126838425194 0.7722246638446314 0.32812161434014453 -1.0898196676218392
Ni 2.0340760368894246 6.321432639949115 4.899260169337396 -0.4393375097950434 0.6587865639274332 0.7885431984989968
Ni 6.039254125019304 5.502698380167208 9.01821433717609 -1.5108362676205076 1.5175543030706318 0.8170634174258767
Ni 8.692800748952653 2.285129790721233 10.196182855903782 -0.5766549874330005 0.7915318488136756 0.5305846754374991
Ni 2.4184038986872807 5.073662067528258 6.858410384762563 -0.6457582699885652 0.2597837491956945 1.0626719035624537
Ni 0.4850165092288601 9.316871678922903 9.202007998455326 0.6703259320256003 -0.7534712944965282 0.30561417726624784
Ni 1.5336076277881405 1.1801056859139392 11.446227337987635 -0.4187419450318789 -0.6671385354365543 -0.7913711548660952
Ni 4.292663297852658 6.74214667867213 1.5933912575061164 0.2768931551824715 0.568452139907234 0.029760004871251973
Ni 5.769128870788196 7.937230646476118 8.11306698230385 -1.0226984484933097 -0.38515716709789793 -0.3741183927852331
Ni 5.214651711268382 2.869074501190393 4.891692242991862 0.3966039754822589 -1.0065894587465891 -1.6063280674719302
Ni 0.6813089762303715 7.882089921912331 7.239425637421737 0.4936680049168078 -2.118600317753487 0.5423531288273369
Ni 4.861575391672797 4.5908343435066685 6.974105387042418 0.3698238791749373 -0.12831244592586935 -0.10461510230892952
Ni 8.141375391728452 7.148027328195692 9.247919964207657 0.450071865493412 0.7063643137063963 0.4111453636315435
Ni 4.495938686961434 0.1023114455656455 10.23822437565865 0.7057331078803007 0.7840841342863787 0.7968771722859889
Ni 8.131749083597182 7.19803341803659 4.565536079729135 -0.147826604699397 0.40307878457332513 0.8525256148882285
Ni 7.426293740479492 6.295886247438942 6.995298659779588 -1.8631244519045267 0.18004844084758023 -1.4279786115933277
Ni 2.2879914213604446 5.306450286552191 2.7326842947972807 0.07784349064204013 -0.6604328412816045 -1.192673821375604
Ni 2.378667078292158 5.187629224472793 11.43346319752571 0.20185628075129108 -0.09613637541395702 0.8500884662016456
Ni 1.2282010033976436 3.1650721564855084 3.6711515350300057 -0.6434964705375821 1.646662248314603 0.43586369231383
Ni 3.422944922568349 2.5673445288236927 2.559771169002261 0.0019743501175514384 0.002645408042647057 0.6758733442063908
Ni 1.1818081750284066 3.049610793669235 8.267755324360223 -0.5636405774512036 1.2738263217862191 0.21654653577361416
Ni 3.5470002330954187 2.6114281299366042 6.924813799282005 0.3428661196391708 0.2242217929306848 0.7085124703976509
Ni 4.167195283592307 7.185391530782353 6.03929578166785 0.3645713725267464 -1.496195120668565 -0.019471992681682593
Ni 1.0309748841211237 7.283918560385574 11.45095898991481 -0.1133203433924113 0.8467694291307416 0.13847293139863892
P 0.12071734516753387 5.807842386556005 7.9253630295372375 3.1335718299161837 -0.8890951864821462 1.2012245391590926
P 8.430391030495619 1.721080657829121 8.034576800651006 -0.6048077957181326 -0.040862028321684465 -0.7417231528216645
P 1.932669265060669 3.2648488855450934 10.514823616421316 -1.15492385632034 -0.3499819047483456 -1.5906867613902476
P 3.9947548702003473 6.232903205996809 3.7907830905974085 0.2924727547882834 -0.9141194764406257 0.1335837216271377
P 7.022975880420795 4.206705709158378 10.489985386936416 -0.4679006661447167 -1.21466395249345 -0.07002656570078264
P 6.391461088471331 7.8172594986651385 10.328020715074327 -0.11674196747945055 -0.2941822812802224 -0.8354455194774902
P 2.2522210383703047 8.374163610752385 5.884051413911327 0.26496220807284043 0.7485700005401689 -0.23602187088940643
P 6.789879764429353 3.8640163843196773 1.7119089505145857 0.6287265113172591 -0.03169218889695832 -1.4610234578634387
Ni 4.97865774146508 2.9113378878777305 0.709084905017044 1.0599452486599101 -0.2806006859410458 -0.5395606536838642
Ni 1.4866895634155042 1.1164796831573007 6.918981868485639 -0.7997951172637323 0.2570761204565444 -0.0008219816806631005
Ni 6.746339510906165 0.7632494150779614 9.335622604244266 0.6512717436076267 0.4673599631498984 -0.3569740197954626
Ni 2.877342440347354 1.635892811553616 9.255515057932676 -0.7222789280541239 0.19761524608675 0.15807347923838583
Ni 6.596167292899713 1.730073060439047 2.4375424119559796 -0.8617365919635352 0.48519981954479663 0.7096175305363713
Ni 4.303810979235155 6.8066420375723276 10.43336404019063 -0.17242846240847726 -0.5552564671525663 -0.08054623428518387
Ni 8.60577457666525 7.205893846501259 0.5410854525917589 -0.9163051712380348 -0.2862902801266553 -0.18581568234866064
Ni 7.662985006356272 4.18913747042398 8.18262452958164 1.1019642734041732 -2.0906372568816574 -0.4637491058701884
Ni 3.1612506117711194 8.640014530611001 12.494861924354092 0.308695644405049 -0.9536530157588737 -0.3976493860276377
Ni 0.1789832239515486 4.705969697769108 10.188813251428497 0.14283480791176048 0.20961432743015515 -0.17289871717667643
Ni 8.365071594417676 2.4056442861219374 5.723782892108493 0.5957600836935675 0.13626692488625566 0.8294507353466359
Ni 3.639985117283458 2.5125841475727118 11.49330568989924 0.8845906137435733 -0.19584581289115302 0.13563880438395348
Ni 1.0647620484087723 3.327605532158174 12.610768832193939 -0.549957423537156 0.1253919298449647 -0.3278115392988935
Ni 3.09243563953262 8.570004193675109 7.9803144880239385 0.16774828332398853 -1.1657957660378373 0.91851503440516
Ni 5.983778336108521 7.7926549086438195 3.5859410492715953 -1.6077599148224502 0.36454206195070765 -0.3793161349360886
Ni 3.1125576119387186 8.220061178513598 3.8808972883530743 1.1430469023770962 1.2852019106130124 -1.0248885141660928
Ni 3.368039648626775 4.376248268738478 9.131536721647485 0.7849842775031448 -1.2875994643109114 0.4220879786859763
Ni 7.610923251467585 6.026041722795857 11.473344910611425 -0.3977200913645731 0.9053486722265311 0.527601167329143
Ni 0.5841910280431678 0.3222621722030405 0.266418718089877 0.051907744612884804 -1.1020648035377794 0.39283088159307183
Ni 4.685883948535658 0.4049071517586388 1.6354065154608135 -0.4018474832693853 -1.2668887141261211 -1.0817119509130404
Ni 5.965512801300644 5.317715693245794 0.15118918357855188 0.13204877303985002 0.929309811027819 1.2203172941244855
Ni 8.187750108511365 8.72891525208295 11.346569239818471 -0.5520024789916428 -0.39333301804047094 -0.30528739005444844
Ni 0.12605573523656866 4.827842562144121 5.939956447417993 -0.3772985902854276 -0.4272191292649546 -0.7041565074218002
Ni 8.112894922233771 8.810109493573988 2.5493008609482866 -0.5210978189929865 0.05926829874301406 -0.31227539133650734
P 8.570647154989617 1.8324759695156296 3.5592074422778763 -1.7666384064606349 -0.921978053253096 0.12118920461752676
P 1.659646157017701 3.390543294634496 1.4285631438461852 -0.027417215670688264 -0.5745644234525589 1.3579219639855582
P 4.717624503568681 1.1951745257356083 8.279074160233483 0.7103996601180346 -0.7392649210891591 -0.2802906108997947
P 8.338003828656277 1.5407707601793303 12.267409378661245 0.3579546385411771 1.1430466452667798 0.5984502289312209
P 6.454389795154491 7.449204897179506 1.3143759311278131 0.45220382423475025 0.8720269181459498 -0.2817214298090503
P 1.7377523730404747 3.171619494941679 5.958115123866556 -1.0252644094482728 0.07911284427276696 -0.3767938827348672
P 6.768743543189103 4.119471253628247 6.069077568639919 1.3539678644338164 -0.367182070676716 -0.020194215559687805
P 2.4198799929726964 8.514003168760926 10.162159335414605 -0.610703078156645 -0.3552266980870527 0.37604440616335233
