# total energy = -340860.9398185361 ev
CRYSTAL
PRIMVEC
9.35112424262279 0.00000000000000 0.00000000000000
0.00000000000000 9.35112424262279 0.00000000000000
0.00000000000000 0.00000000000000 13.68631555520578
PRIMCOORD
 96 1
Ni 4.026472565920992 1.473447307372505 3.10464527662128 2.53511980121275 0.6726198702660996 -1.5384026072745505
Ni 7.352957370031754 2.144016432084107 7.214481245595946 -1.1380844161654982 0.43444495758943247 1.0578492853628296
Ni 5.668268164357268 2.5379605972751587 9.489516280473726 -0.8612557956723749 -0.4620933154343203 0.4630140274763768
Ni 4.284741268408926 0.2257445570039088 10.032575344235076 0.28260691773779717 -1.0590965275063695 -0.06303650753619466
Ni 9.001495129099979 0.06885793901445195 8.05265898743791 0.4868527817671873 -1.0248064959752479 0.4079309704593039
Ni 6.7187828211586345 6.1512537352867644 11.566072766628645 0.4790322572815041 -2.731295743749812 -0.08562159192556222
Ni 5.531657589222534 7.731462828976831 10.375294985534653 -3.499272430951367 -0.03155026400245534 1.0299931823825101
Ni 3.149814012405612 1.8822784624748787 9.190457038606285 -0.10720626007487344 1.0988475821520622 -1.33335584461042
Ni 1.3469639998721687 0.38486141814276903 10.012566743535796 0.2328606995526054 -0.849251572122647 0.286353529264423
Ni 8.346402115131616 3.860574269428055 11.394979920578084 -0.7445616507117241 -0.3768977553025832 -0.0891540305588529
Ni 7.455473745909781 7.568828074870233 9.725194536838687 2.411531500235428 0.5173105840364124 0.36931377230773815
Ni 8.88049158044891 3.8895814570567735 8.296356768016409 -1.6027472920992074 -0.05439837224522244 1.291109534346699
Ni 5.779424979103423 8.094922328897212 3.515207324834574 -0.4848604339275069 -1.1091145112957093 -0.5016736488301038
Ni 2.0158873267041266 7.118365714312329 8.98847368848973 -0.32276497801392157 0.35905147114978164 -1.18326409802593
Ni 8.544477630396448 0.9724514710100903 11.22681584666334 -0.09235428266370546 -0.14988117323558056 -0.3387788369436746
Ni 2.2551451934573135 2.0654389344554414 3.9752863816392137 -2.527811440476795 0.38814813140542187 1.6157984688562106
Ni 7.787045911912067 0.32691156564311397 2.105284075166585 1.5445334027626367 1.487135067348826 -0.6457258740887332
Ni 7.6938900114745135 9.063203198462297 4.231220108385402 1.3627558950390917 -1.0559368988314652 2.4512527300844495
Ni 0.17525596659611523 0.7094997254646254 5.566155757049699 -0.48960823302513745 -2.075708146375651 -0.7952810314434626
Ni 7.587305896518958 3.2783171627582384 0.22257359074830008 0.2531762711815059 0.46827913253005804 0.14601577674290336
Ni 4.695695128731066 2.0534601442064444 0.021587070483847885 0.5081841962551119 0.09516655530151998 0.9831697942710679
Ni 2.6469760045529145 1.0414253639660624 1.2202787080866033 -0.8358484113428637 1.2021470509733618 0.7636844875841041
Ni 7.367012109878938 0.8662806757493097 13.397507295971717 -1.0505728063060746 0.12048806478544412 0.9823357284055471
Ni 6.205714683304062 1.3699864679385465 3.8347137351317238 -0.3770242535781184 0.026262790351270902 0.4963692058980548
P 4.2020118715838874 1.6780873119072797 5.261224944224143 0.2059988421647549 0.46817166041791625 0.058347586700957584
P 7.6635549641929 1.940339593353896 9.416746766157825 1.5108272687594433 -1.0450583042457486 0.12033688391956048
P 0.6397506243028437 8.728451650192516 12.106299374834633 -0.2185360553998172 1.1069979791733389 0.3089617535822421
P 7.726001772376196 2.0531422059796953 5.1545809820729644 1.1593186429539262 0.03000991609852896 -1.125063835536114
P 6.684941102258463 5.422445808334139 0.6424072787210638 1.2893822672429471 1.0953760786636941 0.7673439387135623
P 3.384302805757559 3.584323354880152 1.2621259245138363 0.1840742741775217 -0.5109982686651393 0.2500827198578467
P 3.0958673762257036 1.5056151750200844 11.269763690422586 -0.10852832132040666 0.7653395066890238 1.5198752378943243
P 3.6546625119862832 6.307922472079655 12.37262126558364 -0.7436224267269064 -0.3990447237132676 1.3025936237268987
Ni 8.259277689877983 3.172443733250711 2.768002931014773 -0.7890926432445635 -0.8249528474762824 0.6129581927394088
Ni 2.599603208767264 3.0355152198892275 12.89635529583322 -0.09232497208766681 -0.6219732517538256 1.1939889406426016
Ni 5.647976224591208 3.716632412829454 3.1333448122599967 1.3201632571795456 -0.5514496918119663 -0.8669731577721262
Ni 8.580498161262284 6.196672146090338 13.374144446980232 -0.6266554877208433 -0.6359227719553823 -0.5376793775007515
Ni 3.6609558186510567 4.779004295263708 3.1452525339641904 -2.142670214218497 -1.1452791341417243 -1.6189203023146443
Ni 7.323613541927654 5.566780412154018 3.7143703758573756 -0.21960023499827339 0.29276380366614096 0.5444938293194236
Ni 5.728610969569427 3.2083052950031723 5.427184958137567 1.2550973779181482 -0.10242400819488166 -1.111553459754505
Ni 0.28723381005722926 1.3130942275990487 13.639549927546254 0.6385650946742358 0.6907019245787911 -0.40558432460399824
Ni 2.5548487277901377 0.8161698707638887 6.275722810609401 -1.280408602989427 0.07951650746908885 0.3331442643657166
Ni 8.57710370313552 4.846977617917851 6.245284900960311 -0.26202575115233584 0.7570564407446252 -2.052270998398633
Ni 1.1967381877331102 2.7431242647716383 11.05317762457392 -0.006074745439170184 -0.631707448322454 -0.5958516149661093
Ni 3.613442756000664 5.559533290808997 6.613187120043298 1.4504644514006697 0.34242877499143604 -0.5497388797684468
Ni 3.4621602668138802 8.914193032484338 4.561758040038322 3.1503367080793487 0.3963764328524851 -0.4029432874367253
Ni 1.3696124229659004 6.998615216319625 2.278594072792508 1.47571782665082 -2.5063465857347995 0.542051281316202
Ni 7.313224442812404 8.100374034373532 12.263431927393604 0.7889908275593767 1.7564460393086652 0.29652301359825706
Ni 5.154470638806034 4.977687633609091 12.933691529890341 -2.564075822125468 0.7829284234153806 2.4429591226170895
Ni 4.792974874992046 1.322342489547728 7.504644762901427 0.03502510992493322 -0.4105812635979574 -1.0916811463106102
Ni 7.723383457567672 7.270471102438935 6.027918951343678 0.4440984215187964 -0.1273703937275742 0.19326236843469297
Ni 5.048419537936501 7.378551397285075 5.62597863974988 -0.8190598790306152 -1.717275539756791 0.11094490118169924
Ni 3.8406189701373767 6.605540705689976 1.1256023148352425 0.39449181423526253 -0.567928663303596 -1.098846810821114
Ni 2.6296857756923404 3.1395184245335233 6.854024391693484 0.1877409243958315 0.566876825000314 -1.4395958841172818
Ni 2.9735172656731086 6.42905693647115 4.524504095875185 -0.5793595308483571 1.5203089829976333 -0.1874362486712191
Ni 1.2160482594459738 3.4627493876457978 2.2133924233856734 0.5618436334517807 -0.3445314231567357 0.24559897305488024
Ni 1.3630011780743776 7.2112504321447135 13.50368557213195 0.9404023213965546 0.37732301576545985 -0.7803362372081721
P 6.905515422627969 4.537988417139084 7.4591103981563345 0.0019542955128934087 -1.1636494091187959 -0.25775797701491737
P 8.2712097245054 7.459812667592478 2.7010077359640996 0.6221635133877608 -0.2212251721962061 0.5079728515752542
P 0.6717754197483857 7.241202083329365 6.322502745113407 -1.3296598838160714 1.0638044745050002 -0.8271979347567173
P 6.206191590644186 8.878013532505127 6.3433333096400775 1.1813717660992233 0.9354012686375374 0.5714569881718288
P 5.223322967145896 5.70385854350456 4.2256636703167425 0.3026026441334337 0.10804495392608489 0.373472274560802
P 1.757927211318626 3.315646851028336 8.797372241739886 -4.533187574096102 -1.2310465076165316 -0.13354695485193127
P 6.280897722805961 3.685409008737807 12.026904588940736 0.47182262690694227 -3.4633875441293003 -2.28222737982025
P 0.6750875879811684 1.3460288874405528 2.5349794588431678 -0.3557229209971809 0.12766375659827692 -0.37175606320064364
Ni 0.7225090096132626 4.8178208123000745 9.983783982890666 0.763518137209569 0.912214288998113 -1.121398985090017
Ni 5.901578716045379 6.298515241017601 7.875092358023273 1.3882190723072028 0.5945542363109244 -1.4030149996694548
Ni 8.93129623885859 5.444682781957959 1.9881013959110985 -0.10248957132549445 -0.5830747749164152 -0.8204585591503548
Ni 1.4337891891476842 8.495084991758509 4.189422452917045 -2.8208500950708775 -0.3419736897318885 0.38824069111922815
Ni 6.664976451843469 -0.000127175290699732 8.413306604276423 -0.36845605229313316 0.3625234888587821 0.6888967530492522
Ni 6.627927297302855 7.919738365958332 1.2723111691189943 0.6074385484727602 -2.485984734248996 -1.6669863045839357
Ni 1.8122011368495998 5.067477129292828 0.6418181578891459 -0.22944267500999196 -0.19112886703145796 -0.1241590858791281
Ni 2.9842710586366885 0.04818353826386095 12.874415687962657 0.44267942968408275 -0.40777670426962676 -0.4799012901500187
Ni 8.900372070745059 6.740047277853575 8.313301005277285 1.3319391667685512 -0.6678782418160562 -1.5719022816938928
Ni 0.4226717542027173 2.888076042796384 5.106994045540475 -0.558924917143089 2.014502007179976 -0.7437306701699965
Ni 4.632172941251414 8.066981169440536 7.932793470616119 -2.386658134032515 2.2831889724025713 -0.1345805383227682
Ni 4.9351774224678415 3.732594782037134 7.361814754984017 -0.3301353023360637 0.39850170672560403 2.3199806873096236
Ni 5.761059370946492 1.2296541453259822 11.64853285107338 0.14465154940552505 0.18592392579175077 -0.23780338826986142
Ni 3.0899574656578923 4.757861403184877 8.738739757165153 1.3058008178102865 0.21876462647085548 0.1278460478124121
Ni 4.859227590772017 9.270517624551493 1.6785717001468565 -0.2848538047904449 0.34649317486879677 -1.645628664843766
Ni 0.42543127098841516 6.08323365701104 4.317690890049336 -0.6286799743500397 0.16554073414970844 0.5801074647579751
Ni 5.477187290080921 4.909891982316955 9.586333146081055 1.5425230572008275 -0.8973592262631512 1.1955747970724828
Ni 0.36279463498150233 6.987917530101942 10.831829031111038 -1.7157927845636771 0.36637474428407224 0.30275562477153023
Ni 0.7912098497392032 8.800698436659145 1.3901605835382231 -1.1609744333897942 2.4072004769602415 -0.3874382498225908
Ni 3.932091668198022 3.930595488307437 11.042502381054597 -0.13608797610623016 -0.7845222502650618 0.23546728393751704
Ni 1.3872579945504884 5.422520617328668 7.055296121249579 -0.24816827644395326 -0.7441980967247184 0.7144545469136986
Ni 1.8149129629012855 5.192660630513218 11.88971330898597 0.27555515309733836 0.12341937949962616 0.6678126786854434
Ni 0.3565705266366684 2.0881808687923344 7.261986827346886 1.8196031315831243 0.5008059015131697 1.3780634719304397
Ni 2.5923373851736105 7.569753836177533 11.203453932784287 0.6478835438616842 1.1694832421917536 -0.5273617976248273
P 6.370378631387266 1.965204232910557 1.8074152314245908 -0.28260871751001004 0.6166744652487315 -1.6335429373238253
P 4.0930993266736095 6.450583224646942 9.260886901618282 0.28813324687266506 2.3063594969817633 0.8898174093601515
P 1.8678683799036813 4.582088319414079 5.014556311450402 0.7016512245014432 -0.7057629326769717 0.17012783929975864
P 0.3340745268692901 3.678994137456923 13.060454436007731 1.3208785380790156 -0.01139410076955457 0.9220726698494314
P 2.2833294821462102 9.160613860463702 8.06362131047374 0.08194002930891695 -0.07307589405006769 1.4002778032439496
P 7.955599927710792 5.432797502952124 9.938290763092564 0.22552122846839873 0.561370293359788 -0.6879359317978798
P 3.3128134603605406 8.027743851809943 2.5675531652860686 -0.6435352941953175 0.5646170824318599 0.8320118112055928
P 5.430347508381291 8.790402848787055 13.13572911652793 0.1451922524003435 0.864363488063421 0.04303229650012589
