# total energy = -381164.18461660284 ev
CRYSTAL
PRIMVEC
9.32057243163309 0.00000000000000 0.00000000000000
0.00000000000000 9.32057243163309 0.00000000000000
0.00000000000000 0.00000000000000 13.64159989159917
PRIMCOORD
 96 1
Ni 9.158562082834766 1.1912157389715001 7.979490117473893 1.7228553478374136 1.322898653832838 -1.68375452518121
Ni 5.800676793399249 6.1493407608766235 13.028682722800594 0.21320924387026505 1.4815161785001516 0.020868101698260835
Ni 5.015632952811223 0.9265282635326639 5.588008363856691 -0.8136741892386695 -0.7889733440578799 1.2966104095602702
Ni 8.14648774289329 6.24608830103956 0.3325384453929915 1.0900562091126775 1.0304387545603608 -0.6585924456387561
Ni 1.907594923646196 9.128419352113482 3.2300303393213476 0.5721828105942598 1.0417757768397349 0.1283227303385145
Ni 0.046274777206257216 5.366748230795617 2.3202586006157486 -0.09115717703181074 2.0768725989973973 2.590754874078551
Ni 2.2848637274203 8.265427565631175 6.527723373036997 -0.8764463873698841 1.073735360465467 -0.1366926995697646
Ni 2.957091361251852 -0.002534263600221829 10.722065711759265 0.0583550429001253 1.3146960634173874 0.18577634447029295
Ni 9.246893146237865 0.25898421726680326 2.209175088244274 0.14057815066709983 -1.4230649763417944 -4.717208369327869
Ni 5.235290879499079 6.4728019009358295 4.015117986599042 1.0937588547752453 -1.2183984798352177 -0.5321095967224578
Ni 5.426595625341495 3.699316492831348 9.09439087481282 0.8357723066892896 -0.22969078646505603 1.0814162740494924
Ni 1.9249218674961863 1.3669271674061523 1.0893800984063522 0.0025153102226859905 1.0856688786782591 0.3797676206512105
Ni 3.3831440402873065 1.7246786928468085 2.892810170477119 -0.7376597813855684 1.03079279546567 0.37668383951956413
Ni 3.0812786661777647 8.244484239740412 12.914584005299766 1.234878479768112 0.7826790264087359 1.6639878840772442
Ni 7.532392518309931 4.523516057525779 12.367732981415783 -1.1529875585295755 -0.9396106787331947 1.6643486098507723
Ni 3.1451525479442974 1.703865854967826 6.975658891648033 -1.9284782947199883 1.0444980608669043 0.2800509840851628
Ni 5.6524983354502725 9.253324341104188 9.920348299437379 0.26531907719162695 -0.2053810060750979 0.8601201394060348
Ni 4.894335025289021 1.378960026206764 8.159176769981713 2.228343228207285 -0.5621488233970253 -0.0009366528816564516
Ni 2.2825615460696023 3.2051770333633067 5.1652281377452445 0.5928241409936952 0.638095868347301 -0.20515654876911765
Ni 8.236897293912605 0.12372220836963803 9.43500746019225 -1.634769867752391 -2.2857721597487153 1.5523505848142105
Ni 5.059160025312275 3.7436637756921622 6.782889883901994 0.25869077324183193 -2.381337493150551 -1.574563887686456
Ni 4.889572212859034 3.9332814979537027 11.54985090060598 0.29844645587321506 0.058424205575163896 0.3790497686485794
Ni 6.476194589242122 2.3160317210912886 13.16661321153867 -1.2162930034564405 -0.24162224779531935 0.5005817013175056
Ni 7.539327024078836 5.404170328459797 9.009881246040436 0.7450745857924007 -2.014354682968834 -0.98771627599117
P 8.39338038175418 7.7563099465251915 2.8036486440847614 -0.4011355448040253 -1.2635501366711916 0.5182906885614945
Ni 6.509748649414239 6.052127192100184 1.7852353829424363 -0.23387448552910045 -2.3104146408877435 1.4487667519832728
P 8.841317764479673 6.248036300643997 7.467275272202577 0.18098457950860442 -0.34756866732116276 -0.3311737709029071
Ni 5.401877467681369 0.8040093410430871 3.266426241978598 1.4501322648722315 0.7167176319162625 -1.5627661237205794
P 1.3647181917781543 7.108996202371436 13.135987675173796 -1.7512323563182095 -1.6352028415247517 0.5326166182658634
P 0.2730946316264054 3.445069922449402 11.921735209779685 -0.20093711137113135 0.2236885461350341 -0.14641969704954136
P 4.0762683971482705 4.883224903143143 5.118560032389192 -0.6259522910062316 0.4129808741783856 -0.13181917352754718
Ni 7.796435010147682 6.406075924054668 4.54011506468148 1.5443495688866047 -0.11239500336466449 -2.3861878792643165
Ni 7.0038228648763905 4.309702129651234 3.7611528974996515 -0.2374904850151329 -0.48284186083558134 -0.2672216935309785
Ni 7.87074793285665 3.4862016078770552 10.408063088439688 -0.4475969215903582 -0.3621560782170344 -0.845424485067073
Ni 0.6493717265109783 5.173691217366434 9.94705919544884 0.4210130004542426 -3.446802643187425 -0.923829504639538
Ni 3.80328747650356 7.625365226703505 9.306135635643418 0.009783304639008956 -1.1200838658230194 -2.8123209745539435
Ni 7.701840522179122 2.9787710123519475 7.806746359250019 -0.6608390755810877 0.28503712444584456 0.08973792808678092
Ni 3.928192465494265 8.4677399073245 4.114715757762156 0.7963696365219511 1.5355049740117812 0.10622049912283642
Ni 7.655703689442461 0.9945609846460849 11.550082982855502 -0.07881331075447717 0.19158652339416682 -0.08247970386247086
Ni 1.2216008045718056 7.433333476224027 1.7493577041034003 -0.35006315160824225 -0.48419374687778544 -0.8276823305923036
Ni 5.80680040938066 8.030222924396906 1.7985768500897608 0.3314383374182034 2.5155801885179256 0.026891682184521433
Ni 6.364319760284922 8.586847500363245 4.610669932651172 1.4610939060900578 -0.17715646401176588 -0.6290576694044328
Ni 4.937312184026141 5.608421349185289 7.903547026674895 0.709572793341365 3.1368980660759394 0.9957440313916528
Ni 6.961703198788113 7.501196562922132 8.929600360906965 -0.9869022647303067 0.9259290674810441 -0.8762970062762134
Ni 9.11620940243974 3.971206906520465 5.953890224488497 1.4234946076800452 -0.14352360644866893 -0.2534256681881506
Ni 2.9405193837557344 5.230173885322831 12.35420137459415 -0.041504547001689804 -0.0028837493056982594 -0.9715779756684108
Ni 9.268060165863108 7.103832605333839 9.564316419580544 -1.4997134182344687 2.566610929842496 -1.3498103906220171
Ni 1.7828856666731614 7.2719757290852245 10.997516584055536 2.6332868339034907 -3.314154288890363 -0.33614859840967914
Ni 9.050881511399082 6.018675658223038 11.722608639688259 1.1254001358296102 0.5347364928223436 1.715568327257697
Ni 2.791455471441105 1.9994491633673657 12.508964816851902 -0.18155459307946153 0.3759132799021268 0.3199596473546425
Ni 0.8912265960599159 9.349093221178771 13.261121950242346 0.4693713371529723 -0.39252594875814334 0.8552733528366947
Ni 2.159492709816093 5.8586041500575 5.9277525436716445 -0.41133433971389805 -0.820721068783122 -1.0596940518810525
Ni 9.080334519772384 8.35867989119285 6.9041775587947 0.055496490405407654 -0.7564676581206907 -0.1037625245006471
Ni 2.887028619498018 6.6010995782328274 3.5279223534721744 -1.060828936816444 -1.376606941989571 -0.636819829848355
Ni 6.87758503405107 2.2625782391226523 5.508709867040481 1.227731841421002 2.317041402175642 -1.3992082243288548
Ni 4.549324722141499 7.50037635256237 11.318148930430787 0.42529028767335786 -0.6270504091664169 1.21316037136473
P 5.380533357182995 2.509014169942311 1.7407632044132035 0.7951326787910564 -0.9936025595686178 -0.10683704966091277
Ni 2.174666601471706 3.6740018185459395 10.627255918571269 1.0124227775989145 -1.2319337953174911 -0.3260444200961417
P 4.5405354224908585 0.7697618302940797 12.042462718278962 0.40785743690889115 -0.1705153045461644 0.22202144284525635
Ni 0.6053693048241551 8.963948533836488 11.114084321150695 -2.2758541293040544 2.2905184161844487 -0.2803502604931365
P 3.742368216146628 7.990088540202146 1.7209010649057646 -1.348795833314574 0.14407767917992606 0.27932439033178347
P 2.1979959938635973 1.5634421131475167 8.990578340869199 0.645773696607533 0.22613135124857184 0.18135996057015216
P 2.7263326329903883 3.6378752804272936 0.5437612541764674 0.776482924900353 -0.7707043705453629 -1.3427272585229908
Ni 3.0528416001818957 4.333040842615396 7.686414043014992 0.13063672318367178 -0.21359850888888374 0.37376846564498206
Ni 5.2555072007527786 4.241419617200977 0.3561409305523947 -0.6337890134418311 -0.5618359201422969 0.32007406144531975
Ni 7.208931378250725 0.5986407837024186 6.740805635988344 -0.22183015277005666 -2.257084047785403 1.413634941277146
Ni 0.35052062547356516 1.8909204198551077 10.095015823777787 0.8409443378085324 0.832098200271812 1.5820573678500238
Ni 7.530155580965125 2.010195783194713 2.2192562192115415 -1.5774862035395736 -0.9198242401348867 -0.11080991826573174
Ni 7.040806895643879 4.707746489015241 6.154012231698363 -0.5051466949803688 0.3648523941022748 0.5054673115445811
Ni 1.641268891602288 8.656872959827998 8.938262900774733 -0.8206871302213931 1.0275449779523338 -1.3994540217910738
Ni 1.1071814593848872 3.409987288425 8.048080208809061 -1.1983703575397493 -0.8656564958432317 0.30612736945724056
Ni 0.5976844929875132 7.754073009180384 4.6581424033941286 -0.16810900909751691 -0.20171409874647195 -0.17292417109797315
Ni 4.42907069871354 4.184126059457087 2.639635465906227 0.9655847341994532 1.7223930634890146 -0.018656695869238838
Ni 0.8250458726565503 1.4313323217920766 6.052913848399775 0.048495119386910035 -0.16163599977866355 -1.7013660676153861
Ni 7.872882343906488 4.059593893357183 1.5521278704689245 -1.0799890546846627 -0.36815729010579173 -2.2498721034179963
Ni 3.155097598556422 5.948473107885154 0.8491516687185352 0.5062766948197539 1.1892383133314937 1.1516991787354554
Ni 2.218212315117298 4.382234823056627 2.4521456302939346 -0.8503933990365741 -0.43331855729447305 0.7518622981381955
Ni 8.076294513127676 8.664804766829796 13.401630509270312 0.2655239941135814 0.23391048097335845 1.1151897709555116
Ni 6.562046380421391 6.977026219600046 6.16140624168018 -0.2808541967127486 0.49878372887681843 3.2032307278649026
Ni 5.893966401250003 8.706784624334022 12.868939298778963 0.1670258033356672 -0.6344199621576107 -0.17439561343717705
Ni 4.3030099587613515 1.969697896681422 10.37402715468121 -0.6777571914926651 0.8506507664630187 -0.5843004197934002
Ni 8.747422319431365 2.00080064634652 13.510203991529465 1.0984865992682178 0.5005055966639315 0.4189514899395236
Ni 0.8383267560841197 4.752727570790418 0.3076478571458698 0.09242961598633113 -0.2706194063586178 -1.9852940181574519
Ni 1.8108753452000688 6.325564820786127 8.193908950488762 -0.24618801278913086 0.27437013165030166 0.013812480403060084
Ni 4.930237869673186 2.9480504061499206 4.466942047961136 -0.3011373724418169 0.14508555161915013 0.2658312409413551
Ni 4.144000995834597 7.111205177999435 6.017828418203692 0.9958802998592009 -0.40409822697677494 1.13968415655245
Ni 4.508099830991146 0.7632085359310198 0.558298550746037 -0.6282917377726857 0.014750933056929434 1.623656531448049
Ni 8.45927682770331 0.8794565773973189 4.013604325662389 -1.5698420567307547 -0.24826057904744342 4.198204456749434
P 0.6887352993790065 4.067600264937141 3.9377982472757607 -0.6865562778415337 1.5386725731064856 1.932476360135788
Ni 6.0431794427209535 5.863963479112769 10.746892920114952 0.3446345243935033 -0.5334164884593394 -0.7847323093933388
P 3.8246502281464747 5.291671021160505 10.034965240756424 0.2836890950583824 0.06010982080770293 -0.13923037838995375
Ni 0.39639088984330295 2.393336547498938 2.8661141873812923 1.2709585133201209 0.013320885478622218 -1.1610554231393746
P 6.811175956627089 1.8134105408575176 9.454406367257867 -0.5609648303912532 0.00897366425352003 0.0831348209479665
P 2.808633286134775 0.8603624530449303 5.0756304085706505 -0.5515882742723597 -0.4425706720203604 -1.164547238342717
P 5.4448639469907585 8.276332635187114 7.538579514182779 -0.801713931553 0.7240995262026303 0.2883895858578453
Ni 7.733409300457722 7.7653042987657726 11.262777274688977 -1.6593205605085617 0.7692151875943462 -0.020423557961674502
