# total energy = -340864.1760076017 ev
CRYSTAL
PRIMVEC
9.29035141564100 0.00000000000000 0.00000000000000
0.00000000000000 9.29035141564100 0.00000000000000
0.00000000000000 0.00000000000000 13.59736837990024
PRIMCOORD
 96 1
Ni 0.14653021078744072 7.802288019818541 12.176973322570953 -0.3285574163259825 1.1742402972607646 -0.36859540608447483
Ni 9.066797760964636 5.220378566500382 8.809857296943218 -0.2939493393338099 -0.33350781835272236 0.12781108080941858
Ni 6.072573218220241 3.308266294121674 9.893377055559466 -0.2991059438340849 -0.46469372917164486 -0.9905717431620942
Ni 6.501768876301701 0.861803662264768 2.2036983151723097 -0.9295736062121667 0.09976163087137013 -2.38346405257525
Ni 5.427674179270882 7.68033357582453 1.54602039775005 0.2891909987132181 -1.3937916812989737 -0.018844643510328832
Ni 2.9878978133804943 2.807711446254431 11.11756202606825 -0.32460357388455713 -0.35820197866529274 0.6152642151647661
Ni 6.361103664409164 4.4005050476101975 4.0603100277566835 0.08539610617831744 0.2893732899273533 -0.19507062528802532
Ni 8.824310296754408 5.842144630242528 6.447912708720891 -0.1351173846628447 0.2192690769110998 0.3106823358177746
Ni 3.450074219247337 4.593372744518529 7.30243923866445 0.6388612857584158 0.9536725561428995 -0.13228248631721087
Ni 1.8807944975098256 3.5040697421004787 0.29164457200798216 0.9202741831881118 0.08622348717561924 -0.9476379199130455
Ni 3.747151788805993 8.927256681602252 11.658492741505993 -0.5728916637358262 0.062154619151873605 -0.0631393516626461
Ni 0.5149010086363108 8.561876447897639 0.6852925581876896 -0.6744008734259224 0.34769567981733024 0.9214854298873937
Ni 6.835125268424279 5.620495424421769 11.207889326488798 -1.0067408967227889 -1.4002559488670787 -0.6447689094921025
Ni 2.3826778656399727 1.7119330688486587 3.737821488805751 1.2298774270090946 -1.555544923381792 0.5424932539496271
Ni 2.478740100034585 5.024853829066243 12.040564949730605 -1.2882635802574718 0.2622985451977483 2.21352158981342
Ni 4.459647425188157 4.534202495886103 13.314611236679996 0.7386655969422634 -0.2992550678174395 1.123016466088782
Ni 8.252684259997533 8.894703289985353 7.41909167906378 -0.08382979013246208 0.9377057484009981 -0.041686323995192724
Ni 0.6406923677952127 6.996991062414349 4.365176628003583 -0.05122228851008598 1.109368022067412 -0.5703251885602307
Ni 7.329093257085933 3.1171358929417563 2.1876260070966156 2.123949240770226 1.0670142396915494 -0.40304356046001555
Ni 7.728745597432879 0.3936489152148565 11.751307998055255 -0.808790121673491 -2.419775228301458 0.13226525992603028
Ni 9.033445399119698 2.0008815808545797 6.385392359341589 -1.299079439926053 0.6816819804683679 1.9131370363772275
Ni 4.247623023509837 6.94001333673329 7.0416832272865655 -1.2310768466338347 -0.13634328665014583 0.3593633459632456
Ni 0.7076247050965648 0.013746933098037449 3.1588319194588217 -0.12039061997563139 -0.22429429803983306 -0.8176635129037207
Ni 7.17719601024339 5.723674068056832 13.50369590246207 -0.6723000250328357 0.28985819998357176 0.8170027393912704
P 0.460995602192611 4.096050938969402 5.591359953117617 -0.6036001485632766 -0.8544673119956315 -1.9012433702634355
P 6.850222089593645 1.09787799684225 9.927955743800931 -0.8144288080165071 0.045671276784869735 -0.6924708435537558
P 9.26773877331677 2.0509565753794305 1.7846681596899407 0.30754584707132193 -0.3318941940086994 0.24313457067478775
P 1.5734603799074895 0.3157818342111389 12.198008536411987 2.2013409885868285 -2.6628303518885623 -1.336197427824273
P 2.960742115978613 2.371074216630411 5.774925221080171 -0.7643295773672708 0.30350870088747084 0.4635336474252727
P 8.248354956203734 7.767384169274967 5.633008598842088 -0.4163243367293217 -0.029992946817664477 -1.4416563661907364
P 4.718077132553237 6.522504940824792 4.706728968209617 -0.21406439278170875 0.4942837841239358 0.44564262607746474
P 3.6822958450623973 3.3367969635439034 1.4345092378646451 -1.064271901059722 0.15576874236460916 -0.09096897228040463
Ni 5.670282418050466 8.077087326506957 10.330505744777245 -1.1537833149579937 1.4406312673603316 2.0119363033353284
Ni 7.606716830626957 0.2361412251082017 3.930727276155186 2.369252022740926 -1.653076636481379 2.5720729813983314
Ni 1.8567510678567063 1.9911731635487409 9.195914136921393 0.026728931354412032 1.2638422139903138 -1.1737175919880753
Ni 0.11494115765508489 5.7158794631576955 11.081406765179127 1.088661642757996 -1.3654995192225001 1.0704908853862403
Ni 0.4498917740931487 7.623978303693224 8.833230892253992 -1.0464690685503462 -1.234175025943184 -0.36234736829223396
Ni 3.1569450490714384 7.823061245747589 2.708296324007496 -1.6564990318993662 -0.5079461121023768 0.7799084056421343
Ni 4.344326292157179 0.7832072886691764 5.449784286779174 1.438642261954761 0.5868344990691635 -1.3893159049158073
Ni 3.243679770571254 6.326850138469809 0.8916117550167131 -0.4696433598674363 -0.452057528464873 -1.0584671214524868
Ni 6.053667352940451 5.432848905050166 6.186177494296082 -0.08670042681203778 0.949389098276197 0.5089105328981751
Ni 5.2173406215635305 2.8449285943187266 2.7823617931819804 -2.5387113752187505 0.6027424285486717 0.17968231575741314
Ni 5.2940324731039095 1.8221352182092863 11.830744219425437 0.8707089706654748 -0.8460610902098074 -2.3285982537753056
Ni 5.766558330529321 8.534767202253201 13.008820246459955 0.06701760367112974 0.1489684316133241 -0.8923093225440698
Ni 4.641979863508143 4.571772677306974 11.047073342216967 -0.7571454009140056 1.2175376744968192 1.7150934445038075
Ni 4.347494302014873 5.572993857259327 2.6338917570036697 1.4591419245700095 -1.2373554805536946 1.7905962028278128
Ni 5.251510534339487 1.8963558362536337 0.47802202936620913 1.0103784934753761 0.6074061525729282 1.9912016418911385
Ni 0.2622303901591639 1.1990406342042355 10.547356484054017 -0.1245501506699597 -0.1601056791770662 0.31261451984348093
Ni 6.804132655857507 6.9625331487422395 3.8886299064538026 -0.1425787260368964 -0.2875838021270983 1.4975493207036144
Ni 1.91161059339831 8.803908684884915 9.923671962729427 1.4416244845115365 1.3682156326020822 0.5010355010254727
Ni 1.040816657997791 0.42357592446585873 5.483342894427164 1.0056852017647648 -1.384480688310693 0.21333522792516807
Ni 7.880782199547756 7.228357975892435 1.8928357220745122 1.747071797182617 -0.9116000524528816 0.3485202326011546
Ni 0.17916257039199338 2.2135098553796744 4.175955394054623 -0.9413348605131531 1.4160769750597353 -1.7223475549630598
Ni 5.8105109834230255 0.05214674290686233 7.967147165058316 -0.46819454323605175 1.3125530489324557 3.233395938594373
Ni 0.5764969680424729 4.155992286775402 1.9767721897058892 -1.3489773531977607 1.2483718862688564 0.8928451404428817
Ni 5.850013557953576 8.290588894072004 6.09495274592171 1.5186513927895524 -1.5012900186929692 -2.587698346640414
P 0.7043888756730016 5.737368046151384 13.513772217686867 -0.05862629428364097 0.022922156013812135 -0.4423225605652963
P 3.9795685120023188 9.25795603319902 1.542526296555097 1.000437323102264 2.042245238731515 -1.2835600041342152
P 6.560966995988593 5.450797864126606 2.0352400877657586 0.30500791114081666 -0.41542290796097486 0.45852899512182965
P 1.7837753569118633 5.891049040479785 7.940876838153321 -0.4322016700812105 0.6545864098031565 0.3075669301172445
P 4.3191029878649765 6.685810739295633 12.257306991894959 0.009580444599583501 0.3899363336540962 0.22015816438427246
P 4.151709434739046 3.6665858606947674 9.156644750213214 -1.6585286607348853 -1.3486971029531802 -0.20317885621745654
P 3.983173168379989 8.15198614020999 8.85524530914195 -0.25193648523713386 0.09376813229209657 0.9972183019443343
P 7.03592692550408 4.782580042940256 8.091902650026212 0.36374784818418643 -0.2192143124137644 -0.48943699755459574
Ni 2.5911347723465785 5.704331556257067 5.075924749270697 -0.27578166728584763 -0.07739483314039573 0.0838066502040105
Ni 2.2400152281773367 4.638691079081093 9.841856482342951 -1.2676790712379007 -1.5658637888092968 -3.442334837224059
Ni 1.6830493660698533 7.558555648508808 6.532651862720905 -1.382121186939581 -0.21711320691036157 2.2395738068157818
Ni 3.213959936158453 0.36109273649251233 7.339030217038397 -1.4108779473572992 -0.8125259345668394 0.8072700854845386
Ni 3.034851249805095 8.169266193979235 4.969756470526524 1.4964434892339453 0.523048257851138 -0.7757853846126961
Ni 6.728351258763034 3.1555050445906683 6.2655997801390315 0.42119092079300363 0.990125913873927 -0.20264689497338648
Ni 6.9337609301812995 7.206423456027283 8.869549663329318 2.8214849004413987 -1.4147328023270151 -1.9471954115135175
Ni 8.547160531139316 5.112684812041741 3.8597350552532106 0.6368547968513483 -0.4754705080721747 0.1267615564989817
Ni 3.9481671239700376 1.1668031145379587 9.627140665838315 1.7956399358993076 -0.5102007124645085 0.1031140922833708
Ni 8.592255897266147 3.8649348649815143 13.529613196010487 0.6790609979057531 0.6964835642575746 -0.7820804735927885
Ni 2.4431394731293476 3.9118790110546264 3.339554339865791 1.1264059513863052 0.9751075860882238 -0.2529672404944934
Ni 1.2796901754788608 3.7804762795964644 7.501178437713729 -0.5698729315141605 -1.0296635669572332 -0.08380356488021697
Ni 7.770208436127574 2.7171769709956792 8.522749203567237 1.2953590536516724 -0.6225597203849149 -0.5077939027952287
Ni 2.167857068163512 7.414731717110067 12.876966003919437 1.0870791287622248 -0.0037391553274580764 -0.643708072327756
Ni 2.0357296892892207 1.0914397832604834 1.2867610619970173 0.18266556675545317 0.03775279326874143 1.369338947573248
Ni 4.550609256615395 2.498872291710903 7.357086944192108 0.5241188652074974 -1.0240140819809396 -0.015529720204482933
Ni 2.903708648188621 6.593343870927202 10.417052801176986 1.3910981936272107 3.0449317628792723 -0.2692173838047686
Ni 3.3759186336634115 1.6841456275455366 13.103498218482729 -2.4924094068284175 -0.8928068310057784 -0.6854082802800195
Ni 5.266765291484163 5.552508632226433 9.079996563324832 -0.28292033521315796 1.1753769819683693 -1.2592941896083152
Ni 7.805613965651546 2.7007144681574538 11.163493523829075 1.6582962330091056 1.320075839672062 1.196111129191927
Ni 7.657544343622404 1.7578181148520426 0.006352742348069209 -2.2161148044618932 -0.7868686390100513 1.6152798773485793
Ni 5.271178208441363 8.73846744899752 3.5950622316876304 -1.2358267026139942 0.408446990863774 1.124049792449303
Ni 0.48841886171737064 1.6549181817616443 13.166290775160656 0.34185233366267576 1.5654195021830266 -0.023875521066016946
Ni 4.296230142499451 3.929437775368535 5.1032012212419335 0.09164877195624861 -0.12409763651357338 -0.15639094932964034
P 1.8056912960740383 6.036201492141431 2.7788258854053276 0.016167096678165703 -0.9935894469424954 0.016408266154694325
P 6.410063816755354 3.435451206003902 12.744717850475789 0.3554827799619168 1.5422219810206408 0.1747738227122022
P 7.510747499747234 8.885394357793535 0.7885167245450488 0.08711643130353383 0.6523258959037539 -1.6676535058542892
P 6.098214588329442 1.7020016831070883 4.2350364553127555 -0.4477038794818677 0.11850343025524752 0.4298606806528597
P 7.979650120091997 7.278981101155127 10.919148918356228 -1.8896932035319909 1.9094495602233115 -2.5323070143543034
P 0.9840061586435307 0.6078890657232653 7.837863562774759 -0.53407726197179 -0.8761447969690652 -0.28264985516059066
P 6.667564488971549 1.0933257246127182 6.276273464964561 1.0513446514750926 -0.6903252579656627 1.31244583393063
P 0.7217646200625802 3.509708985454205 10.944427035722214 -0.17888013157109195 -0.7983208467110509 0.07376314992507942
