# total energy = -340891.84641132195 ev
CRYSTAL
PRIMVEC
9.05353879631339 0.00000000000000 0.00000000000000

0.00000000000000 9.05353879631339 0.00000000000000

0.00000000000000 0.00000000000000 13.25076917413563

PRIMCOORD
 96 1
Ni 6.181068269538239 2.0772711182962107 11.307332264865524 0.38351500350878465 -0.6258772147939221 0.8364407935112239
Ni 4.7881813148267325 0.36279974696176637 6.124267272039607 -0.3561127002364318 -0.41809376992491865 0.3094163246211574
Ni 3.008445697860642 1.7950360976515796 4.7977853088570095 -0.6214358911931168 -1.7945019656401222 0.5075043965792679
Ni 3.3070676238548202 4.178289669040963 4.467828179489727 0.3191914017300503 0.6829348790388625 0.8730227064003159
Ni 4.82628765991858 4.404275052703973 2.3957519817954886 0.26974086040840645 1.2126317525547696 1.3668002403117945
Ni 7.317124433666344 6.343171882954614 2.6823136886647325 0.16877055394091578 -0.6133847387538661 -1.1163506240328323
Ni 4.885543071804097 4.488862266339784 11.536411242759439 1.2096407882472457 0.5901594496773385 0.5043671365018669
Ni 5.608332347263266 7.695861125095961 12.430228204896336 -0.0836690961848817 0.15546355241936452 0.2793480444808673
Ni 1.7807224527026104 6.420561533191039 0.40154889331318167 -0.032585647245505174 0.8765525739304452 0.21993344996797606
Ni 2.8365461553900055 1.530862887046919 0.2574600115346665 -0.8336233786670869 -0.6320645745515565 0.9122050330267322
Ni 0.811357330134867 0.35872293840988734 4.718108734702741 0.9751428102015335 -1.7135728940942232 1.7313284183054312
Ni 8.366339052980718 2.3410459731907163 1.2020845284401407 0.525879556652346 1.2948954837516924 0.6807319578502729
Ni 6.76490383046434 0.8601866866609706 4.82883170434025 1.481546774627771 -0.8284927423087409 0.9963130165212454
Ni 0.758688367775204 7.66469884431522 2.8074136780232806 0.7513959000247382 -0.05831390524954474 -1.5043010376051513
Ni 7.629190864878245 3.841208309939119 3.6906171765462146 1.1227210463355504 1.0213910425357957 1.2774860300259936
Ni 7.533793725835054 3.8697903321427214 12.474963551146713 0.9609305232568934 -1.035403554764804 0.5841875483646197
Ni 8.425558250710768 0.05300303794386116 6.63436900172384 -0.9606189055537455 -0.9767806029152726 -0.02226138250136166
Ni 6.472347775511156 0.9226099317961046 0.5766063101406806 1.459856691248847 -0.7970689765818207 -1.6332457177983808
Ni 1.812264982115772 6.336988315908349 8.989388206802122 0.6689609333572738 0.32470024736342146 0.4221617693467052
Ni 0.13110429633524417 4.725748110798846 1.4399879906678699 -0.32709497284784317 -0.29308184912719204 -0.08187986549494285
Ni 6.493904251553847 1.958905151147051 7.05205944948327 -0.08567764197447825 -0.8643136086620921 0.05368720511081076
Ni 3.2346664735341966 4.261392102302562 0.3468999220032721 0.030178580465909318 0.30261292854607885 0.0843003020109774
Ni 6.172929138096668 5.799932390308827 4.730458667071424 -0.532279803751735 -0.07391458790127915 0.038519496231436884
Ni 5.356001165496841 2.8996764819106646 9.156732008514807 -0.3844331444476799 -0.3722317172854815 -0.17848109636046033
P 0.2795814284026684 5.486906283977008 12.398161475582766 -1.3082220256572696 -0.8664761635310496 0.17415238707811945
P 3.9035871927338044 6.2001440759313295 12.65973179376312 0.08233546497512273 -0.848491554028171 -0.04103789177791642
P 2.223983715638427 8.476982351476197 1.2604698952405242 0.1266715678883367 0.6470829023372597 0.11981752108098073
P 6.777153268551599 7.805617176782458 5.815298961828046 -1.9954892135228988 0.10994885581701709 0.38864409720523385
P 4.693101049643891 1.008555176261989 12.4699143925205 0.21518025155370685 0.41486703545750486 0.5890579890830435
P 3.9686459230331663 6.0770521614935165 8.210322133744729 -0.05738856522179794 1.4560002936172345 -0.28741950863509214
P 4.866204712783858 1.014702529152786 3.9386714665517957 -0.37756444235230463 0.1897589832671248 -1.1062950395690432
P 0.19672072462882303 5.623370275321607 3.4641881694787156 0.5112420092448292 -0.4779806760885381 0.7212749122696416
Ni 1.4848165883685784 1.1908843955075854 2.7274591602257914 0.20403246246700343 0.20354909507268168 -1.7273259820142577
Ni 1.864947524783736 6.547464987491925 4.707176586520654 1.2778637250803864 0.44526775923654927 0.0404226267914207
Ni 5.986299487889173 5.787040150962001 9.288855733326493 -0.9907848876141645 -0.7483044055836081 0.07326075636736414
Ni 8.435317965609558 2.358519303204322 10.259792550241572 1.3830807226393729 0.8273969381414009 -0.15881909915515874
Ni 2.4977174632868007 5.327681695920386 6.766597747586385 0.1946258244411229 -1.0888922707115634 0.15870031418910735
Ni 0.5106177813996619 8.83216173477348 8.940969880940587 0.9463479974570284 0.2096732056925486 0.2289117422071864
Ni 1.024335494507437 0.5183884338093394 11.759010602886132 1.726677549796981 -0.03149935615986189 -1.1582503495904117
Ni 3.894352583089308 6.836001271188094 1.5225399687663452 1.1687455926947807 0.48615138482478853 0.2690188946407173
Ni 6.213642902382255 7.968209681297661 7.9369061653105915 -1.661916603370512 0.8049373235863041 -0.38270767711614084
Ni 5.150069370424577 2.924483178406664 5.152428722653357 0.7483851382228724 0.04472896747625845 -0.12364717923971608
Ni 1.0434565685948642 7.406211256119132 6.843545585126093 -0.1922079590282496 0.19741161471637617 0.15769886950778647
Ni 5.244814654669335 4.636543592340786 7.259288616675198 -1.4594059768646737 -1.761559449275831 -0.7227355559755683
Ni 8.06412287205628 7.035269661654135 9.153816768999581 0.45110622029519726 -0.048331597225852244 -1.1264594303320599
Ni 4.702634426071003 0.25429851576225665 10.29796770222881 -0.06312521059525902 -0.6998195706093432 0.3929902899890716
Ni 8.480069608229895 7.332225736496756 4.733188309039872 0.12196336377938995 -0.2678775819474225 0.10742017585789243
Ni 7.053693613248791 5.898299090100446 7.105963314544413 2.032716987526106 1.4274667049539158 -1.3059265447548734
Ni 2.3600855654283395 5.248327427749789 2.6490274476657576 -1.017324842886222 -0.2512975661015543 -1.1355181981002187
Ni 2.1582278628462936 5.376896733202231 11.38768423301928 0.18464968706501747 -0.6890289077517424 0.06177949520064198
Ni 1.041247505111279 3.3517196775476195 3.948066323834241 -0.10015655231694363 0.20071291117546725 -1.3684416325699593
Ni 3.672278328216909 2.3622131470621204 2.6059362240736554 0.36285336139437513 0.49545492161390153 -0.28968207941702373
Ni 1.1767699284136939 3.483684060075243 8.078715366002358 -0.6912413420220289 -0.07618024400700428 0.3317101030223513
Ni 3.6161735478571617 2.75168733558818 7.5658450641325485 -0.23986721277742562 0.6383295816246619 -1.5019865305393616
Ni 4.365924262062712 6.879974309465856 6.1193249451720275 0.09458111511169517 0.3421130435232302 -0.25707534912559593
Ni 0.43181758980773466 7.237326542091258 10.941292256343202 0.8941831425280149 0.29624147780209625 1.1363964869401137
P 0.1359859644924131 5.568813650108143 7.777671618361216 -0.15442097008746308 0.23617125198307712 1.3892292587392718
P 8.680741297220344 1.566226009862019 8.040434287610374 0.030954025179353143 1.5688048737154918 0.8810437769325795
P 1.767866427511253 3.4869704946840194 10.24689940554086 0.14603711689914203 -0.9764658998883312 0.23634711543930906
P 4.035904663277247 6.194395078750688 3.800691912800836 0.3253962449891815 0.3070483386096131 0.027203042777353147
P 6.787845497953707 3.9061493442332087 10.2674780993859 1.1543556425216959 1.6264706038580765 1.119391467741685
P 6.344783412872967 7.636850158759857 10.3608164636907 -0.2461257920926277 0.9656346136007822 -0.48531526207673836
P 2.7241464703543 8.530280534787128 5.861702875291639 -0.701012819586496 -0.1908804984660777 -0.8761879915021749
P 6.889534846509571 3.918661334947614 1.6785940075116899 0.00722737098637465 0.7381102386594256 -0.9299646710029984
Ni 5.260957114469468 2.9865814014964673 0.5631627102768451 -0.5036053186351779 -0.6663980577261039 -1.0525677252489165
Ni 1.803691280808578 1.1247030263886963 7.065389880111265 -0.9637939608476175 0.34205519370210125 -0.7492585419667612
Ni 7.200496745979679 0.5509684987766765 9.362012854142522 -1.0179408792036662 -0.09521386359968763 -0.13391745081747258
Ni 2.610135255400241 1.4238681647149036 9.317662283293998 -0.5853008360334565 0.3262984450884767 1.4569405460433167
Ni 6.4965931525973915 2.021899674584702 2.7822375971415014 -1.368796701916533 -0.23990166555978687 -0.8863968137143767
Ni 3.901260433244946 6.78252201709982 10.51422053160963 0.9251497661128582 0.8362695580406824 -0.7244617946380556
Ni 8.192873248286064 6.9112452327130045 0.27723565648218906 -0.3617238757756222 0.9622944934839556 0.5974927501139581
Ni 7.528669422836244 3.7665890425960433 8.061384176548968 1.6256141693950519 -0.05295315515826364 1.2565996734952876
Ni 3.2470245540878606 8.426418336903147 12.33832120508643 -0.7744862061852984 -0.5977292916047964 0.39248429688693054
Ni 9.048749545092384 4.953191114219465 10.111396900023951 0.1419215520688717 -1.4952186156879086 -0.6070048033694514
Ni 8.899447635634163 2.3874634669626107 5.9434871132941804 -0.9326797559413162 0.5978023109345769 -0.216950198969936
Ni 3.4447447894076175 2.653909115822926 11.523040976560425 -0.30887844983981644 -0.005544326856996903 -0.9066671339276385
Ni 1.1396685261361004 3.1879321059019525 12.694607836187167 -0.7450990112724329 0.2428697470491753 -0.8615946670690322
Ni 3.2554624523120474 8.543390059066764 8.046887650114881 0.3390521452097193 -1.971368152104979 0.4586015002309779
Ni 5.621831173714191 7.994646014789748 3.446021338387886 -0.4837911121227281 -0.5322157832830189 0.7380457039700773
Ni 3.1762530407633247 8.537876453896668 3.3865920985561195 -0.7074732304998589 -0.698955422836835 1.367231671422258
Ni 3.614417161316934 4.4883552681632235 9.558932756626422 -0.6406116927906194 -0.8227465838535831 -0.5897138774994877
Ni 7.274871567773341 5.914287639739838 11.397198597014771 -0.5233634750987116 0.5886352997233282 0.21836250593643042
Ni 0.175626884422243 0.2876879671043173 0.8471821834321919 0.6263757516968954 -1.8830672135750406 -0.9485547753003599
Ni 4.476069615920497 0.30665513103100306 1.6096902392554477 -0.06765523725512865 -0.6307857078391329 -0.41945851148292923
Ni 5.991043542255562 5.46136625083277 0.4519970225887322 -0.2631236122022049 1.0934953167012134 -0.18620828980138898
Ni 7.8255983370622655 8.752725984753079 11.665923926961838 -0.9214687177168452 -0.567588506355358 0.25383678758364026
Ni 0.2792165707863221 4.910992569559665 5.789817776686443 -0.9026125042422906 -0.37464186938887084 -1.0536131357942953
Ni 7.777795651843697 -0.1461856813801478 2.677662885748676 -0.20949271425062627 -0.28566961582352096 -0.20993108733962557
P 8.56385105690653 1.6132319836602782 3.6908299347095928 -0.9120818771853066 1.2952127578817951 -0.3701182704869045
P 1.8106534521974187 3.0447775493345275 1.6021368717785818 -0.5657185430261548 1.0786153142655877 0.023700171830417248
P 4.7755878422625235 1.0133173377061115 8.295285974597414 0.8316989079508643 0.12625633472778902 -0.7032049421418083
P 8.412856135680151 1.6088410173097087 12.376204833122147 -1.1732216261882633 1.255348831807322 0.9086741370553383
P 6.2337779728228035 7.884392018465558 1.2787073439345173 0.6456659673850752 -0.7995063823787198 0.8056924565847737
P 1.9315000889961784 3.1827444281310737 5.9546311142857595 0.3771124424165505 1.1311069564064005 1.2787916362112943
P 6.943376242152531 3.9764591270755196 5.894206890532493 0.13814357308367822 -0.2812025811911028 -0.11567727366036205
P 2.278241574069275 8.277053052672855 10.210697925026661 0.03728690937591643 0.903954620092482 0.2179354457013408
