# total energy = -340877.58094197174 ev
CRYSTAL
PRIMVEC
9.13784142370483 0.00000000000000 0.00000000000000
0.00000000000000 9.13784142370483 0.00000000000000
0.00000000000000 0.00000000000000 13.37415459075693
PRIMCOORD
 96 1
Ni 5.177985332953958 9.071117039974602 11.52064431344091 -1.6506603137304021 0.0020751373614738455 0.21777860840850236
Ni 6.674398266662136 6.05221177274875 1.162400152553104 1.0101296106893636 -1.6182924389226578 -1.05294336342078
Ni 5.700313494310169 1.1940874457273827 0.01884588443136142 1.1571851415506909 0.1637288777519503 1.3469739496144866
Ni 1.443998274525532 6.937613792770246 3.402478959644685 -0.3629315229304782 -0.018355876799368388 -0.7635934705321946
Ni 7.93301714947945 6.506517841539478 3.333079794356254 -0.05202215870356202 -0.5322096126354319 0.14260649395103828
Ni 1.6163471041705608 1.1260013882709852 7.895913857613129 -0.9158953373941259 -0.8378790686196473 0.8032542794569263
Ni 0.3176487344911475 3.8749930915259525 11.710770813839048 1.163505941562396 0.0764466102945135 -0.05455212421426734
Ni 4.625529707977596 8.377819863048776 8.330653980057642 -0.6707583915773286 -0.21964497219327977 -0.7069199290995503
Ni 6.302460701684584 2.438487847078832 11.285646442067112 -0.09026783244832197 0.4244914459211464 -0.8845386774597155
Ni 6.469847683363055 1.3853972966074168 5.320479920441452 -0.5172601904144511 0.22792366726230426 -0.2542651333703105
Ni 3.494941123243974 4.80972118028314 1.1678362544965761 0.8742444946225588 -0.9781216903241993 0.9652096102482215
Ni 1.8408273199099057 7.630901831854513 8.373184236025876 0.011683349875199233 0.20928728310803957 1.3366386291267496
Ni 5.3133898691757935 6.287438090161524 2.9729812169025913 0.36501205960859073 -1.3780213058385944 -0.3578240265005837
Ni 6.303721723819732 7.198087966410644 12.419253255867684 1.6622449332442084 -0.5505714029720711 -0.9759246826728805
Ni 8.81088045021474 1.0019003620576805 5.773381502984555 -0.2476766815195154 0.8901179713197057 -0.579349503546028
Ni 7.841675285255299 6.968828659535923 8.878445650702272 0.2612438786809888 1.042116190898289 -0.6505878301667247
Ni 1.578370234651196 1.8003832331696006 11.971821585281821 -0.18650370955462076 -0.042345554845746425 0.03429954461281835
Ni 5.926411108005465 8.558365336572264 3.6272177763001503 1.0358768948567967 -0.8839928322585743 1.751268608872784
Ni 5.536590787096873 5.507952791650847 9.951761899680463 -0.6709142004289025 0.19403498493465937 0.7856962159685049
Ni 3.4526237789840657 0.6794103991085543 13.071697884535515 -0.18218965556029912 1.6208380881626474 0.14874963073429867
Ni 7.859576316869457 5.928860049543286 6.106037314668112 -0.4316398840404695 0.5647641495326853 -1.4729760022396245
Ni 8.92009593252837 3.4974723053558274 5.549003631070671 0.5775055083587539 0.7986486623641149 1.1930114072206808
Ni 2.595932857141069 0.27424855600649317 9.936247672281528 0.8598262623146998 0.5117505734501316 0.9366030022551224
Ni 1.3263759779775859 4.0983128013873 2.9954493417279564 -0.7989577089641015 0.47237335720408974 0.3169301164996994
P 1.3843281691450091 1.2044680337384506 0.835725971954094 1.1648593702664969 -0.22378573383453074 0.7249281927515128
P 0.34017442771833384 5.89926258073356 9.763560742498813 0.48077340834232685 -1.2767144419672916 -0.7413997080439748
P 4.82369294002691 0.4336773914711973 2.2659023473374242 -0.6700721641435815 0.5170750709868385 -2.9624584867747044
P 3.01493944398923 2.8961018145139317 4.074543447923928 -0.5018615964711938 0.9027665133216517 -0.9149383727974953
P 9.119310016356973 5.424405506276555 1.673401045512731 -0.9981307864562746 -0.20124744352269858 0.1444178361281642
P 8.415321564807073 1.8853377461439833 11.818793807829225 0.2177117597263089 0.23669678546924397 -0.3526337405488959
P 5.488699359485951 4.1079806377567625 1.7200899331744832 1.1015948058798966 0.21335553964014223 -1.099448706071171
P 3.1308072749578404 6.807701099325393 1.8112079202804379 0.006825250451949536 0.5565530744768028 0.6208316819502147
Ni 4.840917771365698 7.49014252047908 5.987395235002177 0.13649601017792623 -1.6141645327972134 0.2743865867105339
Ni 2.3225651890608674 5.134534896340729 8.9746598120457 -0.5110458340736231 -0.01776837972701456 -0.26649638532917974
Ni 1.8340013522653038 2.0468490956999923 5.566202876453094 0.15430038534919877 -0.6848506080043366 0.5815256852617404
Ni 0.5320956001986678 7.834566044522368 10.661983272957784 -0.21628299769958237 0.7755915234343351 0.5939885936154415
Ni 8.155477902234248 4.682769147503415 8.064187209922826 -0.5836049363882723 -0.553736430963614 -0.08930778252789781
Ni 2.6286463299224274 8.809866149801685 6.591813196004012 2.0430080850394687 0.09190639649300945 -1.4239473789467476
Ni 0.9713891090920502 1.7423944906359408 3.122089774110518 0.11261740378811574 -0.5944457357575182 -0.21157787891442917
Ni 0.09876453292255802 0.8059503152339664 9.838603438734108 0.43582049778072035 1.3089033679950104 -0.5264050901385128
Ni 7.741305233570818 3.719942195952184 2.2091965577586534 0.025388358166117567 0.927384568980648 -0.2380288740171062
Ni 2.5211944510296918 8.895670482041059 2.4434049196217513 -0.3523995130509028 0.5313974011467817 -0.8736734526104374
Ni 0.3357772983601244 7.976650342923859 6.057422170005714 -0.9926461091926195 -1.55326178377457 0.6613041881429643
Ni 6.775517621354458 1.571727023837775 2.4047664703735117 -0.7359870216688357 -0.016294880505281613 -0.2946152550525829
Ni 7.5127129891299065 9.056761490885352 11.129850812406282 -0.06263515833271793 0.3226127687067734 0.30348993183439343
Ni 3.944038622346049 1.7437012019788833 8.042454681342965 0.1915998931306055 -0.3739710685740914 0.24742445629939325
Ni 1.9056420300881673 6.12902446889403 11.253307620789673 -0.0213650959393374 -1.0147843358525557 0.6909286958776165
Ni 2.6558131328774497 4.3728866645532944 6.27423025397209 -0.36390417125639263 -0.5301234195303645 0.9175259310190135
Ni 0.7480776232881067 5.98918807951606 7.288981162614247 -0.05785624888683584 -1.424601724701295 0.05387489564158463
Ni 6.700386288056043 8.418072055116344 1.4523530030629612 0.36429112228216615 -0.2713097475574231 -0.5322309527916704
Ni 0.5966992262369155 3.2902260587968297 0.7277724255597666 0.40299650927216396 -0.08779854497222297 0.006637559921175666
Ni 3.777519735615687 7.02883686505413 9.989410720687859 -0.17010984157762962 -0.0681889982714116 0.5080376433749185
Ni 8.38169430786981 -0.10195181205835072 3.418741576267306 0.6739709849773554 0.5122655654133371 -0.08457515293891886
Ni 8.590676744325025 3.208533755259024 9.72801271126584 -0.4256468996818282 -1.8442021610787271 -0.11538519634124
Ni 2.285840203835091 6.565593987218662 5.5930315792704315 0.6695103781028405 0.6022006971125886 0.8922141917271021
Ni 4.374896989696283 2.758796607247816 5.862333821641017 -0.3739435577702657 -0.7753794074235292 0.22066004372135545
P 1.2007489322239218 3.0873294248199343 7.523818207976605 -0.4746359279860213 2.5095275545659423 -0.47810923124660243
P 6.122445222971521 7.824733727004841 9.88285800540453 -0.6154585905637594 -0.5988418079426848 0.14407819340055833
P 0.5496859451998173 5.523158160005087 4.722293967382881 -0.5038043220198614 -0.8549177692694888 1.2741852477875346
P 4.838624173134378 0.3476811645590841 6.469547048375762 -0.24254990181591127 3.3565337822978383 -0.2401328077339864
P 5.09754491370974 5.4684499025911215 5.181883536163045 0.7143059371509763 -1.0672839484131682 -0.4380732983706391
P 4.157014295562564 2.140018528235951 10.551806489712144 -0.5246292291850125 -0.42531368471212555 0.054310954737738726
P 3.161391630655943 8.125249922356947 11.748085189845384 -0.19708148507046702 -0.6054703690027959 -0.26395844939867447
P 7.446454499985316 7.868211577142747 4.9683778681361055 0.1123536086037678 -0.1638515193727436 1.2792220388804936
Ni 5.769477817070534 0.8686898215941702 9.518506676489293 0.702296828505242 1.4761808823301674 -1.0014354253494753
Ni 4.388685992608872 3.1856251864705136 12.851679676829448 0.33947534879006697 -0.08165617951991098 0.24277950132821413
Ni 3.329409123401988 5.120873823209966 3.804866554049422 0.4763158867916054 -0.18798209387236015 0.4310076497731093
Ni 5.829047406193906 6.127626379135497 7.73187955000267 0.6241980273192863 -0.023924372026081376 -0.8277784898505357
Ni 8.339632823173554 0.8232857144556187 0.5846043791493719 0.5268321503736024 0.33530527657277737 -0.825555771167604
Ni 1.7701278397676232 8.332386514817236 13.354735216553491 -1.6703621630347039 -1.115834346518046 -0.024863596010899113
Ni 3.9829841030706716 0.7916166969644584 4.231087466808443 -0.5690224105884072 1.1076132441598343 1.2882049591053943
Ni 0.0422844480302957 7.652074210746805 1.5372654819661724 -0.6446691506894446 -0.08755917526790727 -1.3953765092875905
Ni 7.583512985529338 5.169642483610557 10.652192989511429 0.9611058724924931 -0.6824404559009473 -0.2114251553866488
Ni 1.596947466540722 5.826790359328824 0.32688800609149155 -0.32906135254559454 0.7124076916869989 0.015303463126289774
Ni 1.9953482206732502 2.8184758504698975 9.60141248538614 0.37446292060884545 -0.2417929690452287 0.1396656661551595
Ni 4.493944789527439 4.132278158462246 8.149327221080858 -1.1703111374096877 -0.2666511657394891 -0.09384680804883193
Ni 4.610580199187009 7.830819529483161 0.45616927468461516 -1.116755572780735 0.6467080354963443 1.3523172162042711
Ni 5.082056272267169 3.2105258047188943 3.5398581834274285 0.09576433678651894 -0.7137858029814481 0.3249421881708985
Ni 6.818264444167641 8.46096508339447 6.981321916515441 1.0767057559477007 0.521180865625096 0.3189381480686636
Ni 7.308619297908776 3.330003083103325 13.223361382243347 -0.24518862499033897 0.06253000021342134 0.47130223562709805
Ni 6.332058170494311 3.740557166509375 6.551450436053583 0.1365119510175262 1.317278736542899 0.25326548846120256
Ni 3.478228011032492 2.101977693825673 1.8031035686017263 -0.4113698209375238 0.5595779773460556 0.43307198850130574
Ni 3.599103379175456 4.3265578078489675 10.8411169499604 -0.4081369158225229 -1.0364849607544406 -0.7424705725106503
Ni 6.975517559557138 4.322756465760408 4.36131176065046 -0.4114158436841108 0.9126467485498412 0.0690523747129714
Ni 8.508929613737864 5.738290363829535 12.665646015665603 -0.1409609879278153 1.0213614748494408 1.7620546437446944
Ni 7.336745574227497 1.9825917938568323 7.684535479101134 0.3607720533853142 -0.5534165857303501 0.812373211039059
Ni 4.014838618745481 5.996470939238614 12.387115467104545 0.6995498618877242 0.10045788560744634 0.30034624399908916
Ni 3.8157890160649406 7.5779571778614425 4.026249041500253 -1.8961875530070826 0.009281939522558206 -0.835041342060536
P 2.3255075740428777 3.996727416775466 12.74888626956351 0.4923971086241843 0.014147752255291763 -0.9085029015847967
P 3.6345764801076443 6.36391268616912 7.7235476660691385 -0.6464560673865383 -0.1452102501224725 -0.8978575060558084
P 8.536589860137074 7.904333464825627 12.605809601568707 0.151837525631003 0.06364020255846459 1.2603141462323972
P 8.807992892282083 0.12297250278076335 7.80562467273658 -0.9939139201614496 -0.21474779200197852 0.6908001407195522
P 6.3640954430003 3.6202483445430715 9.074551040832489 1.04450500284544 -0.7871378335110379 -0.3849859316273563
P 6.102588693263731 4.964178116155571 12.358307507805518 -0.20121684739507928 0.1582028057273985 -0.1491772051900205
P 8.043603308026936 2.320381244928257 3.9641930456886643 0.4832846047999548 -0.29057450932430606 0.014611065044955482
P 1.59487317650682 8.968590457682188 4.69499740707772 0.6954607794200152 0.7490528537138583 -2.154155074929645
