# total energy = -340867.372742882 ev
CRYSTAL
PRIMVEC
9.29549660347478 0.00000000000000 0.00000000000000
0.00000000000000 9.29549660347478 0.00000000000000
0.00000000000000 0.00000000000000 13.60489888238100
PRIMCOORD
 96 1
Ni 2.0416257085531377 7.00251144459185 5.538622234270819 0.29418819481749336 0.251934685464921 -0.6770321404011823
Ni 5.975730881447467 4.1781770291905636 10.6748935425465 -0.37036201106659444 -0.47747956808240344 0.8958571877963282
Ni 2.169020490536605 4.184572330905604 3.25325744820255 1.7361209545980683 0.2889624276421797 -2.551395398444322
Ni 1.0792908238831354 0.7054956636853851 9.116860471411872 -1.0000701695708325 2.5472908893576456 -0.9598262344491212
Ni -0.01757220692167428 4.700992944395096 7.078043861955079 0.29856421239800196 0.5382537619469827 0.1410430061186603
Ni 9.66898973539312 3.539799499274724 4.48522215728725 -3.4133446206392954 -1.9281576781557763 0.0850117262557052
Ni 9.201816663308106 2.9432888864003686 8.737814285140248 1.0109834740492265 -0.976485440272357 0.09751088716398046
Ni 3.1344879575873756 6.633470930945324 1.5275986854584462 0.024617798548680184 -0.28426502216651045 -1.3854078281106528
Ni 4.413892233972523 7.758309688554764 4.074381654175329 -2.0665627324309574 -0.49626841865413246 -0.4382149661548259
Ni 5.849405081582066 0.4587160292066053 3.3438253314437985 1.1338148422558667 0.32181521250614253 1.1155870063939304
Ni 5.0473245596552205 9.146554935552418 7.4270367779143545 -0.8966478020184234 0.7457482148206576 -1.1432196805095343
Ni 5.168993315684524 5.943949578302522 2.541585856523745 0.8587093751014373 -0.11118658487886013 0.9655798491034465
Ni 0.5631713844860372 1.4251204823226031 2.972302920184024 1.1050138588637743 0.13392490701664034 -0.9992803266796856
Ni 7.996999452273951 4.966667534972949 9.366238197212388 -0.5498826044351627 0.8179067392627785 0.44233670163268335
Ni 9.18940717524186 7.6567006143583916 3.7165180457354383 -0.23777227792160985 0.0007145095685213501 -0.23545314287012997
Ni 9.707566046610294 6.67244694851969 10.961467198307382 -1.5814107354049602 1.3330578537540267 1.053557085745379
Ni 5.163611223107477 8.534632389184551 11.574653932223573 -1.4283143976661916 0.4683927752897869 -0.1869945331481102
Ni 8.429834959627337 1.2556821688607545 4.772679814782291 -0.8217464247238428 -0.45705086791440636 -0.04794644597229162
Ni 8.161780721899703 2.688471435943398 6.756696682668333 0.8838480791505939 0.3338662301334056 -1.8826069861091708
Ni 8.04609826573157 0.2575084967454939 0.4415007693573984 0.7355023687229333 0.024702130732370358 3.4341944675051117
Ni 8.962931694158664 8.102847272955874 6.199153721421332 0.3582981379235249 1.3691515141527903 -0.4917216798237144
Ni 4.8345227541865965 2.737988546751565 13.010161202535109 0.1915942367036507 1.1014068582388064 0.0734888132177702
Ni 8.525346188002391 4.461317858027952 13.444973862032084 -0.33308487188269087 0.35190303303045845 -0.7888887547638737
Ni 1.968944220021308 4.50826941175276 5.588810479939198 2.187561675414549 1.9336266716901473 1.3516538715886592
P 2.2487572610476723 8.029682418596742 2.893884251102016 -0.1423295861405678 0.815210423377538 0.8219832233249973
P 9.395980997935663 3.606299482515127 10.693110856937686 -0.2288587774820639 -0.25084453772453574 1.1716941338001432
P 3.6430631718799296 4.039144285365192 11.333098366878302 0.9226835639605527 0.07635996411797817 -0.17287891968233454
P 7.316132207039146 6.166892770647759 1.7688818927510295 -0.480669792884927 0.5560913043490359 -0.11925547792992365
P 6.104687306872979 8.814315293257412 5.161929667758275 -0.5999697508995409 1.411597084911511 2.724050889261941
P 4.9990995228854125 2.6552307398198756 7.440927038601542 -2.468536713975878 -0.9214455777883936 -0.8432282487467025
P 4.437186748649689 7.6578718469399245 13.362731955166069 0.8147561094489386 -1.0821559804289944 1.6886000261989695
P 1.7855440705478456 6.04782675368853 7.453783640058042 -1.073112125059171 -0.9540541078520344 0.1760534607555742
Ni 5.692255414729641 6.981745305011327 6.204486547865981 -1.724534021091417 -1.4310040286832129 -1.0071679569578784
Ni 8.728034493084442 1.3765422166789987 10.873661007129417 -0.009335932688945212 0.5956171303578001 -0.4465134587181923
Ni 4.262524366054334 1.8492925867713128 10.763066905843282 0.8330317678296751 0.1105479228535967 -0.3140450816424204
Ni 6.041877635814074 -0.03272386650817929 9.507592956108132 -0.882810639025015 1.0105278745690467 0.688895981718304
Ni 6.8693069771841095 7.707258820794588 7.835986577001801 1.6451900346444506 0.13776433536738855 1.746599999752521
Ni 8.051080651951427 6.976781509784828 -0.10880285907612425 0.8327394334002368 0.14109082863746022 -0.3354412879300094
Ni 6.605472894948666 4.048569918997534 1.3826251897056299 -0.8291671426679462 0.20828918086082837 -0.3927655755727752
Ni 7.193868539222397 2.045111519807702 2.5313143326936296 1.1741356533621006 -0.3691170829158998 -2.0738533525550995
Ni 3.2334292242369216 1.5115314194490759 8.254160297443656 1.729322443618996 0.855965750918029 1.0617740743385327
Ni 2.65503553438962 7.6201971989005965 12.157882209893538 -0.3539028370693066 -0.36997017494481443 -0.12170753901484199
Ni 1.6811928248312165 7.8998429209867425 9.290826621305982 1.8417189896455572 -1.2192091486619712 0.3423182175555008
Ni 5.457627783059106 6.001897704598394 9.074440472317997 0.8441291632944171 -0.08730052228988192 -0.795859786765068
Ni 4.197855595659663 3.95160859314058 9.100996776779768 0.44721794098438467 -0.6669163921234192 1.2162883754707505
Ni -0.13308641459991916 3.4954042071365965 2.037809907166475 -0.055560253763807535 -0.723796907360547 -0.507320562703236
Ni -0.19065900282996665 6.979681704748625 8.172299505941476 -0.10328635619517697 -0.7595203289040855 0.7078817787921874
Ni 7.841104677473169 4.85359711337157 3.4569636101709325 0.501324235910485 2.2524136388929272 -0.6914102634997255
Ni 6.620894123938858 3.13213619692763 8.453581235443096 1.2587084923081744 1.3981229616844761 1.6743530293616518
Ni 0.7301259412353006 6.225426513234399 1.9401263212175763 -0.660849874214365 -0.08561696393987189 0.008958494744868442
Ni 2.3051809258882154 9.23121831930327 7.116899967622287 -1.0332631113830335 -1.627359691331249 -1.3466201658194938
Ni 3.2111386232010695 6.176271926796707 9.979615488810493 0.6738686550715363 -0.5305378813599637 1.2128009311427823
Ni 8.120053237308401 6.184702942284412 5.4212665887004965 0.5472909324485864 -1.096685284393421 0.34129800382110254
Ni 1.5158538254047351 4.313370732887575 0.717521247738797 1.5187673495421263 2.4748947949834217 -0.3297218689477289
Ni 2.3520581156395926 3.7075274413476667 7.781702735496726 -1.9452601421640179 -0.16711887727010574 -0.519343555306041
Ni 0.4667873089728398 8.755893096630917 12.302841762401336 -0.05048258213058403 -0.15665962960999472 0.16589966015102398
P 3.863552353101953 8.815003160011644 9.427650755120462 -0.6951080240662868 -0.19023000936627238 -0.34820707223611
P 7.112486465799176 5.409783861653129 7.160244868635706 0.09061107472035362 -0.011507486418967278 1.5096494464012582
P 8.079943169139218 0.027973867705293365 2.717333953131188 0.38972576030518685 -0.9801598038001508 -0.04836630711852961
P 0.803507380667047 5.612620894682041 4.068042125440362 -1.296861863449444 1.008571007952992 0.7982020617449995
P 4.116334089786258 5.616803868187517 4.779727660364186 -0.40250002925171974 0.022317689660593817 0.23308309997605667
P 7.809239714858114 2.3073467766143847 0.2875970899452228 0.778502269323227 2.3695785528424094 0.1938354673293436
P 0.17031116059999152 0.8058795914194863 6.753145802937017 -0.45228044310895654 0.15146805810672623 0.883204274919008
P 2.0553737481411387 0.6924531522953082 -0.3405786323655925 -2.0589669223615705 0.6104613944594841 1.9507486760824144
Ni 6.693064360153352 7.22638418660497 3.944495679081934 1.621101626236679 -0.5795798743892793 -1.4758746639436582
Ni 4.069215217121231 0.4532800227488212 13.631020439410012 0.7769675778462555 -0.15940942444099 -1.0868608421038315
Ni 2.202688779507354 0.881248408041168 11.244285473410017 0.014389693062768764 -0.8184885799081775 -1.175598353950556
Ni 7.595220199324561 1.0133671614368203 8.319613607758022 1.6492415790060047 -0.9695861420493624 -0.5949123909812916
Ni 1.4062878060512785 -0.13200999608450978 4.632698930295677 1.1956570723736442 0.8646090284153238 0.3836782685595263
Ni 4.187202956465715 4.865439576140409 7.022454003166628 0.6105992055889291 0.7545002499816748 -1.1550812078338109
Ni 5.009092181815163 5.70529699657005 12.551648744705771 -1.434535181764923 -0.3390439176796032 -0.24493639977021692
Ni 2.4776216847773287 2.4622190467804947 1.5002940935140292 0.9953128573915051 -1.6095555732702924 0.27568936468235744
Ni 2.2093629461227593 2.8597502577476566 9.981682807271866 -1.2816807848336313 0.8037013942966738 0.8906069951409823
Ni 1.5883215175129517 4.781826583514267 11.75622472795064 1.0282165500980616 0.21034914871365065 0.3227552078219087
Ni 6.285177965885965 1.7041062241445508 5.943694881693522 -1.4206257707726824 -0.6663070406741943 -0.6752583363302113
Ni 4.736204285814532 3.7878684191428587 3.410353201174238 -0.007512506326961255 -1.1061603137633915 0.33190216442849935
Ni 3.829093946913503 2.932450337272844 5.599708520245468 1.6649821296697132 1.0674420712575874 0.859376833482107
Ni 5.961202020138444 4.58158299405875 5.404545849274604 0.6270010439857201 -0.01933752398634734 0.45646208529047194
Ni 1.020980173216788 2.7248633054410467 12.854507181098308 -0.7425217374635599 -2.138021916813208 -0.8700649093235725
Ni 0.8484604026059047 8.555379937771715 1.1994797368411676 0.5247582985637091 0.3769872296925959 -0.0030853237935430738
Ni 7.436285797109798 9.12567725001175 12.141868857764905 -1.0704392062126982 -1.1487141279652024 -2.590058876452791
Ni 4.00573627030145 0.6610436690175165 5.056737179592212 -0.5080471564566154 -0.7271534825376057 0.08320295518174059
Ni 3.569163973283172 7.00763326326189 7.694536074490263 1.1059181158455986 2.0335083730791497 0.6458552005777458
Ni 1.7063464388441507 2.0807318630810068 5.937872182573898 -1.253531318982609 -0.5942904411265766 1.6823800134311866
Ni 5.718979967681298 8.01715208907367 1.8479122055145052 0.2140512801555862 0.24943531608183492 -2.5230155617500487
Ni 3.9119818907986965 0.3951831685060872 2.349674750291139 -3.0265002956469615 -0.4766606717255339 0.9206734755090596
Ni 6.855252186205708 7.384240311204988 10.44010045103508 2.1270790446484593 -1.7486478834204853 0.36267312706276894
Ni 1.1326655658130198 5.229488408070399 9.380400815952264 0.44272313843782457 -1.075459285135109 -0.9044354163836423
P 7.024281497813687 5.61142177561047 11.957318855352268 1.0327216370572665 0.248999514095997 -0.505969190881664
P 6.307449975928459 1.4007848720174065 11.242299025769748 0.3154949267150695 0.38467534236547296 0.055303914778627325
P 4.148701009221971 4.515798764062618 1.4617782030252662 -1.69841109875212 -1.2473735269113293 -2.0377440084270515
P 2.574573715137603 2.2136853520784188 4.067960325069588 -0.17761977680142957 -1.3422477477834112 -2.992095850025163
P 7.0138705415333895 3.168472293445206 4.207233822258941 0.07281261308635202 -1.5939078394307065 2.5477757994138637
P 8.874643066703067 8.590284527800751 9.781051595604843 -0.9516215871511416 -0.6204074499286025 0.5067068403786371
P 5.266819122732609 1.6616350998189426 1.3386649268120718 0.3970436341228388 1.0894440294499754 0.1241418594879475
P 1.0363735157169427 6.310777763739484 13.317536320763894 -0.2587216264797673 0.5392570064005165 -0.3864936265211344
