# total energy = -381166.6906050535 ev
CRYSTAL
PRIMVEC
9.29762897120716 0.00000000000000 0.00000000000000
0.00000000000000 9.29762897120716 0.00000000000000
0.00000000000000 0.00000000000000 13.60801981810569
PRIMCOORD
 96 1
Ni 4.198493016811596 5.339842027287896 0.16397298034947116 -0.09293586619878832 0.4052557376199859 -0.30240261230748566
Ni 7.024349210764636 0.12342602144132625 9.207567253079837 0.8098273046887536 -0.7510973949477129 0.18137590140975215
Ni 4.068986346178358 1.5461305750314476 10.431812061821041 -0.674408072514774 0.6243237542638732 2.443775190760481
Ni 0.707853579102528 2.0878662108356143 5.281844349009263 -1.4666870839071193 1.940722145084348 -0.2687838958117758
Ni 7.922053860271448 1.9618089604626199 2.0751954023971786 -1.6712085701953991 -0.3033678044342324 0.7361194334816419
Ni 0.7009482302419274 5.003109807435503 9.07533823675334 0.5529949248118993 0.484302761651824 -0.0002807644652124197
Ni 1.9360266359837652 4.008207747145442 13.52932451259279 2.3370101319880847 0.030417178839276644 0.1551064261902619
Ni 8.193925822076782 7.393613833556629 11.276965583961486 0.16274260257928103 0.7673673357523301 0.2719268123161317
Ni 1.1602231968059344 8.047683419722688 12.948751751804627 0.3035081866668386 -0.65311779567743 -2.2428164821227954
Ni 0.16126458109931235 0.6618005644582209 3.4880212254576266 -1.3520793891618519 -1.177388355971443 0.7785320941198979
Ni 4.668097648898866 3.024806853599104 13.074041018044209 0.9195591593989582 1.1047930011022198 -0.00578009701688682
Ni 4.739791664065273 0.3366299459363208 8.853404768640171 -1.0874123437319274 -1.7145157176234664 -2.2337983377845854
Ni 2.1933942969643567 1.280543810250168 9.13068144202847 -0.3423500992347008 0.1147910144006668 -1.3693111796591064
Ni 1.862882190734883 1.6695658941015077 0.7748690274900829 0.44578815051639353 0.049860118055236706 -2.422991421245911
Ni 3.8387305705855557 2.191367413900386 3.0375408859129305 -0.7924055096678805 2.277649787751897 0.2369400118283016
Ni 8.672976844957603 1.070900877560223 0.1376058350232597 0.16292437957278394 -0.8210545408631408 -1.03053311404638
Ni 4.004609564825458 6.174285610889865 2.8196630434534495 0.29339320972002375 -1.5238812737299239 -0.6570682956847458
Ni 6.768060074717166 9.21597695826957 4.310394627437365 1.3149706572350126 1.1395967390449666 0.5684233435518274
Ni 4.097632340307226 3.512374504400095 5.038545859828673 0.123265113309949 -0.6628684473062906 0.20380491983722965
Ni 7.521921110083206 5.0754267637270765 11.027653388515867 1.4126342679267736 1.2333201341420568 -0.14583399974940045
Ni 5.13481071844992 5.15801759976951 8.912395433667575 0.48860987366761016 -0.44465635090479555 -0.35616232252744473
Ni 1.768827378463662 6.980771224889269 3.355574644618758 -0.09180020993244835 -0.11405927844096486 -1.1311972021273615
Ni 5.309643329160481 8.483956052799249 10.974377975871136 0.9733576932766527 -1.4945365020192196 -0.43625064333960345
Ni 5.788424720808021 2.560669227207315 9.052000258868604 0.7464748085740369 0.5687023082448269 -0.25551520372732767
P 8.481018002119365 0.7740629230788616 11.628093322382437 0.32176636154607813 -0.284124125713272 -0.8465413722803355
Ni 6.124933797570803 2.5689255215229383 3.515468755242707 0.45251132817284007 -0.4324574948457584 0.9742220981594771
P 5.83320210079005 1.5810059804119685 0.7874338429609535 1.1011165806918972 4.008036410969348 0.39136021058481635
Ni 8.425260122602706 8.688727028032677 6.31680152364745 -0.0018357676571581288 0.8220485293452938 0.07401691780709833
P 2.8565569640320803 2.3500500435003193 12.164085812917728 -1.8119175900134086 -0.12456660573019195 -0.024608285466983425
P 2.821411927418279 8.068240476853141 9.0404739885273 0.5414311312336998 1.3647253600606368 0.4863329047079753
P 4.21060782705175 1.8600464139710708 6.939042537369057 0.3239397150483131 -1.4222095703200344 -0.35782865448627404
Ni 9.236915218178108 3.566812120636552 12.257817997471887 -1.3318736036379386 -2.0417366745262124 -0.16722403538940234
Ni 1.0784784449782778 4.918408409670495 2.5245869896171453 -0.49656203863515136 -0.05700649929203085 -0.23273445838738627
Ni 3.5186597014241503 3.7936649641127795 10.583895234545714 0.9514220695458259 0.7552080746819768 0.6835470587015647
Ni 6.168297937985292 2.7843980674289823 6.367532175307737 -1.6665057654030913 0.27189955862262205 -0.5384692203918984
Ni 4.428451268284915 7.267045213603276 7.710263175343993 -0.31992956544765544 -0.9045647428726551 0.5532903445651309
Ni 7.8296633235435795 1.666758010223897 7.454826631851414 0.9032429387374379 -1.0880443208889712 0.9953635081237826
Ni 3.650035195432884 8.170003023344691 3.6821938336973856 1.2964571718118576 1.9085144500035518 0.8792386054030407
Ni 0.024184062099512897 3.2631329709328534 0.9593869780526538 -0.5189054393273579 0.808852342369994 -0.49374410957038195
Ni 8.429034959868634 2.2917539113393315 9.900800310998449 -0.7129393958207528 -0.510556038921398 -0.06449869390401795
Ni 3.416422975867177 8.690251839145022 6.218987680079151 -0.37615856314371343 1.2603511701179195 0.21970590733820225
Ni 0.08246624781740018 0.0017786363767778313 8.65210087916158 -0.1269279068735169 0.49660523316826094 0.7817066351931377
Ni 6.726304424073626 5.887444466823097 7.145638637122933 -2.040625186629589 -0.4099793683479004 0.7644835864466317
Ni 0.7523204182848471 8.710632241329533 1.3301922179258394 -0.47266029231688916 -0.011728601290837864 1.856598992081183
Ni 1.0921924473606475 2.531149255977468 2.772008047378307 1.5720318652932217 0.9323737946651234 1.1805940073929346
Ni 8.139999575420687 7.275003983799417 8.602350197569837 1.029315439589195 -0.4886821216664423 -0.008617823575998062
Ni 6.166243162035119 9.130410881032317 13.544946388391338 2.40387064125606 -2.4766202623149605 -1.5481054363846114
Ni 3.5621819015271146 3.4192029668585864 8.140929338294066 -0.5981815486508666 0.5817069480346111 0.2171725993933873
Ni 7.102040196464351 3.475444323069402 13.389202739234163 -0.9580336613250727 -2.150040538540639 -1.510847323364101
Ni 4.9047687883179965 5.842360265092853 11.185220302667744 1.5029604644168566 -0.21883173226336505 -0.05008817490564277
Ni 0.845706731050107 5.359218285569155 5.191405384552621 -1.0168293913070423 1.0576983616072622 -0.10673600530667424
Ni 5.221446022991561 4.1651982083158225 1.909545129824128 0.18023664559898636 -0.6667436139909807 -0.10885896518694801
Ni 4.848499539220978 0.9931541060881045 5.012418593323794 0.1180822835574289 0.1259640002983508 0.13104835679979368
Ni 1.1458397651547305 3.3357567489726425 10.46112376616725 2.1348903131627623 -1.370268144255737 -0.5597782662823199
Ni 7.678595451876636 4.570686392654739 8.737804561304094 -0.1541980554433796 -1.2281069653722332 -0.0038306865999998543
Ni 8.43558978812597 3.6264750042214096 3.820396576485356 -0.03676343277227862 -0.2065724552800378 0.2238811217618144
P 4.665531503368333 7.2806476444408394 12.834580590004935 0.34358062920769217 0.3373215356718578 0.42780894033015354
Ni 6.855894773365468 5.918730987512366 13.10701319882292 -1.68542214269162 1.3229642169634506 -1.5390667232211106
P 4.793392493715687 5.119943810104559 6.291436662698743 0.21916828966717739 0.43218572924161053 0.576422302596904
Ni 1.2299182217945734 0.5652437602947318 6.786250885334866 0.946213528761693 -0.5576126260895687 0.5206337348723743
P 9.150521651983547 5.712993058890622 7.323386984204416 -0.968919454999641 0.34932498789063704 -2.4577439942357477
P 6.097989269500222 7.229519984033619 9.07049324242015 -0.4826030053518979 0.5401661484783471 1.100492316844337
P 8.225416890598197 5.653590508910311 3.2877112524906797 -0.6155398374236561 0.7530416631582773 0.2775703837551542
Ni 5.755334460144391 5.013950842539125 4.153398587689744 0.9973607410594695 0.20299270834857944 0.4154846144368457
Ni 1.7705939279230858 6.938745943012448 7.541877540397456 -0.7331269265122212 0.007954993181018558 -0.8041143134643765
Ni 3.3006582005025096 8.467276106850793 0.6196823062940621 -0.6693915931367891 -0.8619242824943092 -0.49586989766413314
Ni 1.0118795303579977 7.597306283856937 10.078044726602561 -0.18687471974079428 -0.7870334467226896 0.6580471146582473
Ni 2.913365475595659 5.8496124155052245 9.519435754172276 0.21425568285690844 0.2818450998711081 -0.7000000620512654
Ni 3.1069514034623147 8.132505686661235 11.442615856534537 0.27769405381721207 2.924020237403164 -0.9950575468475895
Ni 8.262170416982947 3.6524153883887394 6.3621711625798225 1.9934436438477794 2.0628127784702217 0.14120961360351164
Ni 4.302933280378482 0.7124270826766891 12.7254301477215 -1.7227219075833429 0.23090974647382168 -0.4820481612896923
Ni 8.880769549529521 7.703122596476427 3.552577451045089 -0.6217696203834517 -0.6019577278638472 -0.06918890029083569
Ni 3.2775721883564604 6.459583348586822 5.351340404742999 -0.9806174601628597 -1.4840782828003733 0.09613766096553766
Ni 2.304872865482737 0.46370621641854076 2.563614715990186 0.02728968895388849 -1.445516106256459 0.9292373059186706
Ni 1.5887787980334336 0.6358360064561833 11.29374408477452 -1.1146580668217576 0.5987441060225559 0.7193954358587417
Ni 5.7278134790923145 7.288002068769283 1.2752004630168476 -1.0141153348099892 -1.0579143342728103 -1.2710724131901656
Ni 6.319681929029184 1.1734165319792107 11.159310600675234 1.1355865894443087 1.9051529897304864 1.1003912724900984
Ni 4.528902849124997 0.4964766386537271 1.932597670506736 1.7873560986239607 -1.647058198201441 0.517608060672173
Ni 6.064099412765485 9.118416939965702 6.987868104901786 0.1796648322559164 0.21684864039506527 -0.6931840675706965
Ni 2.069642858517347 3.699266139578407 6.08682653644241 0.13579821277995321 -0.23455994163189925 1.3570529311170436
Ni 1.2447386419962663 7.9541027865168905 5.290852821489451 0.05114052742955709 0.6499910771229902 0.6602662337967532
Ni 6.354910644301591 7.25134151867187 3.379728954306323 0.35209869398103233 -1.4151308090963821 0.37172778106586946
Ni 8.341841797602966 7.653975330989508 0.18097555401498933 -0.722333178330827 -0.40712672939045363 -0.435195976822844
Ni 7.4756375142463005 8.791437932655075 1.9219146950915886 0.2157950023195703 1.2538077125724472 0.8792900274662662
Ni 2.69902724039514 6.15225952841947 11.798629498855105 -2.7791809974668653 -3.5568931667886297 1.954990224967588
Ni 2.574048514955267 1.149921424168873 4.733318654940795 0.2013891113068854 -0.6355795296833505 0.42851445103761043
Ni 7.808037039108737 6.59663039612318 5.470995307969892 1.524731280435045 0.005936934309725259 -1.957195460149023
Ni 0.08182285190902053 5.455513826365224 13.443539011317421 0.3383826299465204 2.2037472840354755 0.5017744360740262
P 0.36111432144393574 5.457921912207281 11.29239685837099 1.2161659909602733 1.278258903636276 -0.6380061368469723
Ni 2.198656754827693 6.443321795931388 0.927459850743624 -0.6325759669703364 -0.3508835906270086 0.07920951775163132
P 7.946766957445916 1.7033348816627052 5.175837435000729 -1.7422023849054578 -0.6498319258373066 -0.5168344157309421
Ni 5.37836210313207 7.344150448692761 5.558549218230433 0.9335235919988504 -0.041115024872755 -1.1244927935239926
P 3.04273268179789 4.012828668626146 2.1169045648970495 -0.3649722075095908 0.6726810625213382 -0.7436504517513645
P 0.596737618104766 2.588376160834068 8.056369264485813 0.07807129038213007 -0.2612425931294081 0.2004426882332161
P 6.063402090610449 3.7547171973468494 11.000668880641731 -2.7228247301643234 -2.3479247220180595 -0.13562594886814708
Ni 7.560078578406762 4.953748696487706 1.2382265828311059 0.9229383602838362 0.7309713136217991 4.637309538818697
