# total energy = -340890.48190001555 ev
CRYSTAL
PRIMVEC
9.09400352972693 0.00000000000000 0.00000000000000

0.00000000000000 9.09400352972693 0.00000000000000

0.00000000000000 0.00000000000000 13.30999340171833

PRIMCOORD
 96 1
Ni 6.303699472887571 2.1364633270361137 11.569365739549179 1.2843210506699558 0.574208839885353 0.008879047657184709
Ni 4.609150150022865 0.36517607476860897 5.979540991328303 0.33404672157532794 -0.21522473163839712 0.30904557154530005
Ni 2.7357035910783973 1.4788395607758522 4.754742417228343 -0.45265993793556236 1.4704324098821644 0.5636050962275777
Ni 3.175080368284257 4.19304492767305 4.6189007405334745 0.052527637585070834 0.5147307391243781 1.9015511313118412
Ni 5.370127265614485 4.546474278171416 2.7779288679473253 -1.2113300030242105 0.1806120266605341 0.33322036901929064
Ni 7.224940211467888 6.270488172248934 2.4145124828483704 1.4717269603238718 -0.4621704485291589 1.622746875149586
Ni 4.9673629463415825 4.428961565451678 11.627477331063682 0.9457638428187841 1.529352324146824 0.6194962509682428
Ni 5.504654858809276 8.012999269365604 12.283034030337316 0.8962667645299208 -1.0445785363958524 -0.10410550966236265
Ni 2.160289616103264 6.262612765251928 0.5098061964079399 -0.6785367499711669 1.8447132963871906 -0.09989712800796988
Ni 2.6966448462145007 1.7674195725956503 0.3142141887749441 0.7732891005534037 -0.49081125219430305 -0.09607724004124743
Ni 0.7140520577341799 8.942397329050209 4.22823872106613 0.031939529021074026 -0.1772924753689979 0.9293231807642576
Ni 8.640922020323076 2.366687118648316 1.3006380159608375 -0.18902467620426155 0.01285628713737786 0.7525294994085492
Ni 6.788155225248341 1.1175802732977858 4.8565506953717215 -0.8213556170433274 -1.3898262688933225 -0.8697072688738375
Ni 0.8603618418127102 7.10228029278937 2.627565886526341 0.1469406025500179 0.9555913704321672 -1.095939921586964
Ni 7.5001611322038535 3.9416775780146174 3.7423970425779434 0.5893899185011655 -0.7966871677623698 0.19968421280063675
Ni 7.580315678706853 4.271689869601566 12.74579603744248 1.3915584210930807 -1.77938465038271 -0.5270226691178537
Ni 7.908118127452841 8.948344807313537 7.255276897612585 0.5065985969355469 -0.5771936335452899 -0.2735232102689741
Ni 6.86720030332913 0.6205820713639582 0.308262163509887 -0.8546748000207476 0.2531374475237705 0.24808548692215984
Ni 1.8588143073761303 6.3601368583649505 9.250592196934488 0.4745896481291181 0.04031001247295638 -0.4231801833088905
Ni 0.30058318698763453 5.003084191935385 1.3682137368769363 -0.8550977464907789 -0.8314471969513746 0.35819169425264763
Ni 6.585922776288309 1.8834226807409045 6.971494882018676 -0.8534509549159754 1.1203075517980512 1.2478800342341025
Ni 3.655516571115377 4.452560504432309 0.7267800249778377 0.7426230389281147 -0.48327740571110317 -0.7636500348017429
Ni 6.187923714828837 6.124638544745516 4.816859917267303 0.32003266668442304 -0.674650013322251 -0.3237430256564747
Ni 5.125462196506621 3.0119976042227297 9.550319638196466 1.4437980951240876 -1.008757155821869 -1.1707207141432805
P 0.2204559224950167 5.747310153152315 12.559669068611425 0.18539247876831297 0.5372610590164102 0.5262742209876033
P 4.148347900663492 6.2234721743568855 12.775717127629019 -0.06442233214012776 -0.1782054741015705 -0.00908139347597791
P 2.339396014262622 8.51791652951305 1.4656568933591572 0.05276340774496074 -0.9566627491194751 -0.4130875749595789
P 6.572354523124879 8.03578884203823 5.752260019235997 -0.8473263300754762 0.800352275318783 0.5451597450381966
P 4.8074812714982365 0.9147021500920417 12.630292190087221 -0.6935044270245927 1.101752157393367 0.3189126941473669
P 3.936175705920867 6.291659012305546 8.115555074593457 0.513299148884174 -0.05591069512469081 1.4551088921512167
P 4.694451902484646 0.9665470638217448 3.5148368845793936 0.6533170561724297 1.4972374458901505 1.4381205851233363
P 8.984720821156513 5.542504101212893 3.686735375595766 0.45236760350612415 0.4152143914945946 0.0048832962342303
Ni 1.7028976180416697 1.217077765161789 2.475312261785868 -0.7438080603751512 0.6745533398433866 0.3453032683257537
Ni 1.8069148296256627 6.349606002357409 4.7514149213620565 0.9282739135641368 1.1214699475372687 0.2884314948393742
Ni 5.894023710984502 5.6692745094556685 9.11039722078296 -0.6739794696177877 0.33539346541120946 0.5340124701721256
Ni 8.896745431677273 2.3019378140078164 10.288026108332387 -0.6792330047072431 -0.058583099750531366 0.5675468544841451
Ni 2.522940286110824 5.250741188181835 6.966370411068547 -2.202731184066135 -0.9024168432917168 -0.23707730873711425
Ni 0.5603352078368733 8.9608399680686 9.036234713160246 0.5873322646411885 -0.11597783561991637 1.0297916078946652
Ni 1.3324897630820944 1.010025494367563 11.709054179707943 0.4628111674369514 0.5809762405161736 -0.9738531448558324
Ni 4.31669609272879 6.934732373028617 1.8170137204688193 -0.4510260018765652 -0.35364521253254577 -0.13424989445622684
Ni 5.58510950742648 7.768734336410014 7.818436702924366 0.2489208383392616 1.2007565983837385 0.5313061269845559
Ni 4.91027079261503 2.7656956144919316 5.027344264967613 1.3721530199832754 -0.13191070480008896 -0.10879828715234166
Ni 0.8883822852759556 7.341388925782719 7.154653568120141 0.16538338263623775 0.29636000565783155 -0.3425071936378553
Ni 4.8161114807824825 4.686021761276537 6.7719251572719505 1.315009223782432 -0.37417727104762655 0.17996076622978038
Ni 8.39341962213546 6.694241451509234 9.430156932868266 -0.18862949764837192 0.4269630473900905 -0.2624173301637997
Ni 4.639605967612898 0.5139585183881158 10.445496053457942 0.22559450490849534 -1.683786663970726 -0.5438471968743602
Ni 8.487788096047604 7.159627078612822 5.310035000146232 -0.0191662885158057 1.1589975121690814 -1.4730202252139986
Ni 7.259388296577187 6.117881700174183 7.143220586969294 0.6113250280113601 -0.5362956097793474 -0.31332285876441524
Ni 2.593527940973121 5.235854304516597 2.667309409850832 -0.6081299181128301 0.33691684403427136 -0.14231595929381297
Ni 2.4177590420838557 5.081883731922735 11.714657904640454 0.07421874940525928 -0.5526704515929449 -0.06465347431432736
Ni 1.0052238605402901 3.3828783473622637 3.7522067441110485 -0.7851251739563834 -0.039113935282326186 -0.2415119474697002
Ni 3.654061530561658 2.786757326507016 2.7829069254417362 0.3187463437728317 -0.28544438718659226 -0.8682108868339692
Ni 1.3152748145309057 3.1638947440275413 8.420181455519737 -0.8934118115796291 1.4209394453583593 -0.40283787220711265
Ni 3.469635140377764 2.7004825156749344 7.19993443015188 0.11177999548848493 -0.01684998167780324 -0.4790281435164459
Ni 4.033326944891998 7.013368220953673 6.000318061035066 -0.24190995423906728 0.43242715582845526 -0.9183216874474313
Ni 1.0249396600431837 7.33285875053654 11.168641205252522 -0.5974981494305968 0.008836367344707363 1.3159831576599272
P 0.3717292136624213 5.341817632841189 8.053024706797379 -0.8267983853254535 -0.06570865505171909 0.16171056177034085
P 8.66636704200624 1.777741266523595 8.233920804837812 -1.1857004753815643 -0.8901141146649637 -1.4063353222919392
P 1.935140278422157 3.0813302866074443 10.675692563059762 -0.7211162752045903 0.5672043835430618 0.10086232013471662
P 4.22322792515926 6.152629887397688 3.9377617001244207 -1.0626639331426537 -0.10457859264403925 -0.26235125281255467
P 6.900784458109658 4.178058009969743 10.51304449236366 0.0036064864043357245 -1.3766838179740934 -0.8777373382671657
P 6.434944130833033 7.896405050995402 9.992970256648192 -0.4588820075858742 -0.6245096450224342 0.03255068024251169
P 2.389913203487057 8.640167218035835 5.705794208553325 -0.2673145103551009 -1.3788887960452123 1.1266003267852984
P 6.9709446948093 3.938685650876032 1.4781675139201031 0.2924172189599996 -0.8423216777720333 0.583114369905099
Ni 5.237563977167216 2.7696878820111985 0.5728449189974731 0.29781525004711934 -0.30425149259076634 -0.33049191434453407
Ni 1.3370822348297702 0.927988489148189 7.007844523251616 0.4086341671739156 0.6877852651526284 -0.19765355552385314
Ni 6.8698011883189025 1.012626379357336 9.44302767596626 -0.9191459831209395 0.20213113167923252 -1.6992454217279573
Ni 2.8488057121196735 1.6221155852998783 9.299518844953637 -0.16424232705325909 -0.8248165790087343 0.03947054729079654
Ni 6.528930656599824 1.8228111476750437 2.477056491649639 -0.27005324944250264 0.16471746691746472 0.4636876565046337
Ni 3.861604877542764 6.700852792025196 10.677609578989287 0.5249426466603734 1.1046549328624589 -0.8182908620750745
Ni 7.956434567839775 7.551633191791666 13.136005175537479 0.798183035581606 -0.6276355922459255 0.2942293324680739
Ni 7.4117947005758005 3.868834610294056 8.29103478417267 0.9914839705637183 -0.26395150742013895 0.3013374042677649
Ni 3.0788839996765036 8.367692686345015 12.55932258707957 -0.07727270574023465 0.25925153084130836 0.2592127071835729
Ni 0.2804854393393897 4.550539297718368 10.748884740513217 -1.0547199957052287 1.3205291251593967 -1.0751965183920256
Ni 8.725241620411097 2.1829700607343603 5.830788557920218 0.5149577675335195 1.3309500633824047 -0.11866695241630532
Ni 3.794673012071686 2.5507315606868586 11.52009170059783 -0.955564888069606 -0.5709013727786749 0.5843348725757613
Ni 0.8787653766162185 3.2971400827343667 12.89138102944519 0.23131778054551777 0.177318700621243 -1.4240507372938314
Ni 3.0948621637570315 8.386871939643724 8.111801979365207 0.07345410332509285 0.48994838997337553 0.07301521601546135
Ni 5.956626830808266 8.205428382594954 3.4677590474638125 -0.9581048808826403 0.351756223039949 0.7609658031013603
Ni 3.162175977373461 8.516570617000859 3.646099730531777 0.5165225409174782 -1.777141619984804 -0.8484779271814162
Ni 3.455193862882102 4.47798733810855 9.468276267174668 -0.8324959499308631 0.4180521180537058 -0.47505321802909806
Ni 6.976892173072628 6.077658922867312 11.393381312777894 -0.04018737085216304 1.7076691270152786 -0.2515695888160184
Ni 0.5543995517780456 0.18496475518877 0.45254944121874785 -0.2033971428758497 -0.6269426799439589 0.24787131402882476
Ni 4.434417967528124 0.29501674746931295 1.3931303969590294 0.15135133002320386 -0.07111568499990333 0.30607106229800835
Ni 6.1614237887442265 5.704913909018325 0.48446666516492204 -2.2186874502850755 1.0141302472083245 -1.2610124578510025
Ni 8.101820401166695 8.887014847974276 10.949026478077624 0.6164052707477449 -0.777404408273358 1.1777951044915587
Ni 0.16085837081502907 5.070434381565658 5.821738205676084 -0.3549616173511242 -2.4326955359075524 0.9539924013761635
Ni 8.124719101880848 8.862633824696022 2.3287296576035152 0.20196400997374894 0.04469297203200045 0.13639907958874575
P 8.51731632528464 1.514478960338509 3.6772585145893246 0.5950075217982591 0.832418045505076 -1.1498024759333747
P 1.8883880066304708 3.363244393890517 1.537277627014595 -0.6370427444924384 -0.18610518856462144 0.5928470238118306
P 4.803207089871687 1.1532742368812072 8.140804575202212 0.24677422430990406 -0.02961885130769738 0.1779231669744613
P 8.328843103560715 1.460706117875128 12.347600545508254 0.9594194859290056 0.8417323809274664 0.3620578620762733
P 6.272752579110659 7.8516443659616195 1.3352452461307 0.8393196577209159 0.20942766534064577 -0.8962791058250952
P 1.6481335292010677 3.2759874306846752 6.035775580528508 0.4913807515445279 -0.7411266568882462 -0.5472870757938445
P 6.763128527724372 4.191453477067419 5.818503468645098 -0.014936566705174275 -0.8040860313296023 1.1134023400377857
P 2.4551444903109756 8.8127623097173 10.37974458963607 0.39026209242463106 -1.0734782501493383 -0.7092737740437075
