# total energy = -340855.1242882446 ev
CRYSTAL
PRIMVEC
9.38545569024323 0.00000000000000 0.00000000000000

0.00000000000000 9.38545569024323 0.00000000000000

0.00000000000000 0.00000000000000 13.73656309907000

PRIMCOORD
 96 1
Ni 1.6968810134035373 5.388715729244749 2.3408894001391936 0.6534880345326552 -1.8681509585848406 3.166241295124747
Ni 5.669293928768523 3.800189802427663 8.21836587698989 -0.5929948622436045 0.4782586123402731 0.19033876702999478
Ni 8.86463803565146 6.684040018559822 12.7510201094672 0.9362967838686133 0.36366043067670273 0.8041089141477378
Ni 1.5134798226728448 2.0216647094905147 8.18515074910514 -0.2173232660386386 -0.7436136849761581 1.6463282620139519
Ni 4.130830022900084 9.362451993869907 9.413309901465807 -0.16115031839149666 -0.5765626848295102 0.014780757853600352
Ni 2.537010699042309 5.255432872197179 5.402068417134446 -0.2434132782574711 -1.545506051088551 -1.3277369557617456
Ni 3.1147136565698834 2.1025767234759454 1.6376728658305075 -1.3036362060588 -0.2882108941881359 0.41245174114779287
Ni 1.978932729479418 0.6104056395285993 3.3848261343914006 0.29004640473497784 -0.7631047038212342 0.2213046192838898
Ni 2.668773112259043 7.200775055562009 8.501353323003638 -1.8713735792871964 4.254246021025035 0.9786438813762564
Ni 2.106715709459889 0.750278025055368 12.817916822387271 1.4146474417020605 -1.558938265334057 -1.3631865548186073
Ni 6.555862849438023 8.866702835915559 9.82706865656952 -0.6840067719468026 1.0197054273032569 -0.570573814235927
Ni 3.1743676132908436 5.472321369029254 7.630262895950283 1.7354920627648176 -4.603310299055117 -0.7835750558604441
Ni 7.2538310368936 7.5605852724926965 8.092113664841579 -0.4016672489377792 0.49262799368806764 -0.4580394570799209
Ni 7.553396013391335 2.533078193084776 3.276431628890816 -0.39055262708185645 0.1431425689601664 -0.45100106217590064
Ni 5.185774019651086 4.397752384313569 5.7298366881486205 -0.213992916113825 -0.729681391165782 -0.03813537341914078
Ni 4.727116182804547 5.052303453488598 3.4410365673991885 -2.2842996889682468 -0.23726808459168172 2.4419574208254526
Ni 7.301452839348313 0.256575834999201 6.381100970721434 -0.1381176049417492 -1.8423041727250657 -0.2815126562323539
Ni 3.854052932953401 6.322155615909289 1.6380022953271889 0.6968283491915032 1.5886751302768574 1.359511419959865
Ni 9.307059034057586 1.1306564682532025 5.013145455025541 -0.9669718443549669 -1.8927003657894308 3.250351849722422
Ni 1.966224822399465 2.32336018444257 10.771855559230858 0.8060215577894183 0.02998754750102577 -0.47983855523288327
Ni 5.506587667957547 6.063295360981536 -0.014436708028348172 -1.9767016485027504 -2.288381315236788 -0.6561972059337022
Ni 0.264229674159985 7.646096159793621 10.61009347526792 -0.7695653718449134 -1.2146176726365467 -1.1137160146234626
Ni 7.514099110183239 4.773320781441628 0.07505267396326346 0.3679647144790114 -0.17774987462139066 -0.7281420717031202
Ni 5.239749775645775 1.4778338617499045 7.930873412218111 -2.571276196528649 0.06426215241317965 -1.8935442018469646
P 1.3331382905153162 6.592766461430914 6.765655941726195 -0.4547273619875523 0.4653845845910824 -0.009331818923887155
P 0.2450598807989779 6.185634776629383 1.185549183274266 -1.804072382937377 0.9671219967795859 -1.7025636874679129
P 1.3196420051527076 4.291921985322765 9.762383157023182 -0.03506059114855897 -0.9365880898567869 -0.7278515370458949
P 3.1572860838333 6.6482908176236775 3.730809697917224 -0.6103035287253812 0.3086290528331717 0.16345145572084754
P 3.4865091004880893 2.763951018978246 8.03388348175727 0.9690197280229311 0.8022564343200312 -0.3739816100970527
P 4.551758327648093 3.563197659387864 1.8617440519449224 -1.0204525898819266 0.9486493918966953 -1.0770667388315451
P 3.821813892466224 1.4781341963337735 11.653468020720947 1.230359508851836 0.33548602512501574 -0.8083599761146079
P 6.050212035671747 0.6283037036360365 4.347787033559104 1.9357784279258277 0.6019014207046149 -0.6966853958557356
Ni 1.3161318447037398 7.7581960432226875 2.6476811775612745 -0.33841991094235907 0.7769914891056554 -0.6592897288160968
Ni 2.344317907123172 5.950200619243403 10.651606284577623 0.14941991732844587 1.1964821393781007 0.47347147536427486
Ni 9.08832160244357 6.337040948722292 8.434703447569683 0.7594681355099114 1.4209121916648495 0.4848732894433134
Ni 7.747571707318325 4.889259316270769 6.245507414469222 1.1222641613037898 -0.9571474020653774 0.22572074607371448
Ni 5.3682272793514425 3.1944149467640925 12.729411974703407 -2.8661894424376255 -0.19094786136890338 1.7576763121713406
Ni 6.864832052593154 3.5126475947404296 11.345068514729592 3.2706519947323542 0.7590202493392154 -2.309022131415591
Ni 2.886647081944438 7.09186622708655 12.875417755560122 0.6412251580049022 1.4395272356628759 -0.43471878007610937
Ni 7.061382266823856 0.0732741300994148 2.2670690365153674 -0.7793862145900772 0.32717956214184946 -0.28839010007847754
Ni 7.871027992199934 7.9129152811939 4.024922663172164 -0.8022911442127086 -0.5924834698248247 1.1777351977879007
Ni 4.906735034869641 2.302862349093518 3.665230702983875 0.0010958041673400484 1.5638760689553066 -3.195481165826471
Ni 1.444675046599629 8.574439743988135 5.6020724790796415 -0.48119172682666805 0.04595204125008215 -0.3559918583878514
Ni 3.54918517395923 7.294460674817615 5.896694136036009 -1.566672143643205 -0.21353988773680643 1.0820719053556203
Ni 5.619184980541147 1.8747823270671309 1.1271153358002732 2.4878354143044894 2.4738622399538492 4.049097442675717
Ni 9.140532892758028 3.697437832921516 1.5528630720738033 0.31286803061518376 0.16451717798120052 0.24692874760989733
Ni 1.6534451242114978 2.8859713291307325 6.142235490714753 0.859528528568623 -0.027996485212925977 -2.2342171704895586
Ni 0.11677853311839952 0.13138981062362148 7.5283509247333935 -0.2091499861992269 -0.04430036457927209 0.23085035399079595
Ni 0.25548055231365413 2.5231202245383724 12.257204355396507 -2.3461966835833596 -1.7778692421794478 1.454287681801502
Ni 6.063896030149273 6.971948259021146 2.9553664503703656 -2.5724912998826728 1.2700982222023545 -0.28289282440933217
Ni 9.055923009208712 2.241725490364705 9.678850723793495 1.2648973947277053 0.478142398477383 0.516704317910981
Ni 0.3656076129449321 8.834548264530094 0.452507547696249 -0.02228580798139388 -0.2390675996942657 1.1842467736541735
Ni 4.38404961892455 0.851841795864084 13.614541166461485 -2.560335124136113 -2.498052464046807 -1.8275336992841105
Ni 0.5940233265241254 6.368303901811895 4.191822345610411 -1.0694279913393647 -1.2679264113620163 2.041462852039536
Ni 8.69094140616203 7.388484170480072 6.068112915415908 0.31830180003624536 -0.517292072093651 1.3976555351297544
Ni 6.893504619896888 2.363173287716691 5.562112962695884 0.603672910782741 1.379050261323741 0.46555890538541755
P 1.0677082165654304 1.7920213782997572 0.4407991916532349 -0.7211049623506807 1.0132948957912227 2.324622042736377
P 5.494377190032126 8.880827946813143 7.44939296263426 -0.114321530963416 -1.9425283450551516 0.10408185551327882
P 7.524028922362405 1.3724633500906502 10.788751256664634 -1.5413604043512936 0.43285215918101577 -0.17109868785346016
P 8.96720229604269 -0.024125313994843956 3.18772030118054 2.8437126014913474 1.398070768290302 -1.4691324601238185
P 8.914840838436294 4.255356249736726 4.204404487583368 -0.5248811972948186 0.23917404336514292 -0.9543022193070985
P 7.152195936621215 8.527944196222933 11.774515059112582 1.1768895619581539 -0.24587305265187331 1.8422152125556854
P 8.513387354361036 5.371803137990632 10.914702195683503 -0.7571358878323089 0.6611602063659323 -0.6044766376309589
P 0.9921646832666561 0.4920156236586282 10.143091968263272 0.4165264254377988 -0.9308311327683516 -1.9412620767482183
Ni 6.928427900727393 7.657724739462795 0.39651673435291485 1.6112710132995025 1.7221068997071634 0.2699907716356834
Ni 2.685610619867193 9.05810043494176 1.3462394481910225 0.5175985475904764 -0.361995384269454 -1.7967617082085767
Ni 5.343252581611595 8.185224894205533 5.104135571390922 1.9198694700050545 0.0013570282485266952 0.1771965732210819
Ni 0.8098437584923168 4.541668962721247 11.876797755831435 0.722347319398214 1.7886609334783132 0.5839150114295234
Ni 2.4307954963659233 5.3376682354427825 0.3514806249561987 -1.3709016640746776 -2.014920582774633 -2.6307774372180757
Ni 3.5502645013700094 4.042700593446054 10.151430007147933 1.431084247101845 -0.4017695788435984 -0.6493601284072107
Ni 0.5205445934894499 2.263405893137741 3.4042774914247844 1.1031953175977969 3.460434632148563 -2.1141793058676557
Ni 8.119648714908909 4.247922968785971 8.682812662940504 -1.7044045973313937 -0.20065429002338991 1.07123007754511
Ni 0.10865917535261872 0.05903639373287978 12.000481168742096 -2.740267094010487 -0.01017462654015667 0.3515983573058461
Ni 7.8248421644743456 5.885168796380041 2.691637959547212 5.067110312767899 -0.7282222901217522 -0.30549847762398996
Ni 5.645163922045806 6.080010857664989 7.287247013531314 -0.5892253678988433 0.8372056967017065 -0.12142086101235862
Ni 7.300317199203058 1.7488764382358406 8.260962706438248 2.403896866508305 0.5606349578556602 0.4904505264207747
Ni 4.55843138668343 6.876826665036417 9.8363959224898 -0.20092656984817012 -0.017863253433666012 0.15987582255444724
Ni 6.623184723503386 0.7133509494231123 13.329507691095131 2.8167378726747168 -0.90251094566742 -1.3924935313128406
Ni 2.46983899226888 8.295945115639952 10.65506764065671 0.3211860635625759 0.9995654620202721 0.6102683046120715
Ni 6.677038468573378 6.453655236365138 11.745242761186685 -0.3252522632121495 -0.956690774143933 -1.2237761992073632
Ni 4.6121631208287255 9.010882207084123 2.738891852136685 -0.11717339858991434 0.2982178848021767 0.19355907373950537
Ni 4.69483021503864 8.297090141240952 11.703497192574483 0.6431591418028214 0.9826648296101916 0.9725894476520606
Ni 2.620297233331453 3.270868869270219 13.131330038838088 0.4822296811728792 -0.8932616591550099 -0.4358765478296364
Ni 5.360268412878916 1.948580165597167 10.094272581655382 0.30013335665733476 0.6539780867951962 2.0939940891690325
Ni 3.020417982690795 0.19395044298908787 7.268207678005174 0.500776333826815 0.043834223576130954 -0.6165240557137963
Ni 4.590285623485025 1.882056055270206 5.677157063592441 -2.165774661446444 -0.7716500222880839 2.8967796565196564
Ni 6.3440518841644815 4.447204350638732 2.1832343916106622 1.653196449888695 -1.446035983315671 -1.9495027194904555
Ni 0.7608225845858901 4.523845982259777 7.619094203612658 1.1210146051674048 -0.8517614830286944 -0.7244908481037781
P 3.3778442938620232 0.07217133904927119 4.862276131001297 0.25114869922851585 -0.377837236397717 1.199350204954515
P 4.004163912153375 5.166045791673198 12.241255650447492 -0.5657547955807288 -0.34702693588507977 0.03497548763392041
P 7.934098254812404 2.5301499308920534 0.15429595391707263 -1.2144865463753214 0.5241083236845362 -0.23383334787851986
P 2.7285209235374617 3.147881857175905 3.974331302519448 -0.5385931475642725 -0.15386741157683825 0.693482829758038
P 6.156211372865977 5.613638176195318 9.488269659417186 1.0700872221899185 -0.9099414338035361 -0.8001023640915058
P 8.890701446257832 2.511059913904887 6.80687874045335 -0.2743241089037146 -0.15111555986331396 0.8486882434200094
P 6.487339637037185 6.061643520770256 5.098050980430854 -0.7781988791501954 1.0522640779655683 -1.0173538963519448
P 4.738641522460516 8.03366855482069 0.5565068442710269 -0.6305591936506237 1.3806525728138543 -0.0758755682823919
