# total energy = -340862.0530226443 ev
CRYSTAL
PRIMVEC
9.31192706372286 0.00000000000000 0.00000000000000
0.00000000000000 9.31192706372286 0.00000000000000
0.00000000000000 0.00000000000000 13.62894652176974
PRIMCOORD
 96 1
Ni 3.533773904003137 4.974785311107378 1.62093180660514 0.49316149759403455 0.6674246992184054 1.4204815318853343
Ni 8.942755752021618 3.192603518840808 8.659450613063703 -2.48565306194119 1.9544610919369956 -2.5028884519828702
Ni 7.645641554424269 9.347219305696102 4.95292276865735 1.65733823997121 1.0578989076538425 -0.3428581492193708
Ni 0.9255012603532301 1.4872171893842638 4.7226211187639 1.3192250616359924 2.570556287643489 -2.4825847074285115
Ni 6.819599125061862 6.08012968196656 8.737368163089517 0.5394207856718903 -0.3035382685738256 -0.8288161870864306
Ni 3.5064992695214383 5.116959814100403 5.735946888386741 -0.32776757343483554 1.5168356797370521 1.2402682833251155
Ni 0.3494347204653355 3.779767082256132 5.498326063791136 -0.26425541181380297 0.27869164184379097 -0.4668984501324475
Ni 2.1622387850067653 3.6818614807059182 0.4117007834181425 -2.2546348149139623 -2.3707867142178976 -0.6152328477061985
Ni 8.47833269973749 7.22139946758518 10.37464053937321 0.8614054338763616 -1.8114517061205837 -0.08038271212412608
Ni 3.2161906301901224 7.225003183373646 9.605763099297148 -0.1578089127230895 1.0220127352801949 -0.31997096020855215
Ni 6.948792801674728 2.5488886221351623 9.575752620632887 -0.1969796693852801 -0.737893237552613 1.2022997745011423
Ni 4.684085570837779 9.172583424825579 9.924803689701621 0.07073001952571045 0.9180596920352962 -0.11751406975878471
Ni 2.459028525601059 0.4222949628820647 10.802493791542446 0.22746806778212436 -0.1380183603597236 -0.5854157643447659
Ni 7.281899057966743 4.386662619200551 6.936111819347251 0.7441782992303764 -1.0019172500819002 2.390511960560967
Ni 0.8344836912803509 6.05858188265258 5.930812930886318 0.48517308007191934 0.06324091023751689 0.6209751495066145
Ni 7.350621079979351 8.775327302728027 2.4134959956505093 0.32521755331947216 1.044053002909686 1.9482428789414254
Ni 3.8192124054601173 3.042383510831673 6.963505646495856 -1.2637725370946427 -0.5569125146987506 1.7974829026453172
Ni 0.23971135222999965 8.20964635513697 1.6394392617203244 -0.33181860357575754 -0.09483025500802378 -1.5939937142762934
Ni 4.261594126293862 7.210616256001088 12.588866882197618 0.17120924528939546 0.2449932211500813 -0.0994970643560738
Ni 2.8459484086154134 7.403522137845698 5.255362986617126 0.7241103248359078 -0.36182697701238975 -1.8238595928666328
Ni 0.20379338701224395 3.3316119666191595 2.896655576456533 -1.2162891468016988 1.6257434958840646 0.13300676607774511
Ni 0.8891847446555097 9.12155406430673 6.209688386121823 0.08886092479846631 -2.1009635785083303 1.1419107318901238
Ni 6.975294546206962 0.052422424813304364 10.905187586008498 0.1975584247068856 0.3018688512912027 -0.6990832066639509
Ni 9.126638376504411 7.4937174637554715 12.622026654607765 1.7372255005161565 -0.3705306754339747 0.09895918957473279
P 5.84831856868988 3.8989504372343684 8.474642383026975 -1.363496629859858 1.1465266333955804 -0.6525832633301987
P 3.95864920188516 2.0602452474587825 1.2844900180251966 -0.19421959014163973 0.9898425783055532 -0.6952100968617898
P 3.410698163496272 6.481017455633885 3.1748903711074226 1.1308135935356975 1.5283452230385484 -0.13523591251858
P 8.880160978042111 1.9165994599836453 6.140767088869231 -2.678708713681716 -0.01802189049871735 0.7770922763495779
P 9.027941261150529 5.368996433042582 8.278099262456331 -0.3861249303278059 0.47755413007408076 -0.45022870278625043
P 7.241569101688068 2.629501975057 2.2275014261009893 -0.20281041713444428 -0.23847084665053123 0.4023578472469006
P 5.45921038280656 9.140354845125627 12.455780820056125 -1.536968188820869 0.442747821028173 -0.08669348483350231
P 3.8794047022473133 3.9487692472299596 11.152526337727728 -0.27805375114947595 -1.2994486503400136 -1.0166936370601267
Ni 8.552641878011286 7.410934431818872 7.234435234335241 -0.23523177088794328 -0.4817563410808865 0.26374350517439094
Ni 8.869321894895409 0.8824494277826479 7.935781647875039 -0.8693462859899931 -1.1632442032605772 1.7268554701357424
Ni 5.958189996566137 7.971410012159923 5.375501745316025 -1.0125988981654626 -0.7697414924114614 -0.5609748576935822
Ni 7.690795088941767 5.31061065011317 5.113758373562742 1.6814667575882978 1.9041885689346882 -1.4912244069268512
Ni 2.234536587026535 6.912858074988188 1.1794822096743032 0.9556584762246767 1.8495955641801565 -0.07344073358865416
Ni 6.062669818650349 7.31754511491312 10.514759900054829 -1.5318105558793296 -1.441451449268782 0.9518190478739286
Ni 4.785855622135314 0.9549381243080081 6.075293998222502 -0.8900151271932543 -0.1194133436640266 -1.482844153282956
Ni 6.417202819204018 1.8187031703605339 0.05285077345999542 1.0941185521075092 -0.5427591060165039 -2.7069908484558605
Ni 9.315186276465294 4.53831666398339 10.424999441140715 -1.9865800839587269 2.246978841030601 -0.20459193451489927
Ni 1.942291066858007 4.979031549865881 8.021997987334137 -0.657966639129299 0.457515980476283 -0.8758352361484465
Ni 4.972755310999147 7.820687160087281 2.4373736391254055 0.9998858214741684 -0.7166083600319078 0.09926180841681614
Ni 4.96477498947275 7.0973087270242 7.31650962861938 -1.108619831047478 0.1505900263771471 0.4209240402848622
Ni 4.918531959484319 4.319076652294383 3.5068233245845875 -1.4445342019591638 3.293779581888753 -1.6908294297501203
Ni 0.6902698762519929 1.4400057189772275 13.57895566893018 -0.9201070614826283 0.5479244522675273 -1.6555780627469938
Ni 2.109272543650705 5.000188248241579 3.844426310474147 -0.8422545719795237 -0.5300719974671387 0.052954440709844286
Ni 5.757192050069908 0.8985264699242156 1.8744704393888691 -1.353398879304224 0.46317266454142814 0.5388602851827301
Ni 0.06837561832441581 6.061273029585052 3.5232057979351 -1.0110410667600396 -0.09680743333905263 -1.5388461225698724
Ni 3.0260038310592914 9.207559023020613 8.025091409517415 0.9842236894568793 0.8619289104799993 -0.3830331787763597
Ni 4.49287445972573 2.2912555350046926 3.8632885500119176 -1.2755659301851452 -1.87023638035896 0.609309283132912
Ni 7.226129926552987 7.921870559977392 0.11120210225913019 -1.7762317065760245 -0.5648245704569756 0.39791960896988887
Ni 5.902700222965441 4.640989972209817 10.637720172665627 -1.3256602757383749 1.5780215072177535 -1.5485859755654556
Ni 3.310809121473337 1.6842482549350504 12.668419606622539 0.10292717308354532 0.5647602928779435 0.36696455534927125
Ni 3.788846211180562 9.209952188285822 0.752047063031946 0.9828684609805654 -0.16529879334223144 -1.6090189840405322
Ni 5.567908507867969 2.065227128458342 11.417908810592465 -1.6907710657083592 -0.6211792950976205 -0.3099544565128146
P 8.087175889891734 0.34735257356533283 12.836668436693817 1.407716261799866 0.32706874759559795 0.5769213537205096
P 1.72738110127142 0.7493074940785435 1.5462995044609043 -0.20846041633137002 -1.5164137617082853 1.7718027242703938
P 5.642692594423966 5.691515028219645 5.087985752922593 -0.8412238167221642 2.4206365478604894 0.34753935674512404
P 8.810461203683795 7.465036728281375 4.967492209801107 -0.6588567550437363 1.4003109704747303 0.31789068064075576
P 5.483020980406323 9.351502792163014 7.80172714531494 -0.11429633415243541 -0.7885138879229582 1.1937881374857053
P 0.8117011304326477 1.955644370322246 9.573503790237758 2.2343812068712485 -3.4809780035175533 1.0033637527204398
P 6.43823846252739 6.110672802861054 12.431602401335834 -0.12421770703120544 -0.2240150762365174 -0.9865402534051977
P 1.2124874040945597 5.228032480572815 1.7205731513671625 0.7658622119617132 -2.429401952757945 1.29624248469789
Ni 4.135045036977959 5.252029316714617 8.942469875859588 1.448859568807395 -1.3394038505767125 -0.49331807777655684
Ni 2.166950620120367 5.5270850194528895 12.747276730092944 -0.7167063190623528 1.5843351081406067 -0.4530463747407036
Ni 2.14650162820442 8.541895914135601 12.98608296300863 -1.323221070169263 -0.0038342861444256547 -0.8200610666016199
Ni 1.4216425987321237 2.484915682944562 7.413847202616372 1.2465805986963887 -0.6830984011999203 -0.6999206149635817
Ni 3.427785549728405 0.11476670795376798 2.9634649286423964 -0.9136908735436393 0.8922501871713601 1.01917989381709
Ni 6.987157941334884 2.458972654038447 5.040107548535055 1.7065591817805512 -0.6979082125192432 -1.1455773821084336
Ni 5.514700156407257 3.6322009734710607 1.191960191990956 1.1994461071024312 -0.33967692327791177 1.5310358824968342
Ni 3.0716788334945013 2.2730320936661186 9.34202976872217 -0.003979810583354436 0.7154963579146517 0.47700288555630105
Ni 0.9602272989019325 8.372102235358106 9.005503241605599 0.4641275722555297 -0.45201433393176343 -1.429978672742492
Ni 8.79735932225131 5.7880983361213785 0.8554467015723274 -1.6080548203550498 0.9432675587594916 -0.8062246749391598
Ni 0.15128715485502178 -0.020281377228111568 11.001530646190998 -0.17759715109361027 1.349150131330199 0.5078674363456415
Ni 7.081254964700387 3.684450196440269 12.081297946879173 0.7627483489230799 1.8315590183934196 1.6362261405829435
Ni 5.327604917074283 3.748236897088829 5.605203707104107 1.5391351145652008 -1.0903619132785545 1.3968029573214717
Ni 1.2783134167784538 2.965215570937568 11.318240461241848 2.542436903699454 -1.3490040926706381 1.9458851773425263
Ni 4.185888158954768 4.263586878693686 13.208111896864681 0.6047129220114812 0.0741560144881239 -2.3838525462629203
Ni 7.086730377836351 4.565889280132351 3.05963013101725 1.0649758691052822 0.9013079264982542 -0.9035776963690374
Ni 2.4223209089650557 2.9644799286965116 2.6403634068287483 0.8434038550926185 -1.756485891407665 0.5445491080373912
Ni 1.0277108346099786 8.803449322576004 3.693130774884734 -0.4099148336585521 -1.3111348284286903 -0.3551909597531109
Ni 6.551806725463133 2.086970478241464 7.388715242560839 -0.16967943890843035 -0.8431611429541931 -1.0323074323379833
Ni 5.51612488125386 6.025012385449942 0.7389889476568399 0.47441044223877654 0.28400122698216246 0.49199241698659785
Ni 2.2673331942797073 5.140993897950612 10.41128855967576 -0.09903169468388105 0.043064178179325834 0.04670897402076471
Ni 8.195520161723266 1.9770711145839008 11.408913489011955 1.9856727416531093 0.182449336979589 0.5411562803057584
Ni 8.743685374435499 1.2021232292300563 2.246145766544573 1.9016915135444474 -0.4070033164387119 -0.14844649767158305
Ni 8.093442816831367 3.4787497267575396 0.42276335281529426 1.143595061571082 -0.12697958604705872 1.037638871853226
P 1.6283301326876627 7.5502594851186915 11.026649569548589 -0.3077196536450249 -0.394746610558546 0.8508723955555217
P 2.2865530118181927 7.320375940752121 7.214837352556415 -0.32137658230682714 -1.1583992164634502 2.7377944641002783
P 5.630726768097922 0.5360308405056435 3.9124210709800926 1.546825541230923 -2.1644919380792786 2.0965996451126796
P 0.15891269195883287 4.353204865123137 12.5590063255597 -0.4591519734178092 0.33064643764452734 0.8839069574129874
P 7.105363543967413 6.860608852018981 2.099279914677571 0.109162869580612 -3.495011598792484 -0.07300518871313233
P 7.601065359387093 8.415086090860843 8.9192319617766 -0.6483795096614963 0.8801300068690585 -0.7018939366398685
P 2.6953186758137915 0.1541878201472884 4.974047806480901 0.9540209406212538 1.6450319118000316 1.2360411326176455
P 2.442108754056762 3.281541734591815 5.177541349440461 0.6560853629461862 -1.0341324013618642 0.06931925522111287
