# total energy = -340869.55721862806 ev
CRYSTAL
PRIMVEC
9.23781439953491 0.00000000000000 0.00000000000000
0.00000000000000 9.23781439953491 0.00000000000000
0.00000000000000 0.00000000000000 13.52047514630898
PRIMCOORD
 96 1
Ni 5.525339932696064 7.2755269820081825 10.929721773212378 -0.6335995231388444 -0.10287883634411314 -1.4913858722053799
Ni 6.313177682887581 7.423609144378264 12.97785789297707 -1.0362759300674285 -3.4258543230705323 -0.4982813353191032
Ni 1.499796094162958 8.583943278428098 11.293638998980045 -2.3968258185941367 -2.0548045634537644 -0.017485044158640856
Ni 8.655370058181402 7.509206731185574 12.576596803118257 1.0583794468346868 -0.36359923842146413 -0.2134154463438002
Ni 3.604650545837806 2.171431378948783 12.493013059816667 -1.0654160419664942 -0.7208311398640037 -0.570257825657405
Ni 9.217463341633202 2.061104163403812 9.508679893062983 -1.1615452182915997 -1.0902981499201545 0.4769992860118753
Ni 7.031048227976729 4.705299162041532 1.5252989279530442 -1.604457589922095 -2.364735108707179 -0.3211184435494341
Ni 7.879421374925024 8.116269694388938 10.336172808470101 0.08996829893003216 1.045121553383516 1.8519728061630816
Ni 1.1002329145626375 2.033834135748386 1.0838173186467526 0.4837525455753087 -0.6399036109800011 0.1158269118643489
Ni 1.1384405142858227 1.441902712280656 11.712949854094933 -0.5696890976381286 1.0107579883019817 0.4156733334088841
Ni 6.381214184812451 2.3811112867139803 0.6408742871266776 0.14347655526081743 -1.8183034389350943 1.1492381187894725
Ni 6.786587949573768 5.893494543858562 9.195126306785363 0.46168579558325645 0.5349416668546142 1.0512222669646154
Ni 2.2534908828997144 6.264143364867595 2.797805069052858 -1.0708436407399688 0.6604410688117206 -1.017446713176067
Ni 4.265191215713683 2.787778345469796 5.755585062536636 0.3205378884556157 -0.4989696196353794 0.08847963019964762
Ni 8.434928096819128 1.3319450093055418 5.579927100859573 -1.1369541592157968 0.4392326087860629 -0.4119994841017227
Ni 7.674138666741122 3.986458646456511 5.424171086194991 0.903255022922296 -0.1691294799422313 0.670445231212284
Ni 2.07542277548576 4.8332244137259295 0.9930724217413387 -0.2591653988854053 -2.8221019652001074 -0.3041180523366956
Ni 1.3384946196062522 5.996643977734067 11.781173883649005 -1.6439296798747884 -0.4410035846435566 -0.30067920185847574
Ni 4.484635493137344 2.4835955979637423 9.660230854682595 0.08523978310611126 0.693259143783006 0.3523195517425868
Ni 8.706907823862169 -0.15154726649391292 1.5633725793696562 -1.7794003341119935 1.768086708871387 0.42734639887143827
Ni 7.121698899176829 0.18222881895054127 12.70625876388098 2.885552420345269 2.5254992474038507 -0.4735586357614425
Ni 9.22487206865883 4.711904199227722 2.376521016814935 0.09587078045739618 0.4410652911194275 -0.48065050961121736
Ni 0.19298994876619366 4.12892421776477 10.305698183052591 0.8980261704231889 -1.0168558736696036 0.5484402155616813
Ni 2.706855092671174 7.531349771934239 4.527330823021439 0.47607317465318005 -0.5222445310029199 1.6035970416940124
P 5.229526644897265 5.435086487508559 12.33220118941502 0.364002901617786 1.7914228124941665 0.01095135680518114
P 8.704219619916461 5.970842762543821 10.503191566263915 -0.7968540323575374 2.695223680617603 -0.019103553598670327
P 5.146894396463055 4.5536512033723335 9.448418859389324 1.1603023470234342 -0.18227090242019578 -0.07637461940599749
P 5.121859919855262 0.42103370747184526 12.500868897051822 -0.7838977293071854 0.16556850206385035 1.4665449019023002
P 3.0066129271531934 1.4178474439829833 7.179912833213483 -0.10103792648063245 0.8705500764901073 0.4547697851897135
P 3.5511266500940595 6.701618534135214 6.383908855228131 -0.0524348207609484 0.9054761989433309 0.945009995371895
P 2.799750552733154 7.4150272149433425 9.961358657017358 -0.4385823767965737 0.023773448270513895 -1.0207603509303325
P 8.792985777010292 5.36307772545773 13.389569722092855 1.0803523515613522 0.12973632285658948 0.4523848298973048
Ni 1.2403982701235388 3.568493740877326 12.607802139642656 0.701578976502611 0.8515635080852753 -0.7361834539503579
Ni 1.7569860805974833 3.351793094284851 8.444131731152835 -0.42124259996654545 0.5123663526572595 -0.9629439541424964
Ni 3.3726428410390166 7.058419871588866 11.983670467056188 0.678448818243051 -0.6765400312561122 1.1679760615186079
Ni 3.1767180386867357 0.3939946251725796 5.156736363761188 -0.2289564794021928 1.5613257917296273 0.7734855328349259
Ni 4.390807013836476 6.978457351471871 8.485003516504687 0.18573726370224142 -0.7980279980609805 -0.12342914969163904
Ni 4.85537669228884 8.605495099064992 6.5262118410056535 0.8742833182802943 0.07158876798157994 0.36981693719640185
Ni 4.766185595739675 4.113284598245585 0.3988296971491548 0.8968951421425392 -2.4237601810911356 1.5064630782534765
Ni 1.2060705523838493 3.072820341857272 5.901308810929608 0.27127220945126834 -0.1965173850368809 -0.2895841203865787
Ni 4.631738447197305 0.8481181832750944 2.27395448901838 -1.3357027475760417 0.083081856222844 -0.9107035087805412
Ni 0.8156638942645784 8.45604574018644 5.730788921536401 -0.9452388235532495 -0.520523177436439 0.4002649692736139
Ni 1.6532269509817157 6.935325996755346 0.5003560470615632 -1.755753641227331 1.2522123430608691 -0.35001275798628106
Ni 6.154305753477684 1.9266385392329508 7.72638312521174 -0.9491443292552428 -0.852050475024023 -1.061035139289979
Ni 5.813328791828146 2.6398717015703967 12.08113956895157 -0.007540274241103142 -0.7975407740119168 -1.3582402665569255
Ni 6.160596704979494 4.5222241593060195 7.458597365836574 0.1761727599422579 -0.7390304364808498 -1.1557460951113192
Ni 7.785361950267997 6.70266240714506 1.2263789632231747 1.1121972639860909 1.7086939687353668 0.7776800305322478
Ni 2.226248568687028 9.113861254859623 2.755229830753967 -0.674194156731755 0.114509478604506 -0.8090606017260582
Ni 7.781297311999572 8.916790963540787 7.38550500817464 -1.0422766277355535 0.3441246746366202 0.8618597478049608
Ni 3.677989553140119 4.613133489305019 7.907949592880812 0.2528643963680419 0.2675675069061714 -2.8060253713532193
Ni 7.254492478969089 8.346623830437618 5.219538720134038 -0.4268087812004133 0.36105641739495237 -1.2879190524338593
Ni 2.94405444907645 8.82130891548981 0.503309376276143 1.3572717319960688 1.0051180164073852 -0.9947353876214804
Ni 7.547081769595888 5.890002650073416 3.7805542333738247 0.4223283768315565 0.7702292306811573 0.8789760957702732
Ni 3.6177682420677195 -0.07429419729539262 11.166033375668574 1.0075160843259163 1.4899231716169243 -0.7233351372327801
Ni 3.936408168869418 4.477152863597746 2.6323013127954566 0.5488983861450224 -0.4884527792644555 0.5325289436480635
Ni 0.11145515266445856 2.6437608213681387 3.7196040587573833 0.6956914073735825 0.0638183800075417 -0.026980128133269665
P 7.919956903838307 2.7545314519969377 2.1343960578534684 -0.2127888685033948 -0.31922688295367607 -0.15779014367001212
P 6.1850769127325025 8.179040642193348 9.016736723435635 1.1975146944076729 -0.35898487957790437 -1.2111654524218882
P 7.38527221525563 8.163133126061016 2.9953390986468653 -1.9673027237863536 -0.9555414910308383 0.3093721016467833
P 0.47652433386865395 9.192225633111988 9.126658398935186 -0.03022666009502536 -1.5575655533562465 1.76935631961243
P 8.06888894511906 6.731364296008681 6.249704661200443 0.5806785067700967 -1.1851505164153653 1.0100452785056735
P 8.088066647494623 2.184530599550204 11.66518204040813 -0.5206787291776969 -0.8611627217379362 -2.4356325070486893
P 1.134911669243691 0.7735043576067756 4.337286813218428 -0.7114401855674071 0.7388651145475792 0.6668798824585289
P 2.560417261236955 3.1541315828542436 10.701847990288861 -1.2428974934178467 1.1401258720755592 1.3657998240717382
Ni 5.967794283842503 0.6010814784788072 10.494970835366027 1.3580700595276483 0.6987273659864289 0.7975867967585039
Ni 3.2655396226660454 4.665354853240021 12.337338337917455 -0.8114046764782026 -0.3475236730158402 -0.5133032626492321
Ni 0.5569441257908463 6.033512094391521 5.118730148388575 0.28418068998282026 -0.6409577632761284 -0.41105717479311144
Ni 5.649533107424909 2.7661710979474243 2.774414923380928 -0.07956972930452749 2.156985088179272 1.2021169690663749
Ni 3.1193974012877117 4.992890795161019 4.985039576832989 0.5387546128428012 -0.40752293638760784 -0.09759599067861902
Ni 7.095093994147145 1.0840297883744203 3.5085902106150035 0.02425244478946146 -0.31475290634272246 0.1738950196516747
Ni 8.455648514173843 3.1845978942389306 -0.12060058876841243 -0.8278409676573549 1.0430731554949197 1.873392152379122
Ni 6.68605281713 2.896978547676704 9.804196647024474 2.4173578771092172 0.3671494176665677 -0.07652965692662303
Ni 6.1172251670925615 8.62401691662906 1.2118414149435868 -0.408884849732141 1.0456283178166057 1.936293676999349
Ni 2.5075954393759363 1.4991217337229694 9.546388650816864 -1.8847793111701412 -3.6425877780439717 -1.1451570067415633
Ni 5.611242367373505 6.382008636837643 2.525746820588723 -0.4310608716085479 0.5486831848104228 0.032752768950988755
Ni 0.16051718412718485 7.707062236715356 3.261287456768419 1.4955919398669275 -0.9630527118062188 1.4760214739341675
Ni 9.020670184741759 4.81958016208397 7.60563196007111 -1.442047430981568 -0.08219328297030361 -0.7707593921530146
Ni 4.56008072208784 0.2211883767533848 8.794636574416128 -1.497641109086472 0.7201467122024695 -1.093076741106556
Ni 3.14980828578692 5.137610393145405 10.060085025431677 0.803103612811675 0.19656340778346792 1.1818453633015324
Ni 5.120871473730896 8.644450961742137 3.94554529094055 0.6699297250284462 -0.6098309599643369 0.8158156610617047
Ni 5.366680473013833 6.57930987351264 5.337924081046159 1.0789531572209803 -1.7600227009163303 -0.7637554500313556
Ni 2.6204445782101793 8.561486151995055 7.735334567216519 -1.2147611401929468 -0.5909271810812985 -0.09698175413338782
Ni 0.5208621471257621 0.9904414922439589 7.370268157356597 1.9624291977441366 1.4486371683839439 -0.038286811395340514
Ni 8.716395059093239 7.184275852882066 8.54557586451845 1.0126325796168754 -0.9211416733947297 -2.190066187003957
Ni 6.979796834537602 4.515960921246948 11.551745376587814 1.974053412246626 1.6430727311911313 -0.22752077539693072
Ni 1.422106076350582 5.917928562540338 8.870796810189297 0.31932072821906293 0.5521770568962941 -0.25986422472464277
Ni 3.99430155075172 6.199146103829797 0.601969232427888 0.3334731084600451 2.034946391077257 1.373721650021976
Ni 2.8587155210680404 2.0855012308286023 3.4790883270376423 -0.4589272590015129 1.9909275622941454 -0.5431558272342903
P 1.831516765937584 4.28227193425531 3.3382051933097943 -0.11766885016909412 -1.9563251417289274 0.4781706806121572
P 0.7278944973279359 9.171745398927678 13.592133741544036 2.4861986500320152 -0.1794367754055103 -3.0153921015489424
P 8.024898473677617 2.8311960724279612 7.830072047439234 1.0419570396126054 0.5452785300042481 -0.6997493794930401
P 3.443774010736435 2.272844103745961 1.078947142976041 -0.17171420995027198 0.3759806428049525 1.6618849788016283
P 1.7801545187274999 5.047901978998439 6.674788226437919 -0.6295600629621481 -0.5313850598516074 1.645558730837779
P 3.8494710989963776 7.709242360877512 2.4220311086999136 0.6379683416305013 0.08193360155101373 -0.9143323637823803
P 5.898325920709439 4.431952238490022 4.347238710506095 -1.3755466190458567 0.3614109725208937 -0.6176931363212329
P 5.957013754616932 1.078145300699452 5.684197081603168 0.45045624541602425 0.0638713447326642 -1.0293486068199758
