# total energy = -340889.8914601974 ev
CRYSTAL
PRIMVEC
9.07165446378167 0.00000000000000 0.00000000000000
0.00000000000000 9.07165446378167 0.00000000000000
0.00000000000000 0.00000000000000 13.27728328462959
PRIMCOORD
 96 1
Ni 6.110684406047151 2.2380043037655026 11.29048373882966 0.17832425906762192 -0.3966569402073814 0.2186144740462364
Ni 4.633220374652832 0.28038215189370325 6.261194942218435 0.2144605997788629 -0.6955021741809118 -0.5979694326400605
Ni 2.822672416344947 1.4214828533845776 4.898520901454785 -0.08625588307545146 -0.12460517227761123 -0.15745949980347076
Ni 3.540203976198845 4.332866976058685 4.821804643461758 -0.429517438380828 0.7921077759218035 -0.30497165858624253
Ni 5.089760443445277 4.312691617138953 3.0489956737518824 0.6303280514764241 0.1536933478928192 -1.5476668061852958
Ni 7.080544027210547 5.965166001176911 2.5183955273133964 0.3223661999136061 -0.5427459933903813 -0.698333730092436
Ni 4.979630561572284 4.877755885012669 11.29207672130552 0.4610160232097415 -1.3288708122558726 -1.1818996135782356
Ni 5.6777487814584555 7.883049771867109 12.237989896902183 1.2319458795023492 0.1878496820595539 0.9894903371724572
Ni 1.626202873502193 6.732038288173084 0.32316770171790327 2.2851805489113026 -0.5150798949336807 0.03062929485008273
Ni 2.788399706813137 1.7498313768106906 0.27687414321822656 0.7057729599793007 -1.4230978864622588 0.30152020970253235
Ni 0.4534003692771042 8.872331804652424 5.182773928191586 0.8539487204880003 0.44352120885908775 0.2849751608596576
Ni 8.746689394113629 2.5183819198321107 1.5024709533359235 -0.31049515950763296 -0.10186993546362455 0.32003498067726815
Ni 6.971593460382323 0.647430352096603 4.860879886722032 -0.1615113012753412 -0.5311184364537821 -0.12889480079190058
Ni 0.9609240417857288 7.6102107004328285 2.5858568837012483 -1.637823052756418 -0.8715885450569506 0.317579320047924
Ni 7.5527780577526045 3.835930831155824 3.8521645563297713 0.7136395072115709 -0.007800726991341404 0.19627210179529422
Ni 7.541111910463587 3.566629704855849 12.619990904707327 0.734701984308825 0.3956974045075895 1.035543679887094
Ni 7.882432899382153 8.735993913822998 7.327227705282701 1.6145861937156645 0.6824057460082699 -0.9209447268925752
Ni 6.8047748114727264 0.7398587151476221 0.18077176022004413 -0.1252417774203456 0.43409940132455566 0.2722728828016408
Ni 1.7299644541334371 6.639244337458187 9.47084507585745 1.5099397239481671 -0.5369638394909656 -1.8810172730245476
Ni 0.19889783245813547 4.936776067176235 1.1943458685967514 -0.3975730242637476 -1.1314417140379998 0.41845963790476964
Ni 6.460496463288049 1.8936896689640625 6.939597736052335 1.0858367717146913 0.1351142993390512 1.535252491681343
Ni 3.354688648002574 4.892551752997418 0.7168475571279322 -0.013336054987273806 -1.2520884158884953 -0.8429677959964643
Ni 5.846200328122345 5.7047188093668915 4.796192642185644 1.2937325737918428 0.23057961682791256 0.34801115417522
Ni 5.184722519511711 3.0176676231703174 9.101430988241662 0.5994537304950708 1.215865429000719 0.8820791601756293
P 0.3938250018770774 5.462396782629542 12.287913024243489 -0.22910123251017314 0.23257607843265107 2.203313538932167
P 4.153148434890161 6.394409462510063 12.43919465102097 -0.9221827130647344 0.07230559154294645 1.5808034408382645
P 2.278708816118396 8.599365730059475 1.3442050599971571 2.4134222895002373 0.3233725296909334 -0.6608205636383264
P 6.396350796506836 7.783052927724933 5.983234921993603 -0.06419633217225074 -0.5925102092977022 -0.8895548997273841
P 4.831544878566127 1.2917854134226177 12.736485459160395 -0.8501928529899937 -0.9643531757851972 0.236127029008703
P 3.954107270295815 6.4046785750537385 8.10514382409042 0.20448137707896397 -1.255702872712631 0.5887605124472828
P 4.8745082328124605 0.768791849022888 3.806132261470782 -0.26980950886281274 0.7022580048475067 0.033439253495052085
P 0.06209184427247889 5.4112780112659244 3.554262318697904 -0.378035211341136 1.0552887237245052 0.3523028395720384
Ni 1.5767895731263941 1.1731916781898624 2.486954988219869 -0.2268468892583577 -0.24785588740985703 0.2770728752934454
Ni 1.5978448825026064 6.471173800270298 4.781866685887964 0.016827613080300053 0.23131880898678228 0.9548406083090717
Ni 5.895232619022141 5.625532339937783 9.004201905793014 -0.33096396888494617 0.14315311048312765 0.5205725426171357
Ni 8.82367145157444 2.3501662361771745 10.240675629285153 -1.4946360037115611 0.047520157068150416 -0.28360090621995027
Ni 2.256111325529794 5.1073594525749 7.172760113553507 0.3515096542467817 0.9773488167139169 -1.1120404266932524
Ni 0.536435034413833 9.097145538802055 9.091074787817757 0.02520580984166627 -0.5125987803830399 1.4527648173990724
Ni 1.4368139489665674 1.237999575726985 11.404044520317514 1.1891051301877391 -0.49523894894835363 -0.026109552602858254
Ni 4.513737617309405 6.7694225750922445 1.4335218456608254 -0.5295076403232365 0.16561735302391478 0.09157909506057778
Ni 5.995773762415749 8.044434499916578 8.2709237685952 -2.191805538292567 -1.1525777246856668 0.45488419928039076
Ni 5.168411685277144 2.4923099856885367 5.129970550644788 -0.5717588356829637 0.625907039590593 -1.19226167353885
Ni 0.8405876417829733 7.309821015221919 7.218300724755371 0.4081772821421551 -0.01956223840264373 -0.7647769493173344
Ni 4.870725353015011 4.433807272236675 6.870196859998548 0.8858918490535002 1.5875469302096854 0.6570778087664425
Ni 8.345577132425301 6.847003361729628 9.129247401486072 -0.7888437604585511 0.8717608089687567 0.21620715015632444
Ni 4.361061677282842 0.36253777373936996 10.811492233081083 1.5952818369600976 2.7974301734850404 -2.814416680740708
Ni 8.094455601123142 7.517716114306219 4.128119740978497 -0.7495650174635864 -1.2072499194175659 0.22778431347096254
Ni 7.2691074312148345 5.925822236952597 6.943541184128956 -0.1035205836931701 0.05565229925698158 -0.02660731817488321
Ni 2.079050779039094 5.486908392252345 2.6156781325217664 0.7790365445601422 -0.9511608454646394 0.2735139542975935
Ni 2.555013259453457 5.380425315363944 11.486071324673675 -1.100458378282608 -0.4760549198207349 -0.10366302280830533
Ni 1.306726427874415 3.1928049789726254 3.8061585692679345 -1.101546212030148 0.4776091516817323 -1.2670910599449146
Ni 3.7428465875068295 2.4289172662051364 2.7477732106862827 -0.24952196225837023 -0.11424542630984194 -0.20512800952402735
Ni 1.0643681145203043 3.2212899731308795 8.165715259120567 -0.22132595944012848 0.4424158916100509 -0.008904758688797568
Ni 3.5058586934335105 2.7350493085186494 7.2687418435509565 -1.2225713802659848 -0.4434435615436169 -1.0299453598637098
Ni 4.127548226764494 6.784608524207186 5.913011246904736 -0.9890550494072514 1.079426240202657 0.3243608617461317
Ni 0.5076071317271773 7.28039256902785 11.242698800381062 -0.1827442425121885 0.895351194694187 0.7320576047074424
P 0.193308786311352 5.256261584458205 8.102594689262883 0.6663528063104653 0.9355077123084147 -1.0229216202477092
P 8.542822109489924 1.7072036737694056 8.059961543229084 -1.2948353199377183 -0.5505120104890455 0.13957233511040482
P 1.8049144610555685 3.3211235274976256 10.372000524008893 1.3765118111726036 -0.6271365411223199 -0.026884997316302083
P 3.967714751581605 6.2529642303713695 3.519834483879436 0.009028428750855418 -0.8855702040480232 0.9543269018974468
P 6.910677302492935 4.078016994884218 10.484632368107635 -0.5457642113914148 -0.5739352745089922 -0.4521562588262664
P 6.827172725669137 7.718898189289528 10.389965120802392 -0.6216762893386971 0.5750652743483774 -0.5543051589828906
P 2.511777755581407 8.589214549020276 5.966970353195407 -0.3182562915102906 -1.5137647541212123 0.24491171717986854
P 6.811315474144097 3.924606250868222 1.529436445417264 0.8468488762184254 -0.0920246672384286 0.7113306565727362
Ni 5.06963951445069 3.13672401276679 0.5428831662124594 -0.32755442898276493 -0.29344720288641074 -0.026241707305348354
Ni 1.3545068304959191 1.0168961481412784 7.111139995298937 0.847623806711237 0.3844616836927701 -0.7611177552981924
Ni 6.672528236683228 0.9259709581896294 9.413394289868844 0.47804263967472505 0.11768556233964247 -0.4033256104768086
Ni 2.674695593189076 1.6795260568341088 9.237882274748467 0.34638981652171313 -0.8589646856453529 0.6658324150306211
Ni 6.484354913809135 1.9869190590801051 2.7082071909343 -0.3173324941444406 -0.37604157794987497 -0.5029789979050886
Ni 4.220278675900058 7.18118495880025 10.334970938768583 0.0762522348955203 -1.3235213750185013 -0.794178028187271
Ni 8.39378390279376 6.978215767941406 0.4606431779828207 -1.7752528876025235 0.5376487813731321 -0.3025424803194596
Ni 7.562557300969992 3.8778781601328194 8.496186549627263 0.4218136419786671 -0.9509800969124008 -1.3968710915552458
Ni 3.254383367617921 8.543030757536306 12.434719604008782 -1.510580957076592 -1.2122589425963832 3.0030006698631246
Ni 0.2184291039303394 4.710474581739358 10.34810215820937 -0.5667333574439143 0.3741469320303234 -1.151158989961269
Ni 8.735621976001186 2.5748076088971867 5.881212377470683 -0.49191219856796575 -2.1453567599117247 -0.4087352115281542
Ni 3.657554894807498 2.849678730870145 11.50852276162981 -0.26382629469618435 0.1654980538372311 -0.3970621460656001
Ni 1.1564726195167219 3.3980330117249107 12.514502988283626 0.009278597088448536 0.48547544180368657 0.7736968775147837
Ni 3.2172440153619046 8.443478424449465 8.358567741226137 0.208644250207402 0.4635868692607113 -0.7864973717135616
Ni 5.649644796776204 7.820682149307238 3.446835789773687 0.17247242827253523 -0.06575673468083514 0.7543788939124622
Ni 2.9003802061409982 8.186260741531273 3.689916206801364 1.641927304732779 0.9352889114293891 0.29858426700266
Ni 3.315263238890545 4.506897590049748 9.182741131916769 0.3874230803139392 -0.009279368419396921 0.7483128902240402
Ni 7.4248858769745585 5.782272381041703 11.576197301891138 -0.21184244542972547 1.924508254328647 -0.47045711401798335
Ni 0.6971339454064988 8.863432511891517 -0.03742057353592254 -0.5855422626203013 1.3425681072373072 -0.1676706360085177
Ni 4.571678272624299 0.005507401259068744 1.7099414990041064 -0.5586012152550832 2.10467805124544 -1.1217759088134616
Ni 5.989432676136571 5.471060212381495 0.14096534163201307 0.7353373038999788 0.11668977408527645 0.6978161670260691
Ni 8.223354735516336 0.16034239498297803 11.348810846613073 -1.1316769699772575 -0.3086321381569652 -0.5236097867815628
Ni 0.1808588481002732 4.737789332507034 5.924974037285782 -0.09370873980907087 1.2217591687773344 -0.772819874226469
Ni 8.232861829108009 -0.08531437183480813 1.9773194346156897 -0.38938097537125843 0.5629054990573918 0.7046786984738573
P 8.840862236265487 1.2035363614571741 3.7326954064676303 -1.0157428431110826 1.09349223137742 -0.41638347210203125
P 2.004790217835443 3.2623845666139655 1.4986998666889213 -0.8671567345378419 1.0492592297009737 0.7716649346864195
P 4.6777259101115565 1.2275853167162603 8.22125374040581 0.5713549153763257 -2.098264434409612 0.9128634925463375
P 8.716235850996032 1.7547935716529086 12.686377270073603 0.0566866540587669 -0.7828656884982453 0.025681463926504156
P 6.471101227036774 7.797504072850442 1.2167782550790858 0.22886957611534134 0.011060885799851919 0.2361108310587869
P 1.944264141076249 3.2578940977896544 5.784221879527247 -0.48029672581622446 -0.12257940009683407 2.0442018482372535
P 6.71611753506871 3.877678583740628 5.9187336463681195 1.05097158440639 0.5145972988703073 -0.012977128985958295
P 2.359872906161038 8.526638278414024 10.45700192377413 -1.13838446390442 0.3121998009035655 -0.8954434972976771
