# total energy = -340886.7982714438 ev
CRYSTAL
PRIMVEC
9.13347259102312 0.00000000000000 0.00000000000000
0.00000000000000 9.13347259102312 0.00000000000000
0.00000000000000 0.00000000000000 13.36776036252158
PRIMCOORD
 96 1
Ni 5.371459212715747 3.2352312894601383 9.373486633617858 0.2948880490979954 0.06230682845902173 -0.09655752211177564
Ni 4.890773679460715 0.7087401257496302 6.155974281141412 -0.7501103484440952 -1.2214254395869997 0.41122943870491757
Ni 2.7545457562051068 1.6346267375816812 5.033737187153831 1.6770092360375763 -0.7665286419011186 -1.5692298770680522
Ni 3.5668494152353514 2.735749069446117 3.095385035989977 0.6394469830585569 0.855853650820197 -0.6362706422131041
Ni 5.13091094295311 3.397386963278942 0.7330452098771068 0.8005276245543826 -0.850666964412935 0.04604768628768199
Ni 5.128810244238549 4.741030395003167 3.0761755162662134 0.24613042007831804 -0.15288293617638185 -1.1417605794655046
Ni 5.033913463176401 4.815175926154517 11.60695864041232 1.0205163532403263 0.30243757931047915 0.016049083043062684
Ni 6.037353304813727 7.956898722398651 12.66707624671578 -2.7441522879975064 2.97714591358355 -0.5473338698713799
Ni 2.4979591084304267 5.556110629725702 11.90405771957095 -1.060856704730586 -0.45547863833128005 -1.5312598255821823
Ni 0.7524273522343718 7.423841856842334 11.605582226080648 -0.4862393165529045 1.1396576741898887 -0.5070783647854428
Ni 7.971009937676902 0.09396608019687042 7.122315783479581 1.8839570723791619 -1.1232067277227173 2.012151247559612
Ni 8.471295903286059 2.359541330086168 1.7496792661364133 1.5875361315764078 1.4735516722374364 -1.8006443310924345
Ni 1.3756653869122801 1.4288952656447342 3.00476546018013 -0.15242785091683425 0.25351308569563435 -0.862365998017418
Ni 2.1050462475533775 7.060073907261659 0.36759852801931575 -1.1513924461283138 -0.9438015768860907 1.1378761568094338
Ni 7.701289356199877 4.212129259512613 3.8755279110475533 -0.02100334172454447 -0.46021383902342033 0.20705813666720466
Ni 7.810023348360115 4.173933076798281 12.770809662588096 -0.9839789204359249 0.12050991916231503 0.8008220158663498
Ni 7.100900530105528 1.0088833913498416 9.374195391097206 -0.30722497339679344 0.2844113179363876 0.43052633926131656
Ni 6.850579444583845 1.0943544286144788 0.33236524383978333 -1.4116266525978656 -0.2372148627562431 0.8946549399581109
Ni 1.7770084430655912 6.658383779146811 9.350294006461832 0.15969301711967981 -0.02790855348481 0.3371094196610517
Ni 0.09733907165464242 4.949739379031189 1.622471912149775 -0.45097432270302334 0.1999040421209267 -0.27535075039601614
Ni 6.554700597374192 1.9940562876431542 7.305908631006852 -0.07704233489698345 1.3888921871148274 -0.11486660483360862
Ni 3.1979119201223196 4.648992390887357 0.7456950695278358 0.6027809950960908 1.243432025765078 -0.11727804248857868
Ni 6.226142184944101 6.096364671747561 4.897947108897308 -0.21290791057976236 -0.8332433696198488 0.7489134999225167
Ni 6.124477500631997 2.2249230763734635 11.445623152439461 0.6433252350670404 0.6847901870800465 1.0222456772266073
P 0.052825265893084186 5.940903833397337 12.854865924935838 0.0007268508636955224 -0.8707418807859392 0.8778648649839655
P 4.210768372084484 6.591042685136107 12.52163482788675 0.5294407916410431 -0.123756965344703 1.7720138118399351
P 2.504425607082207 8.91628782533889 1.6015781800652928 0.19918978966272147 0.7303892158660841 -1.8701978138115405
P 6.473138686413174 8.04643415500233 6.028058169675425 -0.7210368281169066 -0.6965298441144778 0.11071093079402224
P 4.684631201253527 1.4806455218043233 12.85991947536526 -0.4628913858555834 -0.46659608840068023 0.28450593453272294
P 4.013786766967319 6.510832528130545 8.44293007720861 -0.9890421938914451 0.43270457785955796 -0.6489978599717855
P 4.807741279399504 1.1119820308714514 3.998992367933203 0.042814266952048846 0.8585785059505278 0.168892938451393
P 0.24248821935817028 6.0059706927127126 3.627769677957635 -0.09315775240160731 -0.47451688590965374 1.2538478217817632
Ni 0.7480012713775175 0.14550900652680487 5.0115602021589325 -0.13701280191334467 0.13967157969243044 -0.023472629200643445
Ni 2.028781750742123 6.558865460912628 5.017335296929441 0.00038335148134772685 0.34540534112125676 -0.20522519722352398
Ni 7.944194061911891 6.926789140559067 9.397429118880256 0.5484566706219135 -0.8574549338690458 0.3844994789092411
Ni 8.50160989908445 2.6751028109039936 10.830733111783767 1.0635489068507684 -0.48676202182559386 -3.0464101471970113
Ni 3.9235845908585825 4.491622656748685 5.067450661480741 -1.7248793202459776 0.7295142694602984 0.007764217326451143
Ni 1.6813444502989947 1.5117723966705214 6.957946155885082 -1.1965124783954038 -0.9704734297503222 2.3552600793372083
Ni 1.207920027818208 1.2230085246723628 11.793947313079041 0.6510359734477368 0.03497008831728171 -0.7958178777835391
Ni 4.306907305430025 6.988494881931143 1.4950901088351014 -1.8188814229257515 0.8439414727636433 1.3012180835356106
Ni 5.654578598602605 8.094960295308702 8.438198025017243 0.4149963619465175 0.08665877494082494 -0.5086246262266402
Ni 7.2219647103729745 0.7859554170660406 5.186490864204071 -0.5833187726064212 0.7654948013199655 -2.6132198879502866
Ni 1.0776219066793629 7.62697028906776 7.21480772118719 -1.0224958455642001 0.5129062843211295 -0.3911018147171071
Ni 4.7785963681031305 4.838283612014693 7.265819079407613 2.689373906705046 2.87402847886607 -0.36024009214124414
Ni -0.015021822503649146 -0.24483278179307433 9.555328594433904 0.9801320358860087 0.8101615480997209 -0.4158749078967289
Ni 4.820592075449016 0.47131824368262193 10.50545544273746 -0.10790508591411095 -0.05118603595551184 0.38658412935241165
Ni 8.407352461109342 7.442565475819948 5.058106205590012 -0.0675297674208579 0.1381093774116331 -0.23098430846549897
Ni 7.294740220623522 6.3377897548867095 7.191801416873673 -0.5307337994208536 -0.21008149687456076 0.18848165921659799
Ni 2.321162477918396 5.717654360875482 2.6957691195189426 0.8122176592978012 -0.32531859767371074 0.3567976421185984
Ni 3.3869474040148386 4.56010543484339 9.190616243778944 -0.22289176126535165 -0.24375086410254798 1.3808412917858928
Ni 1.0841066722764874 3.899253019660357 4.04251793195165 0.2471310934286905 -0.5791451008447058 -0.07943654616077288
Ni 0.5959380848612807 0.36687789702549445 0.6180757959236901 -0.09019481311854144 0.11754672276893303 0.04269856730979098
Ni 2.3440235600164288 5.359677032968858 7.151911888325952 -0.40790731631022004 0.32681292283105007 -0.6389826418276287
Ni 5.608144023538124 2.9500751391674225 5.152590153687385 0.634986376184042 -0.2567966415429126 -0.3572470709511912
Ni 4.284676432946361 7.135963931693361 6.276765370575966 0.38978695256042545 0.4076754028050721 -0.13120056610694178
Ni 0.9888993531434913 7.6861277915643464 2.451459685709974 -2.4701721926967717 0.47517765942210416 0.3208932149125054
P 0.17646234541223504 5.7231892453147175 8.073739584902562 1.0990918369523845 0.13923603481690858 0.026560524097347805
P 9.043791103840102 1.7819405183084747 8.308784937380315 -0.781679638609944 -0.39411257651897286 0.0706297465024203
P 2.0709327271234335 3.598177226500334 10.670386778901287 -1.1197838180840973 -0.6237205734622354 -0.36200669712336364
P 4.106062241372602 6.46323800203672 3.995984715382311 -0.3059229667559183 -0.15565664226677708 -0.2895566095827529
P 6.99799369351003 4.146578326145622 10.599498244104776 -0.3867077994144695 1.3929645574119882 0.2491039008843452
P 6.575607116320415 8.150455275263814 10.452399099985774 -0.5084328219308082 0.02206803554363296 0.002703000753459861
P 2.6439850695104674 8.596945086834854 5.988396064597237 -0.8285284806426827 0.9885156319640137 0.09923506894393878
P 6.894538848554212 4.269441800529454 1.822039203380385 0.29858349567171155 0.06899169667836506 -0.8220631846333133
Ni 2.816726438156127 1.8692565170528572 0.8156793905298186 0.21295624731919455 -0.7387748688266179 -0.9952647777623892
Ni 1.2832620438895899 3.5862306442453495 8.443679021967714 0.9072353477262827 -0.3718195694487274 0.31268213985662274
Ni 7.873354847867809 9.321165535416268 11.686270063706955 1.0604188458622188 -0.05604619226129058 0.32957840139132916
Ni 2.854968288233818 1.6590313765612827 9.426409627668532 -0.5817856237913465 0.8800338476108264 0.5151354307619644
Ni 6.408199695715209 2.1873845036915167 2.659809724261986 -1.4047944601673805 0.45545087041713817 1.3186563336167159
Ni 4.035825836524871 7.3128427634594395 10.45408331234649 0.15399159585952835 -0.24950396453624124 -0.42047975365859197
Ni 7.078760992348584 6.322536855524459 11.831083099616153 2.3290068020676338 -1.9215769396144649 -2.2862784099611724
Ni 8.165580306008657 3.9122590847452945 8.542640198368904 -2.4329181934413198 -0.1812774281586749 -0.0869444245020438
Ni 3.0918449019823075 8.457111620226433 12.305531384383471 0.2229167009660161 2.4514843864792812 -0.39346877228738686
Ni 0.18949672426245553 4.951730476073686 10.68907477733548 0.23689578885392748 0.7235179426675474 -0.15013956910328982
Ni 8.437127582020084 2.7895543569569075 6.167791168084454 1.0967210227273627 -0.3116716963142374 -0.6487939714910955
Ni 3.5304616601100776 3.3449516966689528 12.197519849911588 -0.2722471717700279 -2.192558871518824 -0.1915430717507411
Ni 1.114073596113341 3.682661848716394 12.942251338072529 -0.06882817451730727 -0.2831908152657252 0.029263524850807666
Ni 3.236153770200011 8.807060625654364 8.163744478001584 0.24101572455957204 -0.7238586138364179 0.1859540076987378
Ni 5.618793652673683 8.170813785849717 3.816121064747021 -0.10915412782986363 0.3959745694283761 -0.32143031836289804
Ni 2.9121894945239393 8.533905858452664 3.6004596813210683 1.4074172425022082 -0.15915308545580978 1.6628856521520008
Ni 3.8476032317001607 2.9939980092471017 7.207187664936934 -1.1959303806396888 -3.2619596091646788 0.3113531366325541
Ni 5.736423647216456 5.599814296461254 9.480909972449663 0.9265404758127979 1.07211402281196 -0.5561992906818097
Ni 7.8332771697830434 9.300980560811134 2.623262133364952 0.31564430780874025 -1.0020501761153389 0.16093974504258735
Ni 4.736527592975868 0.5115374905938027 1.8910033154849046 -0.6792815985569914 0.2146431481033142 -0.8799865393126586
Ni 5.998426444285635 5.912599201586789 0.525481563322155 0.9927744072403676 -1.7921244665468814 0.1488193076299695
Ni 8.051092226065055 7.752308934545705 13.966101751089987 1.897144003383081 -0.6767791438501117 -0.7995634608689003
Ni -0.14667900437608894 5.171746699269652 5.886734120326934 0.6779294554044712 -0.01541684877570248 0.05373399918834616
Ni 7.450520730517265 6.514933457360277 2.6637398575527502 -0.4051544361554313 -0.10340925492628641 0.1102357909298166
P 8.500376880273729 1.996211787193748 3.8580829782440205 0.30343002513073547 -0.20429394365850623 1.2696768183942198
P 1.821141383016727 3.530132855093885 1.8286427041222457 -0.8562069203945577 -0.5174707637633604 0.9371779009219858
P 4.942642670765039 1.384196050387934 8.488969172906392 -1.6030149439382972 -1.7789817585173362 -0.07776430066467253
P 8.460701074986533 2.1144902582962324 12.727203724010135 1.0612562541618498 -1.785249079583287 2.64688616985448
P 6.172473899523391 8.07318609645864 1.4344538971129173 0.9073520758098051 0.2855881118533082 2.0867443495851545
P 2.1062427324734108 3.421974271711984 6.002926506271132 -1.1150933545869635 1.198046655651743 0.014240311969098056
P 6.759555255934627 4.188007758185844 6.734570641440354 0.5055416164259422 0.12462291288942408 -1.2291171518043027
P 2.00505298874025 8.690691050340329 10.263004670617246 1.4980699690937749 1.156933687661517 0.22787790162603339
