# total energy = -381176.15667038405 ev
CRYSTAL
PRIMVEC
9.20179804418372 0.00000000000000 0.00000000000000
0.00000000000000 9.20179804418372 0.00000000000000
0.00000000000000 0.00000000000000 13.46776156967056
PRIMCOORD
 96 1
Ni 1.6928731662833565 7.467562668522553 2.527858111918025 0.7116088499347873 2.33329797324382 -2.2295063952774505
Ni 8.092990469307168 4.451608988823827 3.2895010474394972 0.9859285879631279 -0.17814093941222223 0.5836172776834465
Ni 2.976201912699704 5.890254882271771 3.4643260060539465 -0.43213302162680417 -0.3136313911437696 0.6309147772178295
Ni 0.6608326384479106 2.691176222237966 7.5923970195963575 -1.310586155014072 -0.04575997984393409 -0.37668563929177706
Ni 6.6589362730195285 0.2607863143902515 2.251190414503789 -0.2886384686438577 -0.6754989915861076 -0.7079236877737163
Ni 0.025180719998338905 8.962606381400361 12.339418688370001 0.019912679763526998 -1.0420768530199214 0.8773709560666827
Ni 4.276710415826046 4.493339142374884 8.929448622788259 -0.3185547965873159 1.2302317250247201 0.2522822986123268
Ni 1.3197126553779526 4.120141824277814 12.594579023514143 -0.3827328739271215 0.9270562391069517 -0.9008957786615001
Ni 8.978599106179132 3.7027022617984997 0.929459804842761 -0.017937044094394915 1.161059794014749 -0.5572084486726145
Ni 5.74976183168356 6.7333052037801995 7.314435549395071 -0.24994979382440824 -3.1982451017248534 2.0583416300727455
Ni 3.75445317328056 3.505820593578343 13.417203194007657 -0.23359063574009448 0.4944743028681871 0.3973308263459544
Ni 1.270271395172919 5.137879077431945 8.094299885150678 0.09747206350624504 -0.554762044014651 -0.061094810428791564
Ni 5.166423054568743 5.4360817425100265 13.347629320141241 0.4064083631671904 0.5966764248602497 -0.34461061313410324
Ni 4.817527684768992 1.13282413969505 3.5418327499041236 1.207242206108082 0.35811918914349933 -1.111331573551686
Ni 0.41086855858718463 6.623730194191228 6.509009539207383 -0.5507038147848773 0.9820940447083861 -0.28340833059317
Ni 7.280821381606314 6.7808508936144465 2.8634081141995624 -0.6740141795104649 0.4954052993228887 0.4217779036447252
Ni 7.976900586793358 -0.07484098299378396 10.499789727836504 1.2402963083495737 1.8653078327090906 -0.599761748653793
Ni 7.525718031354457 1.8163428907261527 3.9858379029682016 0.23265166886559285 -0.8402586245954174 2.6820848292428003
Ni 0.17106142326662535 6.562004533767746 3.8104737189958486 0.00240423856611844 -1.3510625178615634 2.462818066324546
Ni 1.6413522997492074 5.5082146363770015 10.35899761881601 1.0915819017285846 0.18627565270421467 0.35022204578360977
Ni 4.668412549533078 8.287672907825296 12.68160778784825 0.41285771833695994 0.28188726596295327 -0.4024864024049649
Ni 4.931537960953688 4.3136096254709715 11.363275402157765 0.4937088854570722 -0.1290585800632745 -1.0901207438020257
Ni 5.4121110589376995 2.041952572041436 5.792619205479381 2.505783257032162 1.061517478243036 0.8196620313909885
Ni 1.5013653480464009 0.56051555774267 10.765024191339563 -0.16590223125418527 1.6651101706071452 -0.4226317670045882
P 4.310444206987716 4.454903232477913 1.94497390362028 1.1677279500635438 0.0653759543026487 0.6042904897620818
Ni 6.911359993463319 3.068946833899506 10.311874291506127 -0.1393681895193987 -0.8705755304114039 -0.29240102101008353
P 5.431453238158057 6.5216086409145735 11.298118391291242 0.15519770035248756 -0.22513607721483805 0.42281945753536215
Ni 6.102273508064472 8.186112664221545 9.719145079617583 -0.25975932371566235 -1.892510618376128 -0.5825168455304162
P 4.445637021976057 1.3950201695261002 7.680368048037111 0.1717373498787236 -0.2233501889590089 0.4928483372289899
P 3.396696472087277 6.054184912153155 7.641567746942648 -0.1058947403523015 -1.0407077405865366 -1.102494177765714
P 1.5717406985113362 7.718909778610121 10.872752400086705 -0.0376031550647546 -1.6427040349978035 0.44250819421354115
Ni 7.498885588630117 4.609309401515781 12.187340574204992 -0.31284977578273865 0.25972229983013984 0.5702192591099857
Ni 5.119098207884491 5.568744063071347 3.8606143158425317 1.35107537337737 1.1064899291886687 -0.7840342548850497
Ni 4.5606686977294775 7.218525209712013 5.620944942471521 -2.251245329616439 0.021363810387756754 -2.5878906651568787
Ni 3.844759618032505 0.5304698471859092 5.4317633387478415 -1.8175542194738956 -2.015210860321542 1.1233049438634783
Ni 2.438264806504604 0.49601831578675665 3.2506869436481605 0.09572448468751901 -1.7000437492595368 3.773123713983721
Ni 1.5479448490994219 6.547281657101442 0.11341491985950175 -1.5225090759727458 -0.7408525772912531 -0.47679231220739177
Ni 8.622618351983723 6.880579979432826 9.490704925263202 0.08373697330833965 0.8883565085439087 -1.0164041308441656
Ni 3.6501783992914585 6.824936707432112 1.0014454699430735 -0.14620629548715466 -0.2891195220453343 0.6733176676640726
Ni 2.3067803160765883 8.606607223609117 13.11424595994615 -0.4523655466235952 0.6922556422191561 -1.081977288759285
Ni 3.6376179451355175 2.859412693544244 4.692222201641867 -1.212596785551776 -0.3666333972620976 -1.007337392656207
Ni 7.048347159045366 7.720851357970489 12.106763190390101 -0.024439106878970815 -0.25609730148304277 0.9397325490230395
Ni 5.899033397484056 7.334201011319584 1.147569100676354 0.8007590238388984 0.5069629222535011 -1.0804518532536942
Ni 8.719007185158436 4.665385158018569 10.121197395621028 -0.1925414311082684 -1.6113126651707153 -0.5958796399905674
Ni 0.3951233621723636 2.210014209187302 2.6166646636095905 0.33229734298438895 -0.8895410157703132 -0.05341621083761123
Ni 5.743283765950387 3.466989006370965 3.685304422477886 0.13896092677865102 -1.1395707709030374 -0.7360078476044422
Ni 7.290612094589406 2.577635237747009 2.008945722915165 -0.8792162368055375 0.23975202735580003 -2.0743135800209695
Ni 9.050879228812772 6.329806365144292 11.783415692325553 0.5083127514131762 0.8693506568653673 0.5608085073190471
Ni 8.615486958598481 0.9422917120372369 0.7683611681802656 -0.43288532641179645 0.22512887812598645 0.1583329035473596
Ni 6.010964067339635 3.2583566422115138 7.929817747394308 0.46976754415012645 -0.17521990911068533 -0.33832735122855284
Ni 1.7037772968143383 3.778000574148731 3.6767393889772637 -0.9401758072080453 1.0819158393937303 0.38095109943635036
Ni 8.740465777899574 8.782076308077718 3.08514107805265 1.0566614357023159 1.0387837840909464 -0.24725836303517418
Ni 6.105282495983148 2.7886416657689015 12.807450655973696 0.4967080772947122 -0.5993974233358387 -0.25023312939278197
Ni 6.4415529990415425 5.370500528759557 9.67852558307504 0.23997802732367704 0.5746574973869975 -0.3523048964545674
Ni 7.274361719468973 6.093485791054271 5.168334267995989 -0.3160425716884234 0.06571945368499649 0.27528210194160974
Ni 3.774135819023826 9.282221630229998 10.053724292218936 -0.18577634447029295 -0.9255709128106768 -0.029524491821678187
P 6.9084706289175575 3.788334193208893 5.537081596620666 0.09347296964918096 -0.25509997056677997 0.7034314563303176
Ni 2.9340392746465747 3.0911047632822943 7.6490552499072555 1.1699586391662755 0.09883654795393945 -0.35878896151701434
P 9.582936386139266 5.784977112309777 1.764882756058252 -1.2006689237659385 -0.5605028031531701 0.23983455976727727
Ni 7.819006936345158 5.02642690106802 7.218949412595961 -0.5305749052454862 0.3353186463092161 1.8172827109800638
P 1.8470768957670631 3.0794644889179974 5.755743920509038 -1.0861887557374714 -1.8995510701626765 0.011072455764077704
P 7.498581929298873 7.573180905007456 7.627022464976131 3.3324024364672744 1.2045895989765836 0.40073419560054857
P 2.259124204667344 7.704021269581321 4.699790680428138 0.04801689419891086 0.1258953518439445 0.0815034559921306
Ni 4.64571171407322 4.4426556394511305 5.989503634238913 0.9352038079147506 1.2988878927405372 0.9847883037110975
Ni 5.112031227084665 1.9759296719909771 1.266952306664459 0.4475748101031711 0.009830098716544361 0.13544571453654092
Ni 4.405369954293715 2.3050779834620467 9.855155934440697 -0.2261326368001525 0.10467835144669714 -0.365730425831854
Ni 3.7928338723900326 0.03803287114823109 1.2564300507470094 0.550894847749761 0.37958481521644305 0.5415319184776222
Ni 2.2529682018612456 5.1250149639447615 5.79547360319306 0.7190658204334648 1.663486261850477 0.06848930312064978
Ni 2.2648385211734534 4.64754287185859 1.4072732836316322 -1.107998652523711 -0.27746573985648987 -0.06554024779465487
Ni 2.973671418272683 2.365819051508469 2.287311152044984 0.6384951606682487 1.8066128899710436 -1.4793531094105619
Ni 5.775545269445426 0.7393672231253537 11.208975053795934 0.7105832368837504 0.9231203943876554 0.14571521478334903
Ni 8.000328364288615 1.7790388019729038 6.600994391899287 -1.061782558978965 -0.053641696584856007 -0.8195671576843371
Ni 3.236603591937049 6.485491584092545 11.876693397624717 0.14706041595733382 -0.1146118085103252 0.27238601134073737
Ni 9.133069687802417 4.056005292800226 5.616932038400161 -0.0001879476410899989 0.2197969243901118 -1.0180198120707176
Ni 4.0800219853621345 8.294546650868877 7.751558677797442 1.1227097334816405 2.9675117329278957 -1.1314391429348385
Ni -0.16445085164345466 0.07487226910669986 8.369082134171835 0.20142587808209178 -0.16769737548139507 -0.9205094391273695
Ni 1.4570954982704065 3.0435222662563817 9.71499690911685 1.5061087802378514 0.8267770451692148 1.2433808608121684
Ni 6.014212302004139 9.00471380866599 6.540739178782853 0.9287439112220198 0.07124603993018053 -0.656452773587934
Ni 8.54650107961893 7.66067159959697 0.9165984518949524 -0.11943159849647172 -0.739710750377326 -0.3734211096078924
Ni 8.390871071458175 8.428690460894744 5.391225738206755 -0.9995996576923173 0.4544285998002109 0.771812001787245
Ni 3.7172779096981414 1.5329827256872897 12.309695960920108 0.7767742308885267 -1.1246925682396243 -1.2321320273712264
Ni 6.71306124836403 0.8691291369834118 8.523180963159295 -0.3826775952091538 1.4481250046342158 0.5878655114368392
Ni 8.483855239403804 2.269632657887919 12.130924351179296 0.42955574781793116 0.036513778655317755 -0.4993964227601528
Ni 6.566301773394724 4.8423357319517155 1.5872024795503312 -0.42292667253718774 -0.20200000541800694 -0.1481122542606159
Ni 0.6088323582423149 1.1971171017372184 4.813984072391372 0.09702700554902645 0.9504717898174146 0.4606982348590066
Ni 1.7102001517600136 9.094302513180454 6.41715903276506 -0.5805646069000517 -1.3020020128894867 -0.22596654353593343
Ni 2.0521205587391025 0.9952756644401003 8.452205655470207 1.6359448618970989 -0.3499798478658166 0.4321739021670686
Ni 1.7338027634156832 1.91998274065902 13.354511344802946 -0.9961777764949619 0.19142094435058 -0.060828187030966215
P 1.5539628249367736 0.5645809120621534 1.4583165768539181 -1.352949193361315 -0.8126364920027747 -0.9121268714906292
Ni 4.707888262594607 7.951411606564817 3.1043461504840524 -1.2609821188336994 -0.7403800085302088 0.01784139905679508
P 2.9709844932810827 3.5674634378205763 11.302307049702806 -0.6789620104340436 -0.5224296504305325 -0.4721077622475289
Ni 2.2417420084031883 7.663018058065663 8.557536795860116 -4.416828958098 -0.48637224258634304 1.3158582020462886
P 6.206318237105662 8.479723632139322 4.409830065743813 1.5388504934452463 0.1189852549876725 0.2175425811382963
P 6.416294063760914 0.44793064005523126 13.27736807197047 0.2529883235404159 0.35627365129432836 1.083286751599328
P 8.813380824589448 2.079633934509259 9.67603465637906 -1.3469829484755511 -1.2788960229996427 0.13708093614711875
Ni 4.175610262118116 6.879981862568258 9.572400327524944 -0.13396938710133055 -1.0470200559578096 0.8930063486110943
