# total energy = -381168.3760410266 ev
CRYSTAL
PRIMVEC
9.23369478525191 0.00000000000000 0.00000000000000

0.00000000000000 9.23369478525191 0.00000000000000

0.00000000000000 0.00000000000000 13.51444567438323

PRIMCOORD
 96 1
Ni 1.5108817466170783 0.23141485411159052 3.941014725626834 -1.0286970892789058 -3.7252916821021063 0.7556029961275502
Ni 0.6808455480980256 0.6734946038254919 1.175145534263235 0.38033429178795786 -1.064281671251735 1.2421868405040672
Ni 1.0138966020616504 3.639553064265602 9.027447105746244 1.1788579985384342 0.42033757165377283 -0.5792422885442025
Ni 0.632764776936727 2.166123182953631 4.565139534524609 -0.18025001533542503 2.559326737476257 1.319575760107192
Ni 6.735878641409706 0.6013462076844686 10.223785815859648 0.7987934154720953 0.7629411816601763 -0.6881565324491181
Ni 8.482265768846995 4.937856693758866 7.497287251539421 -0.5215197370217535 1.7973214373667883 0.15079520040941774
Ni 5.114912787749359 7.888308363582928 1.2237710934060428 1.5674750991604747 -0.9846700329656783 0.7345831993427736
Ni 3.777947678958145 2.699562953797167 7.423701169148889 0.8395914233250638 -0.5652806841577878 -0.1331594896055255
Ni 2.8083451099015737 4.080388111947173 4.125108741642858 0.8581329337726769 -0.3235977583278621 -1.0981749815650699
Ni 1.040203397982324 4.5022017487489325 5.667850428114163 -1.2401047611640579 2.556613195199836 0.022756062749593065
Ni -0.02350159950063124 0.5249807832187801 12.068426840816313 -0.37622515471559076 -2.066580215932454 0.23001757367685546
Ni 9.076426315392302 2.878807433408299 7.032931213598554 0.8254223309135332 -0.8181962454787393 -0.5028632982628307
Ni 1.1362245881469728 2.4051650688063506 12.861941007076666 0.2561088714472686 0.23748714258102324 1.1038152105699828
Ni 1.3001503684136344 6.162817087029627 3.550487616244527 1.1236363590609681 0.5701742648046632 -0.09455026187375974
Ni 4.810210099582877 7.397639066135165 5.854201159090881 1.3855011591554074 -0.45654718880511047 0.27406776991853443
Ni 3.1403333656165255 8.349919224118663 2.291157564926756 -2.6599874831231287 -0.7508873358194359 0.2818065333236888
Ni 0.1361656008156564 4.620060626646959 0.17159713374187915 0.5386713091003755 0.2088085436994081 -0.805340986782626
Ni 0.31007023483853813 5.6243634200172865 9.971660708125565 -0.43048108784567796 1.2726469567661371 -1.3774127257203181
Ni 6.343751332752898 6.43350284428289 12.510132625898839 0.8504324798046257 0.9729928537380662 1.4833367766486583
Ni 7.232854552270531 1.7260360645348094 6.29951547202381 0.26472026726536346 0.45167597675573823 -2.0717982697982835
Ni 0.652997648548303 0.2564298561574651 6.239741150018727 -0.7914092071928821 0.671526894312237 0.9899701050223529
Ni 8.08901194944876 1.5138734636680782 0.29371089811243867 -2.062417599914332 0.604362737760914 -0.4332781909748409
Ni 3.8445041496482872 6.590124772119487 3.7380414976278655 0.8009526279069431 -0.6671436776428769 -0.25286362503709353
Ni 6.641510282578788 1.5584260401220094 3.1100523875392154 -0.5373914139466874 0.7274339898925021 0.006396390444647048
P 3.510170535504465 8.815703714614438 4.525122548859107 0.0486954083231742 -0.6266107505258369 0.28839832760859363
Ni 1.5507343725186675 8.083896482639336 7.995795032334694 -0.17477407982251836 -0.47625803697047653 0.6920116445291501
P 1.2992085315642454 5.631879647423193 7.834526709374446 0.22285036650445492 0.9683795233357708 -0.10543039912137327
Ni 1.71297038667319 1.6080017464393475 7.839811152795085 -0.25071109747046505 -0.3200915449468165 0.6075874153457987
P 4.50877613930545 2.6710308374774474 3.1982609487012383 -0.05336787409817905 0.8346615901236142 0.13089897570612297
P 1.806129131511265 5.165531901556706 1.5960293380185875 0.12048960744734087 2.059569588942576 0.4176201727226098
P 8.811410046624577 1.4228569359776326 2.9524738489418665 -0.4654336926614629 -0.01977538285471433 -2.2543054565990017
Ni 5.911623659080871 5.4266423175078495 5.425346830155211 1.578368606144527 1.570590761971321 -1.216577624576395
Ni 7.870376528666132 3.42594077334638 1.5975021123075825 0.9497570231385772 -1.5378323365933773 1.6180885504419682
Ni 8.468738406255282 7.467021047373474 3.043074860375229 -0.5075437344576356 -0.4865293369894975 1.7153163591478908
Ni 5.281442469893743 0.6651464205359583 5.386614251408826 -0.0944114223030503 0.7709468255734723 0.6041786467745659
Ni 0.7467639704911797 7.342689349559549 1.229533842207058 0.10929245317994081 -0.38432155857048006 -1.1057923889010117
Ni 8.800274210934745 4.844947258675041 3.1207016075235305 -1.0756714011459152 0.5872939552040853 1.3110828921448323
Ni 2.65139076905931 5.340852060962051 9.638989159010077 0.22239733812743637 0.5348426793829046 1.7626174582266998
Ni 8.587409849278272 6.099390838809512 5.4509297044190985 -1.1598909705176281 0.81310700388129 -0.5093471062149615
Ni 6.7129052092403 8.971891658804747 12.41161279797493 0.0028665229145176437 -0.15305931385324606 0.3555496286441102
Ni 0.9646533087499788 3.299974711587928 2.159189601677101 -1.3186897579578127 -1.670394044713904 0.7544215742249394
Ni 7.611288291832794 5.959666572094303 1.2621841863192031 0.4014307074469409 0.3908925269197784 -0.3337122210540447
Ni 7.5714079648474 7.790763613808973 10.330483003722957 0.9334672848396182 -0.6140429411631554 1.1717622680339175
Ni 3.2674167044218017 3.1376278930981836 9.889574086484568 -0.8533697080560787 -0.4944928148109484 -0.04170200772447657
Ni 1.629968705897151 4.244683239997909 11.623950023983772 0.6900023274086052 -1.0642677872946638 -0.9631182749368317
Ni 6.057802278322775 0.651097354199242 7.782090404469454 -1.020933386173087 1.432304235551875 1.2778842939056767
Ni 3.37510928456319 6.502266167982874 7.870636918853904 -0.00447114839747617 1.8765579517016133 -0.1741739843446742
Ni 5.50610749325138 7.951282160767551 8.629175696701365 -0.4571192592584966 -1.243068214667756 -0.7427937601780239
Ni 3.137203143146498 7.84183517865181 10.241368617120493 -1.0885605984037574 -1.368842467552804 0.11619535094736116
Ni 3.8629530714627855 2.8504415235914125 12.235587184302002 -0.7197847008773604 -0.6855926283766839 0.15080574193237897
Ni 0.7435921963954439 8.169372793568671 10.49731832115866 -0.03714806980520699 0.31279989638140965 -0.9654870322793244
Ni 5.419689345472656 3.3440286685333596 5.222900846118007 -1.9239996901233445 -3.4410852810876738 -1.3549189154931762
Ni 4.427870507204031 0.3642452444370583 11.18466346688693 1.2479733652788574 2.1993902926183604 -0.9613676107943122
Ni 6.22683429170426 4.211774352436912 3.1702320687373193 0.4289679936352612 -0.0033917992903683522 0.28155353677261835
Ni 2.195514032871323 8.42777773700147 12.539094109017546 -1.779611164571219 0.28947767671570146 -0.48182730352813796
Ni 6.246797539433461 3.700338475829587 7.246946093602416 1.0827527334727287 0.02529991221736933 1.0142809138535758
P 0.2276899817092038 7.912057426098888 4.996574681101497 0.33007231030861217 -0.60557038491577 -0.7467643147899978
Ni 7.5236512963666256 8.340020703505479 1.203529911469325 0.03255916488294393 1.1054864276248189 -0.7556590461764664
P 8.349762251310432 7.451813152364225 12.837790278845523 0.7595205860144016 0.115877048375994 -0.18902544753520992
Ni 7.043406840124354 5.728731870102008 9.484099472280787 -1.790290498661936 0.5872731292684789 -3.538566086344667
P 6.397823848341337 6.268044270712321 7.30123283090562 0.38599277562531586 0.3877809778739902 0.994882454722306
P 6.845731906087927 4.321415242139291 0.13717946048293964 -1.1658037364576375 0.6566224663965788 -2.7602029137024657
P 6.386928088711153 6.341332104767213 2.9491358683432978 -1.3078438163822443 1.6076763539697088 0.7364845301305445
Ni 3.013194624643639 6.70013500960594 0.44496620264644 -0.30288675103275575 -1.2171941751144715 0.5998738487516249
Ni 7.838714189876385 5.224627547008554 11.353052815124126 1.1528322638986341 -2.383511617983734 3.2462691950126157
Ni 6.209207168709327 2.526144935479803 11.965447138399709 1.0422352329746567 -0.45331196969726445 0.5533299395538148
Ni 7.1259468361703 8.34186744242585 6.401441609886343 -0.30093322685081075 -0.9026806384760646 -0.1865296776965497
Ni 3.2712394539869676 0.39364163457151125 9.034852528816929 1.1349178455120583 1.6364847935609688 -0.6821995435347347
Ni 2.8444026873218022 3.445922488464786 0.9764632041457463 2.030218646584284 -0.7039767873108264 -1.2563209659126042
Ni 2.759314191565745 0.9560567390756555 0.23859589840345005 1.949159991439056 0.755896358998253 0.26595851054783876
Ni 5.17028725427666 2.070231264513408 9.573754953386919 0.342140811437372 0.8976502751410088 -0.602663238571304
Ni 8.48009585061556 7.382578910239546 8.066231501496533 0.07943628905045674 -0.15396768460012836 0.6125499015573966
Ni 7.751326504164467 3.9035628603217263 5.151868803654348 0.600341789526979 -0.8437640666455145 -0.09576433678651894
Ni 5.652055270128237 2.781945977034882 1.1733985192445648 -1.480418831670915 -0.3413707660405669 -1.1316584580344962
Ni 3.500512090950929 8.764493644352571 6.890313106995124 -0.7793196230181998 1.9505625282135377 0.06962727337983493
Ni 4.397140771569071 8.016342772932193 12.64331759009702 0.8897029952694742 -1.0865196567143287 0.15838124028679176
Ni 4.810754887564387 4.901180458800313 13.20327560846761 -1.3135107848600345 -0.43371759250510467 -0.9513968727348453
Ni 7.9336181029942106 3.600697677381013 9.300276003516595 -1.111423361934544 -1.463591732811247 1.1387575309731228
Ni 3.862482153038091 4.894402926962554 6.358073716449829 -0.7857077859327307 -0.8762245011670652 -1.4959747771276428
Ni 0.20472762997332064 1.8760928355094904 10.191310911944937 -0.3152648129821345 -1.2099259235878324 -1.6357330029966088
Ni 5.273676932733586 6.9809316624482305 10.630327845159405 -0.49085598938930947 -0.3982240275841852 -0.009749366077279985
Ni 2.5090903015501835 6.719793545413281 5.590195979882057 -1.7400771110323388 0.6129810755575442 0.7597722970138916
Ni 4.521943387807689 0.7871900088275439 2.106347937579088 1.8824982284454483 0.9746154769431536 -1.2395848841048458
Ni 5.293427805486945 4.473152545531509 10.822529968405314 -0.17540040055260758 -0.12564492639603522 -0.18868580480760408
Ni 4.672628050015296 4.749572427132521 8.483868738229877 1.126799073059666 -0.17565622531715555 1.5591874052303858
Ni 5.52072443180611 8.467251781424384 3.6420618590889244 1.3861534480274258 -1.3990375030789453 -0.8910939620797298
Ni 1.2206667252809007 6.377666693025496 11.998638577015521 -1.4562445484175566 0.8783924553526614 1.2765900005742852
Ni 2.4930790751105745 1.5553881545980004 2.677022581904588 0.9353956122105826 2.4834272579344647 -0.8028680997621012
P 8.397426582845188 1.066482492819192 7.994483847701232 0.10257056107507496 -0.8448501006208416 0.929190254730819
Ni 4.41404766638506 5.116113168047599 1.85868178096824 -0.461369035673786 0.48389498469044406 1.4357893658869985
P 2.202346966876693 2.9409594317733583 5.957586220700505 1.7016653440233596 -2.1663837557853527 1.1858197745682482
Ni 2.2078687162485995 1.1276464858618531 11.072655057888635 0.08446099595855777 0.10144724610390915 -0.08203156058145873
P 8.522173796916194 2.762028897778689 11.821301778709133 -1.0463711095199013 0.7176254884425124 0.39976617526032443
P 5.101163816487203 0.8936129559611778 13.372760072884585 -0.23763292413026812 0.615951471039778 0.26204323465383256
P 3.3434931142464523 6.227268275350547 11.755337187842969 0.7489399822850779 -1.226872835854816 -0.2927581472391861
Ni 7.849877726650022 0.19764169273586019 4.516216650415622 0.6697723735149755 -0.025280628943659685 -0.2668123739077018
