# total energy = -340889.2147914494 ev
CRYSTAL
PRIMVEC
9.14988942417581 0.00000000000000 0.00000000000000

0.00000000000000 9.14988942417581 0.00000000000000

0.00000000000000 0.00000000000000 13.39178805728125

PRIMCOORD
 96 1
Ni 6.424823544885879 2.3722918082850595 11.54918521322528 0.6477771001908069 0.03438567656872142 0.01698290771124172
Ni 5.156740381734622 0.748990726321663 6.050369813721528 -0.634088804070437 -1.442473205665077 -0.49266938844896446
Ni 3.136600364345026 1.5913487534112607 4.703356960186466 0.11759274551552007 -0.4028165320508741 0.1472457924952625
Ni 3.802812956827934 4.570305674377018 4.760793560518736 -1.122308127167848 0.1905441981725815 -0.06552404984473877
Ni 4.064792588311784 2.720252949864388 2.596493376676198 -1.1631043352486035 0.26166194005501386 -0.15678175701015581
Ni 5.265990060412924 4.729550348390182 2.7130821815913406 -0.15656115635891746 0.6539438911231512 -0.8294705328409779
Ni 5.322069732156586 5.15970494587966 11.263926433291402 -0.4119822577105421 -0.8034602248201453 0.12720481468398737
Ni 5.712587009040168 8.064813110010192 12.276024057463177 -0.5481735921638559 -0.5027514552753148 1.0350893659584948
Ni 2.068524632201225 6.584370165247149 0.2505605695918466 -0.13855032160379363 0.1762645483251158 0.10344884991497022
Ni 2.437127924123791 1.574146961458563 0.1049446557454603 1.7382655117448964 0.11260711937547059 0.5415566010679707
Ni 8.554066842724392 9.012869743726581 7.147665717461574 -1.5411097217930685 0.4356955421670819 -0.6781438854081224
Ni 8.877469681324444 2.2273850108622555 1.3236522710699394 1.0916232964894812 0.7089886387031209 -0.2599184750013459
Ni 7.243903338514381 1.034843334073483 4.79380453126711 -0.2638985426950165 -0.7253578240897637 -0.4027255149989644
Ni 0.9497493632436491 7.475468737843568 2.5808790905233905 -0.8318598590087609 -0.3503313176679644 -0.3797568220179331
Ni 7.75630629125003 4.151359691324801 3.537601584430418 1.185719758655274 0.24945871312060264 1.0367605830133308
Ni 7.877432526287164 4.070300821692382 12.614474804066106 -0.2775431300616446 -0.12420305174318609 -0.3086871597646167
Ni 8.176231312461256 7.1856917425553055 9.050117113237773 0.2090569122647883 0.5894853064284492 -0.5872237640877823
Ni 6.883297049871953 1.0914079499519813 0.5252484823752189 -1.0543412722095713 -1.4343168951065297 -0.9639091462692432
Ni 1.6865076025112902 6.604170525771424 9.158309064708773 0.39948463946416357 0.4501135173646248 -0.08139829787283401
Ni 0.1083731192798623 4.809145235728754 1.1964477645465417 -0.010821001874903945 0.07251179401648158 1.055642507519498
Ni 6.4848651187122615 2.344393795697945 7.130859200728215 -0.22855384464713543 0.34613424886748134 -0.4076116394466722
Ni 3.2641315219177387 4.210925470905686 13.365486740942211 1.5211047394260513 1.2972354447387788 0.4588223579925324
Ni 6.070796026676423 5.968070219095074 4.636116253430091 0.6647283833331649 -0.2252846869775604 0.7536661841161536
Ni 5.326059083907317 3.262887136967969 9.357042831120582 0.3558861860479226 -0.4530422609756456 -0.3368307120783683
P 0.3960895594895358 5.611581380654089 12.377279477828145 0.07185976225477947 0.3156882736727982 -0.24387967637092836
P 4.076943641350711 6.266878155158502 12.643802944356521 -0.6708519797323994 0.4975699110743753 0.12909431839721638
P 2.323952942920112 8.59629358201253 1.3740379666794713 0.8934069264836226 -0.29554907972076194 -1.7095465465436495
P 6.593803701153123 8.094495351017931 5.889293331863188 0.4152429307396849 0.014747590622819762 -0.5613175857449816
P 4.76905042065603 0.9522015335858423 12.893465909804453 -0.10049645215486565 1.66022121794596 -1.9029315565991356
P 4.090759974248888 6.451532071859242 7.805484201467139 -0.23458873798730565 -0.4448142166388984 1.2454601119387003
P 5.151671343042177 1.0229667777146525 3.627205535714233 -0.12398990729111549 0.8916991997638964 1.3007162041985276
P 0.44696477417857267 5.48380317606929 3.407018023775035 -0.22547726260434073 0.868712509060736 -0.27394718518027017
Ni 0.47206658058444 0.13303390101970838 4.81784312053207 0.08961142981124567 -0.6378654975040499 -0.08724112980685621
Ni 2.039821429352495 6.645491426015245 4.494016642055737 -0.7557554625450146 -1.0999636980343765 1.1042067895814467
Ni 5.872069580176083 5.8458276975588825 9.033912659222759 0.9563331336941981 -0.6120318242703975 0.15503366397079751
Ni 8.978612558050571 2.40874496740184 10.319001806694912 -0.019765869773017572 0.9618715470139242 0.6314043152597384
Ni 2.462125421791222 5.346335238677093 6.688260753741039 -0.01971110527568218 -0.19788032682267856 0.5706105810111334
Ni 0.4247927623382658 0.12088284798078155 9.29138322524156 -0.12215953895059609 -0.020730290568815913 0.2161207610901052
Ni 1.8080364326792315 1.1913338913963487 11.259681799628181 -0.3123977758469846 -0.05077440233938998 0.5268653176043829
Ni 4.482686334090298 7.21893329051496 1.315539979184162 -0.2364903258853927 -0.053307967394521094 0.1100036203143525
Ni 5.8703036515341305 7.996490886334239 8.022832502745207 -0.47975962236583186 1.2197413670163575 -0.42578548214222156
Ni 5.50033702610042 3.1181267377745496 4.634911213004468 0.9791046230627589 -1.4025591430789588 0.4748115343319372
Ni 0.9865776678232278 7.274445669119756 6.85488115354839 -0.4941290037136264 0.40122090542898 -0.41013414875820975
Ni 5.405782069696602 4.828314253888808 6.827387566069951 -0.6236699227299581 -0.5857577210652171 0.12155224438390035
Ni 0.8030135029424701 7.689210152745173 11.512826297968667 0.6301953825533018 -0.8020422614266961 -0.7387193329983343
Ni 4.935880352929188 0.7109033969693762 10.507692654570933 -0.8467334336864837 -0.9204366769079051 0.0193542361568957
Ni 8.284254905968462 7.205116957616783 4.803928883817993 0.45836418740919127 0.4956310421804497 -1.0248098384093576
Ni 7.483621289242426 6.215263629411073 6.828700575189744 0.09239387765238927 -0.3135460305188148 0.6060257272856338
Ni 2.6359916189641797 5.343507922872102 2.289794576048936 -0.2694037887839618 -0.546530143023162 0.5171126090929932
Ni 2.3641209571075286 5.308756643171918 11.401674357297297 0.5239288606838783 0.1776871397042553 -1.142992909210709
Ni 1.4273827365004408 3.431336599653694 3.759316212899884 -0.918569027571547 -0.049012682453276876 -1.9108423268057801
Ni 1.9909518704060283 1.1859537564664624 2.5488050684430785 -1.1016089469472834 1.0586396424746092 0.08389278215991358
Ni 1.4062281923543574 3.3221326704220737 7.797543012511954 -0.7854655880149376 1.1031724347796612 1.1195585894471687
Ni 3.8227871652496037 2.820810233672977 7.008793272056217 0.25580188172981105 0.07559917469255367 -0.057288806419140054
Ni 4.094401630204832 7.049028995424726 5.737457323245821 0.4059751322845137 1.599595119623471 0.7817459730715054
Ni 0.6480546370945415 0.02367076371363231 13.350353738968504 -0.27867492967324264 0.5993627134431613 0.7416365066451293
P 0.269580444555715 5.457890689468204 8.024533467172871 0.8980925048847501 1.0475851844326605 -1.4072467783626152
P 8.747898098429681 1.9374982169019541 8.147095319846908 0.0972352649050906 -1.801585097739149 0.9646393395670485
P 2.16888061844441 3.1612135666603227 10.272358415824026 -0.4913599256089215 1.0456396306705154 0.3378113308240827
P 4.10549129608072 6.453169902050484 3.663685229510089 0.7362032514446998 -0.756120302083601 -1.8601609984008287
P 7.098447547731385 4.276063533092523 10.310538159058611 0.061090439553417364 -0.23921338124351063 0.324005535289242
P 6.422682470781128 8.141598981322447 10.197123450754315 0.6340399531103726 -0.09696915572789752 -0.29418202416990624
P 2.3488314920261675 8.61475805869367 5.554632469423456 0.8854187660718235 0.423069111652323 1.2208952781151425
P 7.004990578047952 4.17503960492777 1.523864659598534 0.8218587819319911 -0.2212547398825609 -1.189972877504673
Ni 5.312608746582603 3.306175263419146 0.4329434837592568 0.6568782911611267 -1.8014100056138656 -0.08534674099762077
Ni 1.609611932526997 1.175092837823988 6.873816849530362 0.17369498782572668 -0.6492292592563011 -0.729113434477454
Ni 6.952406164030849 1.240358998461537 9.311457167456998 0.2166306108469882 -1.0572180795367343 -0.14211772724007782
Ni 2.728497000156612 1.4497359161496113 9.032131175768935 0.6734791329426014 1.0632486020015302 0.4817959360695702
Ni 6.724372621985568 2.221483332240186 2.553841167533911 -0.3316867059835836 -0.35280780423291497 0.25133947508308324
Ni 3.8968738192075785 6.838682189466978 10.042474766154895 0.2992733226498846 1.291461261259163 0.6038922258823987
Ni 8.67827659046794 7.077732198273455 0.24654651313990594 -0.2805613480626781 0.29114940799116956 0.6804933594769055
Ni 7.889363981982013 4.000578664947938 8.162200872152603 -0.4120403646419871 0.029832509980400233 0.4169213468833723
Ni 3.1534361607242625 8.45841389960019 12.485404635106987 0.5199922446336335 0.056942735933630965 -0.28919716936080514
Ni 0.07417174792880464 5.112967311148608 10.183999764478912 -0.20311329308684373 -1.4527000255994078 0.3312246787455005
Ni 8.714555901687326 2.4438073433394663 6.167989811164898 0.727137798808322 0.8821256971428486 -2.088736954535151
Ni 4.033536566338159 2.8607678004056525 11.47910621079671 -0.8849019743364049 -0.3892017694809168 0.45825774373831407
Ni 1.2058639156627762 3.6374470068486233 12.664506398958313 -1.4442917469310546 -2.0893290795931954 -1.0082308510047542
Ni 3.0947304707410135 8.652922247116384 7.957225966224339 0.8727059464908453 -2.2234398773683965 -1.1100611914796945
Ni 5.759827887684731 8.086928392536612 3.462540467258101 0.41464797746816334 0.2414507552144616 0.04809505573501394
Ni 3.181901466450242 8.411603065754443 3.4509164478449588 1.1686810580054325 0.8916228380000063 -0.14250544959679973
Ni 3.3552003704843343 4.542490010793932 8.86356916944437 0.04789399546780139 0.22634732391411988 0.6429403409237959
Ni 7.698899885552569 6.540706893333174 11.285567751550191 -1.2542620265010462 -0.6651073639391384 0.7890077968402411
Ni 8.230856151800406 8.926220291709535 2.365217113850046 -0.4334509691072793 0.2547495292058968 -0.09259133837517602
Ni 4.597032501129054 0.5695010071624672 1.5824669558322801 -0.6027619689326974 -0.7202567554177725 0.10738932261995698
Ni 6.01744302195505 5.5539187780552055 0.17005435327535443 0.5764989214711104 1.4081839454649039 0.1676274414754081
Ni 7.95114403478234 8.907893063368443 11.728621863026325 -0.3866710326392631 1.1399551508256496 -0.4595605217101376
Ni 0.264472061339124 5.043107906064115 5.581214727923975 -0.4759045102857997 -0.9396664716717945 0.057646189758558786
Ni 7.464397371746354 6.413770478567336 2.468080169771443 0.29217553526283874 -0.38954732574579365 -0.21380933934810917
P 9.035497420055847 1.5598456844255488 3.4208517414629513 -1.0043086331322124 1.111939382339014 0.09223626902860244
P 1.9764218461396008 3.28325479063111 1.3660427933772015 -0.1922077019179335 -0.2872765552993246 1.3271391742767464
P 4.83090367257105 1.1830623914361154 8.213505216651525 0.07315765513059658 0.30411008191689565 0.3692312398962609
P 8.41626950931608 1.768152065061248 12.54256124882556 0.8868572982905628 0.3827734973570698 -0.7045735403545607
P 6.838069146881429 7.869911317252527 0.9500787592597645 -1.4627620378211001 0.47185168037266484 0.18248198998973733
P 2.091518304103954 3.305973965853742 5.688911670381867 0.2542070264388654 -0.0963340932470599 1.7488036922720591
P 7.15787607897222 4.084437400717339 5.695527040372187 0.2010227291064022 0.4374215237192531 0.866628629948514
P 2.2900617528175626 8.52568388600244 10.133405451392507 0.9705487630729477 0.20385505634887474 0.05536562125449819
