# total energy = -340867.95144656627 ev
CRYSTAL
PRIMVEC
9.24971133747580 0.00000000000000 0.00000000000000
0.00000000000000 9.24971133747580 0.00000000000000
0.00000000000000 0.00000000000000 13.53788751754601
PRIMCOORD
 96 1
Ni 3.3139217837729205 7.647254239825398 6.380094677684016 -0.1439349829544747 0.4358711485129977 -0.26284130507509573
Ni 6.721940879669059 2.932694936318044 9.905117070539895 -0.08508011759979542 -1.89150300304722 1.112055596201904
Ni 7.629087807012068 7.361863650200922 7.392363647939554 -0.8413271750692479 -0.4307651947450001 -0.6554734403938002
Ni 6.278139735889247 1.6156008082180269 4.893066705205216 -0.45632093172691734 -0.6944518785395266 -0.7616651431612302
Ni 4.758967167018961 3.494540894539665 5.694942669285239 0.636738068767826 1.4884756405371202 -1.5955787993752262
Ni 3.351623606658425 1.3489038849457606 3.7541238649215383 0.8197689892824979 -0.8954308988921869 -2.7567535217012846
Ni 0.25078649502266936 6.168465910091055 8.599753426194392 1.9111668000247346 0.7107912391294984 0.3157360961915982
Ni 7.511921715135059 2.6435489639429517 12.49572716232372 0.45934454904458955 0.10542294292220554 -1.0370395477063301
Ni 8.791045778724527 0.9539227169239695 0.7758685510753189 -0.4995188072706301 -0.34256787167246167 -0.1646976694231228
Ni 1.5490583857846805 7.974749514870584 11.32425308772004 -1.601698796230035 0.9395021781797884 -1.465347024939457
Ni 5.274259328728622 5.8120282886747345 10.588577306758653 0.31439500878267146 0.9017051619366728 -2.5625467870754512
Ni 1.2876152984787945 8.018722641955396 4.997402522665031 -0.7104639376970668 -1.3706689792385813 1.1886490164869272
Ni 8.098908388421155 8.342064796668003 12.225754916312553 -0.02476049477413155 -0.5470127390865354 0.17838210888875083
Ni 1.6482800379173617 1.1765910148441743 5.603304855372339 0.05258703006809653 -1.804538523940518 0.032161929444525256
Ni 5.365359734420314 1.5190708220469948 11.61981280984705 0.2172024241900582 0.5643607434466796 -0.8252786062468173
Ni 3.497436054147899 7.089274660888895 4.136501376450742 -2.4235624632580324 2.257457629074738 -1.9452035778944692
Ni 5.562101091823327 7.785287680188593 4.62379743724589 0.5283766120425868 0.3111381924082706 0.6167947928766797
Ni 0.6657553639947275 2.8406418103718853 13.267887504175585 0.14981535299465168 0.40351432944884696 0.05005680744707509
Ni 4.00555043995983 7.9510425050434135 1.7295868493815822 -0.382739815905657 0.8887871683234241 0.6536484713699193
Ni 2.7233369728267505 7.628939811632733 8.654486742327952 0.36570522902087343 0.6630743926695097 0.8615825828841742
Ni 5.054837679442572 6.311494194506796 12.84059154507607 -0.5015188684197943 1.2037298220794495 0.8918868902946704
Ni 0.6294317480792768 2.3727729180277737 7.386921117864522 0.04724607747115734 -0.9797196309389385 3.0458100517191675
Ni 4.456344365413205 3.510653891464726 9.87921880412745 -1.5600865200058875 -1.786170048735659 -0.30329555643540024
Ni 6.588060559638443 1.9984556048455846 2.5212011838469883 -0.16837383272312936 1.1284906018294758 -0.9769605801365627
P 3.3434653613726018 6.972219565546387 10.964240452921667 -0.08109593614106679 -2.7188474906841305 0.5250411199114506
P 5.726681203354678 4.172507727271744 11.869031478819892 1.7240131155909406 -1.5925469545274378 0.2477869818451345
P 0.9914395455853058 8.458167171756044 -0.1453009384596486 -1.6134461665739503 0.3176448831785368 0.22587321249117878
P 7.655412485111221 2.711885830350731 7.861301806899359 0.14309011845567615 -0.4437212406850358 0.880914964664199
P 2.4476863291047373 1.6773148814005803 12.318908757892514 -0.14417795220321622 -0.23794762715720952 0.048971544802696304
P 5.743506428042788 8.563447384730237 12.318990155351146 0.9374689497998435 -0.7573405476439473 -0.41257823942332816
P 4.20815611426898 1.3413468708884848 5.672320650582815 0.0043708753741860205 0.2822029974311592 -0.2451683132753649
P 1.1500073448311858 4.285779690730009 3.688654408988368 -0.7536996084572504 1.063144215213182 0.3283542991762409
Ni 7.072578932157703 0.385334644202534 8.320142056132935 1.390536664696786 1.0990954364968104 0.5931344731452624
Ni 6.395953307550845 0.7187090356917897 0.2586154505894729 0.05143594718278883 0.6228317430993789 0.3398651280293179
Ni 3.4422245279448624 5.300121521267354 0.823794079759486 0.29549251545121374 -0.6474076326665301 0.13061101215205892
Ni 0.16883220377385957 0.8578589161978415 11.721049049080923 3.240882991000038 1.4914303522900703 1.6419015937011658
Ni 1.2135806099666309 4.717944697809633 1.595440137668163 -0.1956504090508953 0.25957908938405616 -1.6380382540910177
Ni 6.34546838377531 9.112131003902281 2.533074113154111 -1.0938133621622645 -1.4693736296003468 0.7815461983558734
Ni 0.39808999595894007 3.538338277111516 5.600651113226644 -1.1566423816733435 0.1626580132852747 -3.0843863693304687
Ni 7.778137653424488 4.928782615094275 9.604982441249206 -0.8580360031834965 0.9420424281031388 -0.47061857929651213
Ni 5.563738290707217 3.007728593640717 0.2718369877907831 -1.1716537674805112 -0.18367009676056753 -0.08716553937391439
Ni 9.060933852363698 4.802459309120933 11.591138705100958 0.9240411064297118 -2.271504079865475 1.653569259847081
Ni 7.222729494203925 6.136748650357396 12.080520575773605 0.3481903600655616 -0.42083096635042355 -1.1243410984374764
Ni 5.329082367060905 1.8094470060128065 7.575178640147176 1.213935816078174 0.20151432403084005 -0.8257375481611069
Ni 0.8178492903658369 2.5511165998372483 2.50953174818645 0.20671386595390848 -1.5599106565496554 -0.8701386999843015
Ni 1.89125145194004 3.3475907325715557 10.959732143678684 0.41413838482159643 -0.08657932785314122 2.3756928932702635
Ni 3.267423485528212 2.9834758508522494 7.21929507643224 -1.3989727112792811 0.6458264042223393 2.2362442282219166
Ni 3.249451296650259 0.6381172269039797 7.407052189338519 -0.9419619525741907 -1.1445995915761966 1.4223000731513118
Ni 7.302415756264431 5.447090182657879 4.932556497267308 0.5802599311754395 0.39025206512230204 -0.8881089113094769
Ni 5.752867135785705 4.179352513565972 2.3508677519440027 -1.3046142537013532 1.6223085020605867 1.9949927335024544
Ni 5.125089236070493 8.430843524846383 8.115219329166077 -0.457857937196734 -0.6257946823824448 -0.21393660895459285
Ni 1.9506993458765314 0.6066136354992346 1.308393849737381 0.3246290278058538 -0.9254163895106836 0.2105710349164696
Ni 2.5796427092040037 5.501543232541826 9.423100744902511 0.37032293029854285 -1.0222464485575558 1.9952066492854736
Ni 3.9771075779939498 0.25788657334624965 13.283199476109996 -0.7770562809053198 0.6874877885168675 0.12228449456423457
Ni 2.5624937446235996 3.050305014333057 4.9414639691610125 0.36443947493457235 1.2865633097369136 0.12216056739186057
Ni 3.8647050873892757 5.75208091033299 7.4946016308973 -1.7865361738258263 -0.5371283900932878 1.476517953954612
P 9.230434810257925 1.5828568305402333 4.280544354186046 -1.0432942703667905 0.6558061411428705 1.280008282227215
P 5.7905689586712095 6.366511476774456 8.44113012868126 0.827897274816587 -0.2833448243450862 0.874304658436533
P 9.091319153683346 6.421556508175741 5.946787331270152 0.7596748522040788 0.02791163880860354 -0.1355246474035924
P 7.859932849640512 7.671719725971659 2.5666616644941125 0.7801459755742371 -1.0402791376895504 -1.1152756458010986
P 7.972640580715065 3.217854283162309 1.0971655946397454 0.7115849386753873 -1.2552984381853607 0.5717909744724797
P 6.714152622831573 9.110373558772682 5.982690085325619 -0.02895653513335013 -0.5890466762291339 1.5439451343593344
P 4.389598449333273 1.136364020798772 9.34524407571903 -0.263081703220676 0.9422280617513837 0.6296454235871027
P 7.81818890295693 0.6987860827199819 10.553649472264553 -2.351380541777144 0.13472143477600668 -1.7238632202766375
Ni 5.6989320697294295 4.060983959231868 8.088142649545679 0.8931328468866295 1.460931669480581 -1.0316741696293585
Ni 6.830134751673905 7.641565667432221 0.6379868059759409 -0.5991773369052326 -0.1322061245533207 -0.04235172549333352
Ni 8.931114155553574 8.24144643814285 9.243587899596292 0.7715839449368389 2.142782571426645 0.9237084056806414
Ni 9.081458961535173 2.655508840535434 10.124687640176402 -0.6758800290746101 0.17125141138124056 -0.8945559524864013
Ni 8.765729319147091 5.74565236104314 3.0656271609497985 0.719202088901013 1.5593054188654887 -0.24380125772450914
Ni 6.882460367979916 4.939530779518455 0.5215616159667262 -0.13461216289165204 0.6017132159532088 -0.90374687495705
Ni 1.4907389566156157 7.180449064270254 1.711378792867815 -0.160413183115156 0.7895911801475369 0.7716284250215292
Ni 8.698539416929156 6.25353550407486 0.5789773483507286 1.9522221753041475 0.4127201643178311 -0.1210609065697786
Ni 7.908401336372614 7.800688449350607 4.682891067243098 1.1075050007167444 0.3752604768094763 0.395602530800938
Ni 2.9397894648148997 2.7350471072166056 0.8737970935810635 0.22174504925541813 0.637511970819373 -0.12687031416270408
Ni 7.044700302575537 3.4301444051066707 5.948276534774706 0.6505667471208022 -0.004441323600805255 0.13819139560247812
Ni 3.6770006978368843 4.55835018061962 11.733314166143282 -1.8271809439303823 1.1686008395868004 2.149380279248821
Ni 5.590099967651203 5.744995631547342 6.356552312716355 2.164688113250485 0.6580327164805442 -1.7595393335220084
Ni 0.1893785872811146 -0.15326586478121582 3.026557305776569 -1.6427978802631902 0.5991374848062326 -0.6968108656900064
Ni 8.86911334132356 0.26639260777350926 6.581132525943339 0.017163913373796247 -0.5150626685425 -0.2764354988197626
Ni 4.319568885774354 8.754786910787537 10.695959979090519 0.28304580504742866 0.40120496458938 -0.2691176250021107
Ni 3.1890136836144674 4.386416548677578 3.0585603815865685 1.4836121417972319 -0.09394965217528335 -0.7895688115500338
Ni 6.874616612875179 7.6473652363598985 10.062305737844602 -1.1932649179923835 0.38820958077097656 0.17937301204711043
Ni 2.7422341328255446 7.257434410657902 13.26050993451575 0.6753202999163982 -0.3824731925078316 -0.9892563667847802
Ni 1.9335596310073362 1.0896067306402277 9.943780863391074 0.6729983366514409 -0.4328580727182868 -0.7193476133399418
Ni 7.998521272676213 3.6555876163894006 3.323415687357239 0.23559429643368457 -1.1002202941298729 0.7085294396785153
Ni 1.7633279459276432 4.843565025731135 7.282110790219716 -0.649792587958939 0.09286618930311748 -0.5631888346257655
Ni 2.397589893199955 5.354380327215924 5.084099140850396 -0.46120705617462504 0.9649190755909963 1.4584261294499077
Ni 8.649145959076215 4.756654739216856 7.1830944816758615 -2.19305123777421 -0.5661404610549218 0.4358145842434494
P 9.11219575188074 6.588513795487655 10.675382146565155 -0.8154281958152988 1.4992189950965535 0.15169611495713228
P 4.7560997565443515 5.551565670756942 4.322255001909278 1.7666720879120477 -2.601718057958274 -0.16491389919898694
P 1.5032445661693945 3.6561148499282803 9.019441497824984 -0.19041847122799463 -0.6810960260579109 -1.9345787511907715
P 1.2882165297073418 8.999414023116522 8.068133674259634 -0.36633334952317553 1.6565707656775663 -1.2164945779442855
P 4.557915444192824 1.4985549625867274 1.625196458625638 0.4327619134600547 -0.6746484706603542 0.3080456695258759
P 2.2009687820426502 8.80195118823925 3.3013357017316287 2.550614297303923 -0.6305422243697593 -0.7154742464274646
P 1.6130386382132955 4.883597775841161 12.871688149187644 0.5537438871627819 -0.07139773501669638 0.5277793447782201
P 5.343012432140779 6.359453947122435 1.5100024051782635 -0.5369116460967914 -1.9749815804878506 0.25817578127862634
