# total energy = -340859.71344214625 ev
CRYSTAL
PRIMVEC
9.34257255849118 0.00000000000000 0.00000000000000

0.00000000000000 9.34257255849118 0.00000000000000

0.00000000000000 0.00000000000000 13.67379930105698

PRIMCOORD
 96 1
Ni 5.04727796318739 5.769944614444635 9.14797677946109 0.48411558534168236 -1.3323520859362536 0.16201909414969515
Ni 3.197766298553095 6.991130922738374 9.648520037654142 -1.43176996031496 0.5184464974130685 0.4565114504711686
Ni 4.706956082623892 6.038870557619212 3.0663770332470097 -0.5507480377592514 1.7254002257464542 0.4442933111384219
Ni 0.5257999681037053 6.9539848553400025 9.972547537898349 -0.6994429039962148 -0.9097593996997171 -1.0874354836603788
Ni 3.1278838578740666 8.098730237211841 2.3186526688687445 -0.5109712720819458 -0.22617274600946852 0.008657675674997992
Ni 5.446869122316095 0.21886937513792315 5.312694836212362 1.4389772766966766 -0.3684920477373912 0.7177278183483315
Ni 8.14792822285566 1.8506514584528568 10.51703825611201 0.4419870316027485 -0.02229300707024548 -0.45911083576722866
Ni 1.7537035858691299 1.233210198822335 9.233902285264987 -0.1124885915197353 -0.35354571084020403 1.3042396439707538
Ni 3.879661964366052 3.314240147208903 12.88281018829154 1.1893462996642679 -3.142439307609143 -2.9852230341647297
Ni 3.9856908172091394 9.099235645601924 12.287699544932543 0.19897921631381213 -0.6084009123860297 -0.8884981763280956
Ni 5.531391373763044 4.212192139645284 4.233517495139128 0.47636679463419895 -0.3603210818908246 -0.49643219792550636
Ni 6.643073392324308 5.072596334075112 11.473479422327944 -0.43633626107487433 -0.778698444494433 0.05209723491587157
Ni 1.7148011148814997 2.8517454488967884 11.371568775347331 0.8742457801741395 -1.071096380180723 -0.22156687180634096
Ni 7.588775271700598 7.701904479478988 10.71012586877696 -0.19825596499454243 -0.17601258021530977 1.0413250624555614
Ni 3.518337981309712 0.8298138100026436 4.291795526785079 -1.0165974778018942 0.9407972428421282 -0.9192884222360749
Ni 9.198229541515692 2.7503691970507806 6.381808358422032 1.1820528513266482 -1.148257757154074 1.8473466202449798
Ni 0.6277946982348669 8.064181404908224 7.022589232130676 1.783768381272702 -1.0784875304384716 -2.052526051832233
Ni 2.4927290811944216 6.563082288434758 4.091842992006366 -0.2533621619400669 -0.7462837756091535 -1.2963355586323286
Ni 7.22634886511483 6.753502596712827 8.538849474905469 -2.7051584232328123 -1.2089118805010213 1.7745664030584598
Ni 1.1407374183623051 0.7660031070505271 5.205573836669357 0.9724554931773575 0.9040083561485527 0.2197465307681506
Ni 7.337749697020811 7.701558804304506 6.470018123149196 1.8368148674757203 0.20580755208955523 -0.9169479470283561
Ni 8.824059521569824 5.738376062699391 7.490739923703097 -0.6497956732827325 -1.3520346519668458 3.110382279173598
Ni 0.08810979920373214 0.04770784536463347 10.850528847821964 0.4539403473098827 -0.32459894589886673 -0.5400856729493988
Ni 4.3174829292779915 0.4495384190696448 0.9127861287077932 -0.1475923772014039 0.5054878803698714 0.6629995735675163
P 2.355234444901205 2.8506056550782266 5.553080155318708 0.1808565385711724 -1.4380961596433042 0.15132047678526842
P 7.6688598013129825 3.9513662066403223 3.5581279966642554 -0.7350069171437534 0.7644856433291608 -1.249026746244036
P 3.594629426575079 1.6921827473836486 11.06226703753605 -0.3032305075254197 -1.1121790091536459 1.6372478969792383
P 7.1230293582338975 6.650958523331409 12.942579294473905 1.065643841706584 0.8298351152692482 0.9219762534808832
P 1.461318443691206 1.9382380736087248 3.031836609258449 1.2626361094973546 -0.5303054536341836 -1.757827235926908
P 4.976498635569165 8.787875739116632 3.0099591077426626 -0.9390306378600086 2.8516904774905014 1.991769084358834
P 5.375987026402755 7.997213846781583 7.255003468564917 -0.14880825188637598 0.12446633270690177 0.9125372195551703
P 6.806185361818313 0.12808760026116933 9.462077796654299 2.124542908490167 1.597697902600758 1.1940976983063243
Ni 6.133165139674484 2.5853887131001168 9.917318921845665 -1.1338842620412215 2.0091551410457655 0.03546271168298409
Ni 9.205694256770043 2.5889388905677686 4.117358491169266 -1.1393946503364893 0.5380156777942476 -0.22517027288688318
Ni 0.29080811597650424 6.529019269889873 3.590917622606927 -2.8310468330982212 -2.0924755956419765 1.61062566640602
Ni 6.882766426824463 2.741820743411568 12.39696653332902 3.319448447409767 -1.4506120327221275 -3.517753777585006
Ni 5.768739422620092 4.902767055109421 6.505350797267379 -0.8490353423467829 0.4718074573982907 1.086718402988696
Ni 2.9186662941620125 3.526708926075542 3.418777925515577 1.4181060896746223 0.3552518948980334 0.3628605604832267
Ni 8.427775633029404 4.793141311937266 0.33005252510970295 0.37258678663205513 0.5413331722032548 -1.344335483550375
Ni 6.715422272086127 1.51308563671293 7.892120185424053 0.5707625332079654 -0.929849742691689 -1.94150170356285
Ni 1.6632581435945746 5.734498895201824 8.062236281358842 0.17909584712632381 0.41305080818437245 0.6330937871470195
Ni 8.602080004118793 7.189128057138193 1.0241757495270338 -0.40805309785946503 0.793816016862162 0.22793086635115586
Ni 0.5719233132090924 1.2409832189620342 1.109439801213275 -0.40296334204138345 0.4209754623480879 -0.48451924853800427
Ni 1.4570208604408916 6.423934016847399 1.7211484584907688 1.1333587285550544 -0.424872740519965 -1.9722181588101
Ni 4.627609616221888 2.649796406421136 5.904318831595233 -0.9398713885937491 -0.5792212054982798 -0.10859954087797427
Ni 9.441416698049798 3.17136418928051 8.894368917802199 1.362734297772537 0.19160349267503132 0.9309702294493774
Ni 3.707095311721355 3.587435645916944 10.006335884818105 1.3481070347776654 -0.3555892236327941 -1.2589064672515933
Ni 5.741365685830044 0.6864567096016609 11.295310029084956 1.5424207272950083 0.7857918610061048 0.8123559846478784
Ni 2.0367461557637614 5.640961061501499 11.643103164703403 -0.3765043765189064 0.6090598861262672 -2.5891301939909344
Ni 1.7717254078036013 8.13139186991423 11.490038197442852 1.9066789394567096 0.17415907194633876 -0.257187449223428
Ni 5.224039430787285 7.039366623437013 11.865028495235192 -0.6659555708720466 0.05994758419822579 -0.13942321112705022
Ni 8.005080292644115 0.9445527429854446 2.5738870723621554 -0.5801030938826008 -2.1976108321204344 0.7517288578841247
Ni 0.9248268358665006 4.198981742436708 2.2961996649003074 -1.0248391489853963 -0.6039472474900502 -0.386376898437612
Ni 5.286737433380462 8.25505015665589 9.739559667525914 -1.6616049856673638 -3.204258140688153 -0.6421512693635973
Ni 6.243958704382051 7.649090918361535 2.0101992366207857 2.0111950542939296 -0.5779533945294498 -0.5648477103854271
Ni 1.3376227866604125 4.663784056102797 5.192132677925384 0.7118944994960063 -1.2082135688824158 -1.0084733060328632
P 1.1864693096890222 4.90818574703373 13.458641499486733 -3.8042965400421 -0.023439976190495114 1.582307793297933
P -0.117934092703687 2.1058811906601265 12.435335543439276 0.1614678496319155 -3.472324441607613 1.480019539349967
P 6.5034860198396345 1.195690428532632 0.6313999968789894 0.8308769262702013 1.1614637143213866 1.3062672159237438
P 7.799562387556246 8.290028747284538 3.5725398486684625 1.124943507908166 1.5992850445822198 -0.28697727889135094
P 3.732198803446562 5.598041284432052 5.362426282733557 2.081399026112841 -1.550336382597659 0.7205989692485396
P 0.29171060845907026 0.8515567784775505 7.598311235230155 0.6227070445960566 1.166272705674256 -0.29305510965431464
P 8.076121212286271 5.097391520914972 9.871799106909778 0.4372803701556985 0.02689733861147626 -1.2921806559236908
P 6.670624637987739 2.1343012955459026 5.669362481242708 1.1639384011141245 -0.46793589025802634 -0.836192939166476
Ni 7.968420039004475 4.515134388503329 5.642315734482577 -0.5579047034086907 0.3056226619066801 -1.1622563854260113
Ni 2.8632741830943713 7.458259536903002 13.462962439167757 -0.1910640752317935 0.8103795776477979 1.036995581842272
Ni 3.1202042634572003 5.115161093397793 -0.17382416287402808 2.4413411273976924 1.9321534295787302 3.0827709452142327
Ni 5.220816243349549 6.027687498596111 0.5849786237177654 -0.3002727104486764 0.3287777598669048 -1.1234689802451683
Ni 5.844488998693028 3.2017275492012107 0.314690533504285 -2.780083968897109 1.969844773481917 5.076893617406908
Ni 2.7399709140994757 2.4581428786016724 0.9854965660169741 -0.1853551977724743 0.29036316464444833 1.3537601192983848
Ni 7.537820882467521 3.7100755922797255 7.886281077746995 -1.3608483936037339 1.616286721346539 0.5274209329975368
Ni 9.4331952344405 6.881159504391737 12.363507044953636 -1.334310495214205 -0.5290960067071145 0.8650643707851876
Ni 8.089425035217682 -0.12400489617337049 12.700566499275808 1.5360690740453673 1.0861283348131812 0.16619250880109443
Ni 2.729469862853055 1.4487620265424608 7.213530855942152 0.2407352172046757 -0.10592225115612726 -0.9444893469817348
Ni 7.934300965025891 2.9182832486983976 1.5971136660860916 -0.15210877701451866 0.8558389955321777 -0.035752732119577135
Ni 8.296353668720327 0.5327274854517668 5.747453305929838 -1.7069481896888539 0.017879965604214367 -0.20571267838290377
Ni 8.489828998135033 8.559038773609664 8.492113257058298 -0.23433419877433834 1.8266705799528669 1.6532339879948494
Ni 9.101020076908032 3.9861112329618877 11.782261713120276 -1.182190405345777 3.1952163422008586 -1.1877383317471997
Ni 6.948491422837426 5.309271717727763 1.9591411448353635 0.08302297796045056 -0.8699564087701662 1.0422367756365534
Ni 2.115569438117901 0.7276724014866343 12.903813225041612 -1.4045180665775423 0.9285811603919104 0.5023421356520381
Ni 4.439067164972761 0.9596316546506788 9.225179125524077 0.5143170486257271 3.015690092405335 -0.5451299202415257
Ni 5.507072658109633 7.086939001503539 5.368156082314899 -3.629287975611272 -0.45250464330462076 -0.5996679033884059
Ni 7.152196868902338 6.46326624616006 4.145950499385055 1.1789898961306082 -2.236066822103788 -0.36928754705549305
Ni 3.0986416066273605 4.336896794482674 7.069709429698691 1.491956142886553 -0.5900758888245967 0.2380748967636932
Ni 3.151959666648111 7.3658334693043885 6.672362356432431 0.25187323609936624 0.5248732268750186 -0.017643424113376067
Ni 5.652480453126799 1.727133310295446 3.222257851793746 0.08844903407202831 -0.15633335661882752 -0.2720409692964928
Ni 0.6893360903793717 8.622839199732269 3.128455623297804 -0.10105772397497434 2.2343428974341455 0.5579548399203359
Ni 6.1080616479492775 8.727793656762778 13.455319280782795 -1.3795850507812886 -2.365671247368203 -0.2271230257378798
P 1.767082149378805 4.389261912130528 9.80596013151496 -1.2597492748678627 0.9541173569898018 -1.0765998264974554
P 3.2435916156026448 8.892559261550925 8.455029784894226 -1.7308077699152709 -2.1312820269862134 -0.45274118479545894
P 5.319912907558433 3.2100891513947576 7.910005605803188 -0.8859939218490032 0.965240463486157 1.1922824994744563
P 4.49800011093577 4.344791268062056 1.869659856020444 -0.23374078816471355 -1.6808224391360793 -0.83280165409674
P 1.2715147451838342 8.55788963721882 1.119572755111734 0.5887219458998635 -0.6120793896788813 -2.420640147404915
P 4.236996669057426 5.133995719120911 11.40424909319429 0.7501293746074887 0.647621291339233 -0.01908581298685745
P 2.364399508311115 8.467612361245363 4.785090817400752 -0.09216839190514449 0.37385151227709157 0.6986134661163839
P 0.15467188969327833 6.178065542067989 5.7584747384524375 -0.07285837872262291 2.991700157248641 -2.634155095441057
