# total energy = -381164.0744061443 ev
CRYSTAL
PRIMVEC
9.33470766757117 0.00000000000000 0.00000000000000

0.00000000000000 9.33470766757117 0.00000000000000

0.00000000000000 0.00000000000000 13.66228823819944

PRIMCOORD
 96 1
Ni 4.257877539964954 7.875375465613336 7.235165742976022 1.864780242340395 -2.40589821320905 -3.708810396617632
Ni 7.904723786470035 5.3790226024630154 10.926333181411003 0.35953895230916144 -0.05881012815967291 0.3038087486263929
Ni 3.171634949376308 3.319767425099897 6.849724462391367 -0.5569693360786149 0.5915311332138845 0.912012714510268
Ni 2.148130928914212 2.569630318215552 1.134706525774338 -0.6479856166571872 0.272265426602473 -1.2570493594381964
Ni 5.4772797352039895 5.62708312359722 1.2669121233027303 1.3915059705885906 -0.22362426855600198 2.274788921264334
Ni 7.298593214527264 7.502388551977475 12.040779657698263 -1.1467438916127088 -0.45995338627318205 0.6795451366310232
Ni 8.29545597935163 1.1667451093762353 10.254545076259019 -0.45858581650169405 -1.691560394378874 -0.933958879764056
Ni 3.606940371294397 5.244826845263298 11.239089760866305 -1.0484591023971814 2.0431983466734036 1.2608137115766351
Ni 8.264978158869084 8.599683436425643 0.11433990055395285 -1.6664805685921107 0.6775527887913428 0.42577956860495053
Ni 7.9284526133204585 1.9526528159815957 5.7449235395205305 0.7429246293289334 -0.2979939417168287 0.12149722277624883
Ni 3.5079271272336423 0.33778293066929865 10.572794197696533 1.003878487573329 2.079584084391289 0.5516512662998113
Ni 0.3082889883732337 2.2287828030242265 11.790294912986933 0.36645599114396893 1.3046497349249788 0.9036959671144565
Ni 1.3049267867431957 5.767598477877086 10.745184778194393 -0.3781444832254907 -0.5008277558900406 -0.48700087730927744
Ni 9.182906635791333 7.553496076370106 10.889717790647516 -0.17225028495940012 1.3530075574030762 -1.655910506385748
Ni 7.873807234727863 4.960799695547395 8.540419244487024 -0.8533799924687238 -0.19728023134483444 -0.30226248718519555
Ni 8.349774643176419 8.068146513326981 5.675833634307815 -0.5275615723404592 3.180852874390335 0.9838657918968282
Ni 5.6860691412478195 2.998793502498874 1.445770722732399 0.16226154917780442 1.2720815711809705 0.5062057323725024
Ni 2.5223033504218284 4.58445228715695 9.06726454351998 -0.0169602820034224 -0.552464763340042 0.0075950387384385335
Ni 3.932086908215695 8.439042452448879 12.769007272253484 0.3638622622748637 -0.9954239290480728 -0.9591904006373352
Ni 7.627380287432694 0.9507773131483084 12.466154817616555 -0.7404149755332022 -0.0762686899557525 -1.2053254487013436
Ni 7.428252303808293 2.3559121865316666 3.2486322854407117 1.151598134381217 2.2403315109174127 -0.6408608326869478
Ni 4.970806502149934 3.9479465765158004 3.6118308246330817 -0.38210706741766454 2.103352647565797 -3.9606988022256493
Ni 8.313611985734035 8.7444647521023 8.7916825038165 -0.6440127480523683 -0.2826395707479455 -1.04073807960384
Ni 9.147397407884563 3.581624644143198 1.5173203234113166 -0.9294098269407929 0.30377352451308326 1.2005246848785907
P 4.109801072487275 2.545416086567245 13.448363958369406 0.5876976184004072 -0.9883343691911431 -0.45891363215475806
Ni 0.6036998140702896 8.954999748476983 4.220376285445328 -1.1362316792274756 0.5266344325404994 -0.38670137165656626
P 8.750354952630474 0.365507012394616 2.193001935124794 -1.2713734893703523 0.33076136595583683 1.598738942270763
Ni 3.632162751369079 7.169008802907446 1.173453963765456 0.2998916729601738 -0.24281729654468506 0.7679491763977291
P 2.7454402021262014 6.726319627236924 8.634675521528512 -0.9568470972161391 -1.049833871257521 -0.23763446679216496
P 0.728481518603347 6.6956831167243 5.361860742445509 0.879269458640976 0.30912990372899013 0.3915090774578548
P 7.507625322970036 3.975343943473311 6.642002946902884 -0.34212795592156564 -1.2990192761120791 -0.14854574225360867
Ni 5.621108910700181 0.9163910505720284 0.5540018305330541 1.681579629017078 -0.22106216425578057 -1.1028273927354169
Ni 3.9316388422484168 5.121692716630752 5.319466234174902 0.40166082117987595 -1.0251474242544345 0.4076381218092335
Ni 2.944073446245066 5.510361939121338 3.0317571556290472 0.478698270980853 -0.040552210390749514 0.09368148611556125
Ni 4.757984502400603 1.4396546222790563 6.673877239650111 0.014594352874407123 -1.242714687983079 0.3531075948615209
Ni 3.660092196662733 4.396367262684419 0.6526528879369259 -0.6380503598213463 1.0378468740989737 -0.0025379359305053063
Ni 4.428497326421302 5.279757321295668 7.660718262339697 -0.5048039669289693 1.8617373417490128 -0.4702974485116675
Ni 5.882023324270668 7.828505898494542 0.2662398642857372 0.3191754608904503 -0.09662308524238843 0.13251928491836532
Ni 5.92168649708241 8.486257403750784 2.5802737518799317 -1.4716107464609816 -0.8983038495646077 -1.840787221859907
Ni 6.291910337253391 6.903165663696903 7.9957175831872815 1.3035014802531488 -0.78337476692418 0.631753471069041
Ni 2.492217587660651 2.8575033674839236 10.993005397341948 0.3079605660112374 -0.09310041680111063 -0.411726175835678
Ni 5.398588149700816 1.3141401431953466 3.326494015433656 -2.1857667882976552 0.621866036752 -0.3404929914213039
Ni 0.837861888981993 8.887733845139394 7.218961623963572 0.8197818447983043 -0.602957115662639 -0.8062398444478116
Ni 5.9399918587872405 6.782990637389922 5.848046855360295 -1.0134751301228286 -1.0804629089972877 -0.5080504988907251
Ni 5.856296869982798 2.960875920017986 5.148401182163573 2.4271332113284267 -0.8367660380611267 3.3930493607253696
Ni 3.032015727030997 8.822922969914183 8.477450107081479 -3.6767551679543002 3.509085560387047 1.6337303707442832
Ni 6.484233318999759 3.0232317671308206 12.838506971132107 -0.19684237247646744 0.6141043905287101 -0.11459818166357037
Ni 7.3311433401084685 9.58245079269606 3.8650609068647532 2.033669324137046 -1.3844554914997123 1.6403118806165429
Ni 7.440210064310021 3.1116781221299394 10.567616235362179 -1.7331988958552667 1.0351040212465141 0.15243582133663425
Ni 2.0047311499699947 5.525782876161817 6.857621625064639 -0.07260178262712658 1.1372660340292606 -0.5706563466474043
Ni 2.0142432170669977 7.993982261034845 11.275732222281983 0.7264713688689166 0.5839147543192073 0.9138819065085229
Ni 5.952463028209808 9.087533927714713 11.031464392866633 -0.08065859149333206 -0.22984016755872677 2.0281563647386167
Ni 7.975527544007589 5.851032094867284 0.12787522664880477 0.662153423517137 -0.3649804350397069 1.342004264314037
Ni 0.4869104862285512 7.086938053234386 13.070069329962832 1.754565020235869 -0.8538520470091359 0.5895146170044879
Ni 2.8974279121099107 1.6809381456581822 3.010662583277912 -0.8838308527594133 -1.6314989103106032 -0.21398777390750243
Ni 1.6403508367889295 7.758262223416086 2.5693026699769805 1.242892351211524 -0.28585627791303025 -0.5337317057069131
P 2.6262733242455947 6.1847572281204215 13.259387469316145 -0.32359338745248784 0.3713500860114766 -0.9546688586178977
Ni 8.612201279386467 7.470995930145071 2.00507746762387 0.16763515478489194 -0.5396650404722125 0.9552810382806
P 8.69571890874553 4.188716690974087 12.564632249458107 0.09567589083777071 -0.9452964162640625 0.4299876931490272
Ni 0.21095972557283166 3.764155517563015 9.651122503005983 1.0172050294789061 -0.714061425240338 0.31616315642668774
P 0.4159312361871478 0.08374352928423139 12.108393745631256 0.30322356554688423 -0.566382916083031 0.2926987547561604
P 1.678147068070347 3.785037258579693 3.216457415107101 -0.6506521077457569 -1.247199206116994 -0.21443488874725006
P 6.624403289096515 9.062208865855862 6.79978937727978 -0.46238205031933277 -0.21270067966496273 -0.5728582393947296
Ni 3.212296935906773 7.1713051409897455 4.8261073319006105 -1.6206128595257185 0.5242718458455939 0.26540932291258806
Ni 5.668669246185196 8.917063496580791 8.844309718614813 -0.5250830288929795 1.5416689367306482 -0.7032226827536211
Ni 6.971019653616544 1.5221734379193947 7.92385433633127 -0.46365166106037564 0.5163615898595817 1.0829977596039992
Ni 7.202044333286538 7.050551362808363 3.9876806931056943 1.9909753848129452 -0.811889586534421 -1.159506847705332
Ni 1.1808498526378362 5.189332008274405 1.3852603473222898 2.003370930263821 2.082398156801317 -2.361834647230933
Ni 0.8992021199023316 0.07084576372198526 0.8482943582534458 2.815761624804376 0.6151698556787469 -0.900743826464668
Ni 0.5121151303586958 3.6583186022089245 7.018945909641501 -0.514171009966166 -0.03112217532610124 0.3722445728012879
Ni 8.151281419672328 6.033254922934597 6.297057495052496 0.3254695214292782 -2.3300049043148454 0.9191662948359137
Ni 5.068120829418094 8.711858618275183 4.9684280186403 0.8131283440375286 1.115354064447518 0.21930738634820293
Ni 3.634421750620772 0.2902365972457619 1.1578790040487246 -1.6699669844788143 -0.36421398918732756 1.2629500411933474
Ni 7.967023625336961 1.934814189659346 0.8058821140383011 -0.7128224106269143 -1.4635266839012666 0.3368847052447553
Ni 0.21912199394340992 6.728242577013159 8.49723315300756 1.1366160591500878 -0.4831575923037873 0.015779117211127663
Ni 5.4888734421073035 5.480817589403954 9.830125790404251 1.089354812170279 0.19927232207419873 -0.017674534461627624
Ni 0.47190867756162946 5.81596159822014 3.4176212984703205 -0.5189499194120483 0.09629192715521481 0.9003262793112752
Ni 0.948807689833816 2.299661238222992 4.966487332919529 0.9545855548754721 -0.3282028612000412 -0.4316578817625985
Ni -0.025121565232045156 1.5025705518509886 8.094700956183551 -0.21053632502379224 1.5049196450257565 -1.5767626951099878
Ni 1.7138523248378015 4.322296357468797 12.56963285234708 -1.2461124008107183 -0.2067120661816956 1.3047626063537592
Ni 2.652195807394149 1.0488290823209458 12.700107795076864 -1.0140202039930215 0.5882041257231805 0.11044559294777753
Ni 3.685099878461428 2.48167870272197 4.813046208954462 -0.6923250620045109 0.22060296523117492 1.2483088942414051
Ni 5.333571910907269 3.3642659764751794 8.25759627205818 2.323373000820624 -0.02368551654239792 -0.16714947339772504
Ni 6.012102475396022 5.632422576373947 12.805963379846256 -1.4841631292046955 -0.7990093881376433 -2.304092812434774
Ni 4.072172865943586 7.547064462798137 10.126638111604198 0.9543482420536853 -1.7452242024509168 0.4385273551889222
Ni 1.2331895584404806 0.9811991253849445 9.752401280613784 1.7680455712208067 -0.720471956752372 1.4533929379013744
Ni 4.857203110029694 3.5288275376656237 10.914678798907953 0.909947347340807 -2.149022638799086 0.1549274774102364
Ni 8.714780381770142 4.1105105102687975 4.693774782348156 -0.6139398399263879 0.041547484424483284 -0.5311536605670918
P 5.508280299315026 1.55529298066735 10.069038298039866 0.35788701852803523 1.238589610071112 -0.9011258923944351
Ni 5.162700087344328 6.449844256011184 3.5667861928601794 -1.4024768677777977 -0.9284541478957428 -0.4904045036741876
P 2.0042270757568073 1.4761533291968985 6.8816809005659305 -0.2885734197338772 0.10932124953534722 0.18202510495797683
Ni 3.589624488600638 2.298410387397675 9.025417049117758 -1.1352670013213608 -1.5349313608964985 -0.12395082652306394
P 3.6822434579200314 8.679467182724055 3.254192970788783 -0.1771379520690046 0.5319584158565741 -0.9608690738913387
P 7.248988578066544 7.192326902621198 9.899884994155588 -0.8448241324789129 -0.11945679530745233 -0.35196036863095514
P 7.1414060723816 4.611644290546126 2.7854123537612123 -0.22266087620146816 0.019169630949915372 -0.2839390062856593
Ni 2.597485085847992 0.14645316181706292 5.160163847275382 0.7534579247600894 0.9526045198897013 0.8441924124321848
