# total energy = -381167.902669616 ev
CRYSTAL
PRIMVEC
9.23691170696162 0.00000000000000 0.00000000000000
0.00000000000000 9.23691170696162 0.00000000000000
0.00000000000000 0.00000000000000 13.51915396448655
PRIMCOORD
 96 1
Ni 7.59820024310153 3.601591862041339 1.940755460997928 1.5460860919617374 2.527041652190306 -0.665070340053616
Ni 1.1139807602056038 7.194501027300784 3.6825635516793884 0.28052946638347814 1.0840879073443848 0.06631106452240838
Ni 5.462496994453689 5.854271357546535 4.6340143887305425 1.3333213918280586 0.6085636632161391 -0.2989516776444077
Ni 2.4896155116247476 4.238024299242741 2.275219406874536 2.6755094900181278 -0.007889430050405767 1.2842503453330207
Ni 1.3161028569943451 6.66346174997323 6.099450393462004 0.00042860289698635866 -0.39611906542604036 0.46442453467065825
Ni 5.226964988877593 8.185178256292014 3.369770323802783 2.029402835551208 -0.2222243028846818 1.3225291863085613
Ni 4.968710181085051 6.717414549870087 11.905913344621593 -0.37204788340944955 -2.8290197753658632 0.33877703717146174
Ni 7.986991083789535 5.370118642841212 0.202069446393362 0.3539645435451775 0.7894531119077759 -0.2897653831594494
Ni 3.882310838529167 0.8722831162232161 5.38202871649076 0.5402594795231018 1.248186509730928 0.11515559682893717
Ni 3.451556709032495 1.257513127539497 8.466234380048501 1.2535642291030733 0.5372924264749779 -1.33347205847331
Ni 7.795546856660231 1.040565787841244 10.49821727348973 2.8231455759732733 1.6242314301149121 -0.3088023451862424
Ni 8.50968943005959 0.37322572116973823 7.871040134105363 -0.20928188379140086 -0.28727424130647944 0.4633179318700408
Ni 1.4599585162296922 5.861125145857351 10.080435462461669 -0.4105308699759962 -1.16718827550999 -0.0624711219510279
Ni 6.917513763046877 6.204544277404221 2.5761967775985886 0.462656644136958 -0.12896833434231336 0.20859617057828592
Ni 5.24047859035835 3.237528233358794 5.113566197832609 -0.8572127359512527 -1.3769093037213382 -0.353035861083321
Ni 1.5119438539834182 4.877375600468696 7.8591439158230205 -1.0187464058240971 0.7844422889567457 -0.42032445902765037
Ni -0.11584841996685484 8.758864353877023 12.970208758029525 2.184435471080741 -0.7383853466976831 -0.323349646872798
Ni 3.128246333756034 8.857274408679475 2.958896798863209 0.05491027888463446 0.3973313405665867 1.285407084645283
Ni 7.386573364410055 4.520184233919904 8.616364673245487 -1.4250709510282296 2.048907738353355 0.19893576467038643
Ni -0.044242958559487906 3.5600072866029464 9.546387723068301 -0.23902851892621416 0.19591806088998515 1.2690445841268596
Ni 2.338028557488926 2.855646602450424 4.162845076787592 1.6717564722790694 -1.1042666962851047 0.48997487233593684
Ni 0.3238156343338761 2.6835814155853903 3.0097552334175828 0.48848980314997803 1.1994265667184052 0.09854395641418512
Ni 7.215348736488801 2.260604765546543 8.644755244339988 -0.17175020539453 -0.019304870976199012 -0.8013655470746457
Ni 0.9385163899195725 3.9440041702379687 0.9240532339396889 -2.422151698953435 -1.8036057277136035 -2.856293523480152
P 4.910083503984322 7.940067573521424 9.32693163821477 -0.6199958163124806 -0.5342680378263573 -0.16783210128704645
Ni 6.859607565040816 8.10854883873606 5.681600229289063 -1.9736883155977234 -1.2163917338178343 0.6861389877984571
P 2.1996503867553487 8.872219731438097 5.10375105570448 -0.6777538490585554 -1.0633252208757364 0.5373356210080874
Ni 6.305318981543018 4.625651289085513 6.5000635571405905 -0.8163327099074392 0.8349881202250974 0.8272804671681946
P 2.412321036442945 1.4492344620129054 1.957641458856419 0.19663899821640973 2.0517331236172924 0.2944764154818735
P 8.290959366447607 6.780474944476464 6.744610788311505 0.8571620852189754 -0.9147241999041602 1.8581092580781224
P 0.08018193370735535 6.714070787917911 11.748901552379381 -0.015612766836592466 -0.41832594054038275 -0.5229140462661188
Ni 1.442694728692074 0.7998943647231845 6.983629727967562 0.8677246912261701 1.2029582340207476 -1.1052902524536126
Ni 9.319397089528609 1.5401995661704562 1.1328037383993748 -0.6174514526240721 -0.5323371393522316 -1.0288564976749055
Ni 3.417888166723978 6.507311761571178 2.5518750660066662 0.24201536946868 -0.8058724338060638 -1.107550766353015
Ni 7.709043180742738 3.659119346677126 4.224519010982307 0.0007150237891536072 1.1253564270758682 1.5460313274644018
Ni 6.1181422075129 0.633662287451519 7.41390353806779 -1.5171817502225613 -1.1370400340613838 -1.0157227885064248
Ni 4.417996282326182 2.7805782229329163 0.898902971388899 -1.7264703188821815 0.9398724170350136 0.04283303600512624
Ni 3.347465953675931 5.29830165616118 6.305171190959498 0.4721278168521869 -0.2873590877108019 0.22774651825449166
Ni 0.40896148426526346 5.249253656254946 2.858719722896527 -1.1525491854405763 -1.9740246158912196 -0.09638242998649207
Ni 2.3804629287825683 3.0495570849422466 12.555129667297614 -0.23302525015492773 0.2807097007150843 -0.16711116396062187
Ni 1.2886877037510867 1.2807993813556207 9.437478070997786 -1.367801170772483 -0.46223061234313295 -0.14553318067953
Ni 5.484277631700186 5.527589509583487 0.8436708592534324 -0.07457613274467802 -2.832532416504812 -0.6318784266826795
Ni 6.823066343265099 7.475349320549193 8.179952935473379 0.024223134213422797 -0.04619655316072043 -0.4560265404149501
Ni 5.217820446522193 8.88063455778736 11.672140046989405 -2.075803534302935 0.9814672097576645 -0.012489647826578491
Ni 5.354166496732348 3.589879458297252 2.741035004929416 0.40330144210709257 2.072310947768644 0.7503661732086432
Ni 8.892762622547602 6.601454363274445 9.036716193044532 -0.8697808024242504 -0.13611985778543007 -1.0548048421095513
Ni 9.112675010827758 -0.7463572258424814 5.683722871544892 1.5315614159830009 1.5666127511601795 -0.024542722336370636
Ni 8.291079446296719 2.710737935307486 12.501756021749932 -0.1763365392136318 -0.35133199101833684 -0.0745823033922651
Ni 3.168528504677142 6.405363969675678 8.712878390123128 0.9648198310089705 1.5271972254770345 -0.25106590970672243
Ni 1.2117534681166187 8.08293488322947 8.048385139566706 0.5332159424127592 -0.7907101242433285 0.6642761262870946
Ni 0.9389597616701373 4.5241745796749875 5.025718551296217 0.665406640347112 -0.1137350623323267 -0.2916003794856591
Ni 4.888718527753979 2.928516597038048 9.754055661503692 2.5445570353662497 -0.326458881925741 1.8164558442033945
Ni 7.910694195046505 8.554128211142244 3.5714629042081647 -0.08291602006894107 -0.3973897046083478 -0.15568698128408026
Ni 2.3806291931890304 3.260057060434369 9.394311212624565 0.6754820223052431 1.8219088968981656 0.7350704233918373
Ni 3.3782525796057765 6.923924179607126 4.837437042654274 -0.056436485721173775 2.362205914527422 -0.4588768653795517
Ni 5.493902493452031 0.6893959638798121 1.1218598456895996 0.03161197047832621 0.6455880629592882 -0.25039330911973
P 3.809856504957698 4.657333895427959 4.146553936027776 -1.2561844403347397 -0.508422537518163 -0.740794470359808
Ni 3.4147106691782634 4.888349051295175 11.174662163797315 0.2775549571361865 -0.9293982569765672 -0.6254486118969358
P 6.411802096970339 7.680528835034538 13.053824051730317 1.488610880563404 -0.46653438192480945 -0.9041171138122751
Ni 5.714526123915384 0.7295146414679 9.757056734040328 -1.3720203510601532 -0.13445121183375555 -0.8138875908010563
P 1.31011733836172 1.2993748103219929 11.659782906824706 -0.4269756457955808 -0.4904728950182779 0.246440238009253
P 6.749965425890721 2.528521382736811 0.5118652964979193 -1.766518593053319 -1.4947316487491613 -1.6563529932398056
P 6.94993532230693 3.228540718498386 10.51730627473384 0.6021922124721565 0.7518707827786277 1.3039683925872383
Ni 4.289372290105031 4.3278532632894695 8.395800159015542 -1.3987983904849457 1.75147275446379 -3.7487488846837826
Ni 0.5668184539069889 8.536513420968761 10.347452404474748 -0.8718759943903824 -0.9565732747294622 1.2913956981285502
Ni 2.9449305887204167 8.929922717391817 10.28073511661736 0.5416779571371833 -2.74521929580944 -1.073403688157661
Ni 5.0204461222290835 6.883521928836906 6.932932939363916 -0.029898073111013026 -0.9172701062544654 -0.2699671174865996
Ni 3.4864260498321245 1.6910937519460196 10.780578572836943 -1.2402307452189607 0.36159994860324823 2.2887299568254584
Ni 3.615170121902387 8.609974577890473 7.081738659456089 -1.167338427934609 -1.0016393138301654 0.6376322984473213
Ni 5.163110219884788 7.6048231086255935 1.1638166686602376 -2.8859573690931715 0.8987447937567683 0.46183491956661105
Ni 7.268913586103914 1.634379115519602 2.9928840146174442 -0.03365291216775495 -1.3550808949923374 0.39644379575531075
Ni 8.206995841184392 6.278559649014137 4.717549321301544 0.0019404115558224644 -0.974513918368283 -0.7473695524741645
Ni 0.443716287362664 4.416093478563341 11.680562262867841 0.49619771331719703 1.0723122548656954 1.1518555018076615
Ni 8.540383686874733 4.429893424299672 6.565630849519954 1.2009525164446286 0.0793180183050376 0.5298506254849521
Ni 3.0990669304219858 0.8280179890761998 13.16431598673566 -0.6554621275398905 -1.0350888517378625 0.5605326279498412
Ni 4.858615433272921 1.4068462752766135 3.2792873864239716 -0.12030603068162507 -0.09641559721727266 0.1524255369239891
Ni 1.5304269138350897 6.139451762274422 0.7677434469692054 -1.406046587406927 2.3939140442639806 0.13722080415909274
Ni 5.315251388708814 5.675804991032722 9.807510591872312 -0.24231850253139556 1.380953648994041 -0.18281134830469808
Ni 0.8701336869241236 0.3358799644049745 3.5279986172856064 -0.481799535613996 1.1278964198889025 -0.16106264377369683
Ni 7.207201780572172 0.40957019673114314 12.49913366258357 -1.3954595559197 1.0753605547737157 1.8502686789877811
Ni 5.850909121771418 4.106158151095585 12.256153935289134 0.1713501417426339 0.4421312704900966 -0.19806621758123955
Ni 7.326616572057633 5.686926232442723 10.71634878523845 1.9330471450375935 -0.6017702944433895 1.7098825897268295
Ni 1.5542766192508894 8.8750924109053 1.295158160235892 -2.2778714168443996 -1.1669442778199839 -0.6621721925702144
Ni 2.715578076917818 3.216578918144606 6.662454926622988 -0.04512877401783841 -2.3704812671623365 -0.1505442607408762
Ni 2.47973201635174 7.011785681510724 11.635948904158404 0.214288850087689 1.008222880584954 2.3181199799518013
Ni 7.424915783922443 2.280722758728422 6.328424191894329 -0.628194550073189 -0.17303575697517296 -1.0071311901826718
Ni 0.21023579982407792 2.0012415283775877 5.16719662951916 0.1464459223017865 0.12930077798106762 1.1963646399636299
Ni 3.2498687470828482 5.046143209938903 13.538485720257643 1.5893531301804888 -0.8060326135330118 -0.3693690510257058
P 0.7776740504907106 2.767748152900947 7.838134560684276 0.27530498475974524 -0.5688977120850848 -1.9811789675478138
Ni 7.203627095833243 8.110054455305686 10.275678831278624 0.11318150382170185 -0.8553474006077398 1.3701617005848596
P 8.953717001338795 6.916035857211661 1.7974124503491717 -0.9579027921741633 1.2812046165281614 -0.12150236498257141
Ni 7.278954108871914 8.447183250141418 1.3013810674932988 2.551048042407232 0.1291472831223389 0.3385533511964298
P 6.460342066745718 0.7255215246393756 4.892662688951711 -0.6051914043097965 1.380971389605854 -1.1277619511935675
P 3.01225843642598 7.814020679600432 0.31599843615672996 1.6363739790147174 -1.505062084140892 -0.9421789536810032
P 5.037691435943761 2.6096029916213546 7.269059529305142 0.1000328822548858 -0.1683396370510843 -0.02318749386005684
Ni 5.067619029106887 1.8871010133415547 12.475731947374072 1.396087676422002 0.021038565837854087 -1.293969115282681
