# total energy = -340868.74006213114 ev
CRYSTAL
PRIMVEC
9.27652340105861 0.00000000000000 0.00000000000000

0.00000000000000 9.27652340105861 0.00000000000000

0.00000000000000 0.00000000000000 13.57712968280424

PRIMCOORD
 96 1
Ni 7.336320103753416 6.168609871167289 1.1372906565307672 0.6658470703186404 -0.9836673027327768 -1.9819613542397931
Ni 6.637491754467516 1.9826621037862067 4.157670140615546 0.5931851238775397 -0.9069486697237992 0.5452744162391899
Ni 8.718067564421174 1.8590431508361858 9.396500549009799 1.1397936855471211 -0.773051787731617 0.3302265764982893
Ni 4.195641734500457 2.1902614245177476 8.862430679354299 0.25606233448004934 0.48755289315800554 -0.20753816162741676
Ni 1.3591034666597286 2.136958520146532 1.5751917341003019 -1.1291534322244552 0.5052449111211299 0.6254069600257228
Ni 1.697492493052559 7.938793202829812 8.873157123545813 -0.49081253774588374 0.08134816136118893 1.7960495126329004
Ni 1.721583624735825 1.1178581949789361 9.519549923413283 0.22948998330815962 -1.3250678935700149 -0.3749447453412704
Ni 9.135585336774058 2.7466116484577556 3.8769634653662344 -0.5818576146798625 -0.26123976491593076 -1.6466434792615254
Ni 6.297117552033014 6.264742484811374 3.0515411820248746 -0.2959434869457032 2.1272302255143427 1.95868130066593
Ni 7.647371215217257 3.7698585796563178 5.447823062964385 -0.22300694668697724 0.9114583846686947 -0.11974398753056796
Ni 1.7719551476623305 2.2488890534119492 7.242611445715354 1.9787083945201343 0.5630129711695335 -0.24016726051634768
Ni 3.1725525042024016 5.405170535291497 10.404005219728381 -0.6319871843464019 0.5912706804636463 0.1977617989669433
Ni 8.024721640558766 8.822187264849736 9.010394013080752 -1.9699854128248395 -0.8160894835483815 -1.1454133457267432
Ni 3.478084084148513 3.3559400984444068 1.9510606986294048 0.3030883255206006 0.2219070287545791 0.04236535234008833
Ni 3.469874360798613 7.0492951883079265 4.539500199183797 -0.3390446890105516 -0.41284846236557926 3.668958554728017
Ni 5.922633572471301 8.798606341962229 11.25696115264583 -0.04427105400323343 1.5542496016091363 -0.1710009859333313
Ni 7.44300940120788 5.437183818094328 10.648855348464284 -0.17668235258882473 -1.4169004994022951 0.9287667940401554
Ni 5.775146124403435 7.946733906996495 5.1113412898153285 -0.47479430794075644 0.024746867927376737 -1.469081809391541
Ni 7.283750044743378 8.620005433876775 0.7423333894738798 -0.5699775754128248 0.05590246759457469 0.615953527922307
Ni 7.945064132755837 2.9800182577310164 11.347194824958613 0.6268933147632624 3.863698793259817 1.025016555103525
Ni 5.721824666985102 1.6360819070905945 2.034125473535631 0.16073354256905223 -0.3678446439613794 -0.6138537079704848
Ni 5.385680559293599 4.956418708114756 9.503393929982565 -0.7393119722770107 0.6444207821240644 -0.3698714445834211
Ni 9.089508844255468 7.1356874522148415 7.1328673890528425 0.616461577906977 0.78912143959997 -0.491448885778302
Ni 8.047968608598143 7.928626133008918 4.924846060180989 -0.02299260424043137 0.05533553934751115 0.7582360628750232
P 1.8652305920501784 6.204064744210588 3.01762528424005 0.8459317637207948 1.7509474780879393 1.2851579447489543
P 6.929405397828708 8.931511094995017 3.0457442824527248 -1.534632341598841 0.2491848906339257 0.8795872469917109
P 1.9574577892758354 3.8351003698482358 0.4497805936394576 1.0555530331294851 1.0209500983436353 -1.800363566627222
P 5.333064117665766 7.1781089944511045 0.582424676360233 -0.08223004974551 0.1281185847475084 -0.17249711086288358
P 0.8595506135156903 3.521108600416125 5.51126891819524 -0.19740544406878904 -0.17493965886610516 3.5367956247078056
P 2.1792594675765256 7.3625726654259775 10.979743377907138 0.0816849758753174 -0.643900133733904 -0.06882997428952017
P 0.6771593179039442 8.54250935606314 1.3431023911724487 -0.10052730539280107 0.6148690366088766 -0.6890119384708779
P 6.532453678206591 7.196281704103595 9.85924972258503 -0.2596297401163335 0.27184967922129305 -0.8232908863928272
Ni 0.35519530412504957 6.688763100179264 13.151269935444706 2.197091469281855 1.5155138756018351 1.3532209589654631
Ni 0.48836258277456424 0.2088034134895263 7.365620003415178 0.6759515057424939 0.11807199914478374 0.7564072371964005
Ni 1.0019758626772957 4.801825443000537 7.804269696435941 0.5898144076330938 -0.21081580393742402 -1.1537151807242196
Ni 8.785285254131203 2.6364622077157063 7.285229650251072 -0.8697255237062829 0.0732602421467319 -1.111573514359163
Ni 7.641044626149877 4.696267881420296 7.757713607649338 -0.14318524927264373 1.4557174722694928 -0.6821378370588639
Ni 1.2025621315980746 8.869785107232039 12.477572616133058 -0.07637076275125557 -1.6359312350503439 1.1319579915527862
Ni 8.59025562282239 7.428148410466028 2.818571497011252 1.0716648510896833 -0.06092666028204346 -1.7757521958364448
Ni 0.8914869011729796 4.271087700607505 11.470950142804954 -0.29272960799409586 0.43103824590072864 -0.28847031849710963
Ni 2.7562314033886555 5.624903548838485 12.736176118697843 -0.3226737038516959 -0.5154912714394864 0.3641782508533857
Ni 8.88524907200524 1.1662630949108894 0.4453389941593082 -0.6502175913114996 -0.8057143109616446 -0.5939541408330803
Ni 5.4950414955331155 2.51830712714206 11.25963557438795 0.965920520272317 -0.887223166270414 1.0930731415621304
Ni 6.5162290385015345 3.601693760574975 0.3511136337589975 2.1336063042440157 -1.408780184288006 -0.37775033311086553
Ni 2.4083617699183133 0.5443510407161709 5.45318674888632 -0.417310611901991 0.4834141883992836 0.5134403024477286
Ni 4.315438759744084 2.5612759842683164 13.422839234988198 1.1905313211113047 -0.1573330015279355 1.8663594139020565
Ni 4.490412547117886 8.00613148734611 2.862398432566736 1.2227847818283715 1.1977396659342856 -2.4517502385461585
Ni 3.165743535909942 4.854441884628371 5.925249552114998 -0.5771530101153416 -0.8332737086371519 0.4718570796893034
Ni 4.026317349974213 5.625450863728478 2.940996561379203 -0.7754148886471549 -1.3754520024495214 -2.284621333973724
Ni 8.929563025047583 6.339307181180297 9.134733751911323 0.3823587784171544 0.6440034920809877 1.4690730676407924
Ni 1.8118441989669296 4.19232073906626 3.8450299606660128 0.9331898628085153 0.5076859164624546 -1.6992536492580734
Ni 6.120678073936857 2.4588353346039704 6.887922639776637 0.2393303664373491 -0.5490099720222222 0.28847803180659354
Ni 3.583947771006208 8.25761804103627 12.273820269721522 -0.5976354463394093 0.04056120925181402 1.3459341954960626
Ni 8.914219655080652 0.6057087504938479 2.9463454048634428 0.006545000207369372 -0.43215976109968157 -0.6115214602928823
Ni 2.8564735169694693 0.2693021171856204 1.3720915272949772 -0.3909706884558815 0.35834853154548607 0.4184390690794794
Ni 6.804719644669379 3.241430691629529 9.326918273444527 -0.638759470073229 -1.5555701201927725 -0.5672234097064554
P 5.00106661600523 5.124852546379317 4.740929704096108 0.534061578242506 -0.4039532167584785 0.8787002164010673
P 5.157765651967391 4.5981779213052185 11.653155907945518 -0.8254313297745978 -0.86132187302362 0.9271624256675128
P 3.3340289497975544 4.889766886341839 8.33152410423249 0.20806600910642878 -0.1097159138706046 -1.1925272684954107
P 0.06403491447686466 8.925351483351703 10.580317609451779 2.6790139036269602 0.15356530695538714 -0.0160843071563723
P 6.645608712581823 1.2768207026895437 13.32064441319817 0.5761178839826079 0.7692925777995009 -0.3441434436896976
P 7.538557593867734 0.48691544509932766 6.928069578436182 -0.6660329610772013 0.13555292953836653 0.750645652122275
P 4.044545718768059 1.865527440804073 6.3549112214592425 -0.22130204818072854 -0.0778882278370465 0.539330025730297
P 6.004118555415394 1.1431738277720178 9.71249511987834 0.3126723696646099 -0.2007522490538349 -0.8829934444597826
Ni 7.396608230364716 7.203665816856726 12.377508611804581 -0.2380381299884868 0.07966640278339183 -0.29086067310615715
Ni 4.848161678178785 0.2142552263852735 0.12736666846794126 0.7827957544922582 -0.8157830080515563 0.47219260865185125
Ni 3.508075084815436 0.16930026556499017 7.8845515142744045 -0.788717519293332 0.14591138995455516 -1.192971812231997
Ni 4.416682737869292 7.0954551695385515 8.760221942778934 -0.06160954528168099 0.1950549415587415 -0.3551850462158399
Ni 3.698976663140401 9.165502125252509 10.18559040017916 0.008062722403476438 0.6677532862024178 -0.09620373831678271
Ni 0.6785730600943678 5.863393693022191 5.382273292190302 0.698275623160991 -0.5898203211703649 -1.0493533320766766
Ni 3.302896936732849 3.188359700347294 11.539243909247853 -1.9542456334920797 1.0576783070026041 -1.1534986938380394
Ni 1.8796092035669523 8.377711915033792 3.6729662187327343 -0.8609989424665624 0.48790127763635976 -2.5608282617224476
Ni 6.065185910005668 4.032792363418541 2.973975530284547 -0.3264781651994506 -1.1100033416585655 -0.5394819779271289
Ni 5.3748548563000025 4.913746699742394 7.10817050038116 -0.6713852265280502 -0.23885445524219512 -0.9865397391845656
Ni 7.910240063314567 0.9052393473495071 11.40254876868877 -1.6612432314525714 -2.7385722228065674 1.6965815017425492
Ni 3.9127355955152567 3.001140901875335 4.335978838208884 1.2401397281670512 0.4787885167018141 1.2303070583473457
Ni 9.0654177125722 3.4582601533024833 13.457882230385467 0.630459691958282 -0.647909254893297 1.5249043156777997
Ni 2.3405874887947316 6.84071255607911 7.005432074310563 1.048700528984026 0.521665004350366 -0.5307818790499698
Ni 6.691685205100415 7.195493199601063 7.213339375624269 -1.1416988729896338 0.6595730643844705 1.419611213465239
Ni 0.9857883290664758 1.6367590933104166 11.737605667819134 -0.09774794287545102 2.5864601033579393 -0.4203339721093471
Ni 5.092412543492762 6.705395906920926 11.659455595094576 0.03308392703816238 -1.379735974536856 0.18251747121336306
Ni 2.006641917186762 3.3727769887043713 9.535870111310999 -0.1517616780877451 0.8401375256365209 -0.5649248434802658
Ni 4.6832714719138435 4.744227508221407 0.6532843292196077 -0.42979383197066623 3.130934906513969 -0.6467710275237958
Ni 2.481275245093697 7.236792282486662 0.9636434120259317 0.23733801859766865 -0.4947085303661803 0.7332390266100532
Ni 8.83494248474365 0.978209409318602 5.369496736292203 0.37786937518723307 0.20192312943348453 -0.7137102125485063
Ni 4.517713355952639 0.6843309982675687 4.467459644875335 0.43225103526190717 -0.14501638894411154 -0.7728599834357851
Ni 0.7788346543746558 5.201096293512456 1.6432535874542191 -1.259665456904805 -0.344134187718317 -1.5094527570094196
Ni 8.396469045670512 5.070223099139134 3.3307552646335097 -0.16912356640496032 -0.37101352860766423 0.31615981399257803
P 8.010343029041993 3.1134517726066804 2.0434261160560943 -0.20895946745497557 0.2464258398315498 -0.24437024285410175
P 4.4003375033579655 7.968849139161649 6.659921460781327 -0.6366717343062648 -0.7310430473999991 0.4305389376668069
P 0.8431710558671948 8.219445146590123 5.4890841121033915 0.6991364284993895 0.6364699027081039 1.1813650812310041
P 2.7562406799122146 1.7608233193912797 3.0903587948583846 0.09155544091149394 -2.4682202111767237 1.425621681325377
P 8.936715224711733 4.067495838053542 9.402433813478268 0.6073254199336637 -0.30909982182200313 0.9713671452091852
P 3.099824559498202 1.2050946225297388 12.371208924655523 -0.5842919351529678 -1.9283746792625884 -0.4367023861650414
P 8.353101298031211 5.251811047810652 12.690407606761418 -2.23439971881401 -1.0373627353737036 -0.7494117797151738
P 7.7837082819669545 5.92687294373786 5.872121974039051 -0.553158446972957 -0.8190657925678861 -0.7135240646796291
