# total energy = -381173.98096391466 ev
CRYSTAL
PRIMVEC
9.22524404102547 0.00000000000000 0.00000000000000

0.00000000000000 9.22524404102547 0.00000000000000

0.00000000000000 0.00000000000000 13.50207715599691

PRIMCOORD
 96 1
Ni 7.816632413295017 8.221159370193842 0.42152262423507825 0.5820062244425849 0.7442772867020859 -0.9707125423443217
Ni 9.113019075670486 6.48065100293757 10.077545106957764 -1.1145127994931452 0.7389077948600564 -0.8788488261637897
Ni 7.960896781641285 3.8914662981691572 4.101161633322737 -1.6458803758432556 -0.9819829730518185 1.4778022199836742
Ni 0.6456157979663537 1.0428585020677485 9.957566193891683 1.4380190265484654 0.8556227657563135 -0.2603360221547387
Ni 5.369202810458356 7.636933882087897 10.326834267568904 -0.7107434166106985 0.15814444168563732 0.7868123318508191
Ni 1.5156153648553696 2.5589628048641817 5.8693669511536335 -0.49305479681284126 0.06551453676304202 -0.6990533818672799
Ni 8.824047527257742 6.475051279725767 12.384861701325113 0.024991379838015026 -0.08867863358433115 1.0411458565652199
Ni 9.11533461195741 7.316181367506021 7.041535700766441 0.2095104548624392 -0.5725718185025623 -0.5332264839357205
Ni 7.280673402691801 5.824782268599555 2.942291995706858 1.4014108884071286 -0.9011019811350353 -0.5130289259419228
Ni 0.7965002015297384 2.967004579792162 13.141342793641007 0.3069555217854907 -0.27369264596730286 -0.7382321089492705
Ni 6.072304794951947 0.7048095771896447 10.363830264267909 0.09987347385888606 0.1525720898041824 -0.39667262393666525
Ni 7.870839948043876 2.529423573028605 6.747082512267283 1.1526211763290923 0.6816711818350906 -0.34171272276101794
Ni 5.681809434437229 1.704963501465367 7.09890657174154 -0.9427196566758215 -0.10927651234034083 1.0193215616012767
Ni 3.782562290730375 2.9163487640491415 2.3657935721185517 0.0462006669257785 -0.10584897471603061 -1.0921717127937836
Ni 3.181113271757152 0.9948042051809531 4.709456705995266 0.8088140329328909 1.0091549054809201 -1.4940289662551816
Ni 6.875528354433518 6.9909915104778895 6.4235190657865004 -1.7782459087925762 -0.7820485919135887 -0.29774968691650655
Ni 3.862600509158064 3.175116863045995 4.6684920092538915 0.8806367713021479 0.8108886560737325 -0.20765848925536493
Ni 1.5371470847505089 8.873596313700242 5.255750757643265 -1.942249894582784 -2.0761452339130693 0.873531013495302
Ni 0.3955083581972448 5.226377580202766 3.457193463965325 0.6887728258768783 0.4259379485596858 -0.7380444184184967
Ni 8.135512203310178 8.693279691133663 9.202138624460119 0.1879494408622118 -1.7252187058632675 0.835583073496619
Ni 4.8788995332574725 5.381749142530931 9.78245722165964 -0.25045115894085895 1.4267038586459624 0.5711934500977969
Ni 3.3497138342265464 8.55579587725309 11.446318570245484 -0.3445468497757034 1.161777903127696 -0.3494165191631789
Ni 7.809510524794996 1.6087995562267499 8.941426766516432 -0.8638394972391509 2.1799913192664584 -0.365286653426216
Ni 0.9017168788733683 8.289029491559969 11.131220207816023 -0.3012751835712618 0.609989339919072 1.5902648433614806
P 1.175360684095977 4.53308203026296 6.945185405595569 0.01153474011247691 0.3622422101729374 -0.545988154476763
Ni 4.489520427287447 6.152878077541556 7.377265399259953 0.6149492550275086 0.27724231099177415 2.5532298805498996
P 6.236901601451122 7.095873311458112 4.306163164242104 -2.294273255241191 -1.7373311728560854 1.4541650401807085
Ni 8.490979311707568 0.8698307449206865 11.967161095750084 -0.23119565314535664 -0.6204750699417443 -0.3667488397940394
P 6.454921796944622 0.6009010394694642 1.0299745260585147 -0.88577563519061 -0.1434708988338626 0.3782154456727421
P 6.366793039378955 3.756759282784057 8.331159336640141 0.09753968351938685 -0.17927608145792998 -0.3214331465763755
P 8.47750122997372 2.69329158523827 10.766826753158762 0.6917085114664345 -0.476620819626534 0.33004119996036063
Ni 1.1670026128770412 8.069985293963487 8.647580599083728 1.6445390313240127 -0.3612191682250617 2.2219800049934184
Ni 4.401548498872688 3.338652766465504 9.354387441636396 0.27895980790351316 -2.0459679389987406 -0.8359129460322119
Ni 6.3926882997669825 9.115805099410132 5.025203603089951 -0.26208694340757444 0.6344814115231654 0.5085210107692403
Ni 1.8587206460636045 1.4419794658823613 1.2350350985405778 -0.5831701628436989 0.6170976688290791 3.798801321255483
Ni 6.684289042768464 6.5963263395978755 8.700023344622672 1.011002243102304 -0.29634509325949604 0.24398354893864432
Ni 2.3764782499174166 1.1709048911613789 12.709033091396764 -0.2910995285898406 -0.6843181325396344 -3.5552039520116647
Ni 3.4375289334903982 4.056607394074422 6.651285731746673 0.03457182443759853 0.7265191913877165 0.07208524800202423
Ni 0.705314198045799 2.9809346984903886 8.347928985494205 -0.15189023324580936 0.07026773517731123 0.7414938104196779
Ni 2.1217784835999782 7.350102590322828 13.325631806347621 0.9770284572600206 1.4410094766353572 -0.745715047589877
Ni 4.577206373132905 7.851236304180479 0.7206437862847678 -0.13351430184178298 0.900729428286965 1.256103193474843
Ni 2.8630822042057247 7.942649248671025 7.022214349374676 0.03429928750250222 -0.8106060918363073 -0.13363951456573758
Ni 5.155564605946087 6.186826976090876 2.3174016312950974 -0.5330801881658432 0.015454386881857258 1.351827421052046
Ni 3.6595805606866287 5.598708434944764 0.756157286245491 -0.3408742860201226 -0.5445876745848105 -0.3613230407927777
Ni 5.208480606511006 4.688075357580114 12.495537878169147 -0.17197054893545224 -1.4968620648286028 0.09122633970684935
Ni 2.8949646480607383 2.2158667489001176 7.818337238417819 0.26280119586577966 -1.5026280207781022 0.004900008404778658
Ni 9.125860615556531 8.8151820676094 2.537053772482448 -0.013883957070943831 0.6448691825153926 -0.7818524167423825
Ni 6.327364345792055 2.294428928260446 4.9260036299946535 0.1354644835896183 -0.4732603877947334 2.0866175941993035
Ni 4.2229016455010635 1.1230904506230297 0.5642057857304345 0.9832389569461065 0.1473640632406817 1.1910110889612004
Ni 9.132253709767044 2.9880473617462373 2.3316195776114594 0.3499921891609908 0.8227111026299572 -1.1656692677623022
Ni 3.527678019529516 0.31821834000809895 9.254863662470695 -0.8313029580640263 0.7163396797515533 0.5732680732386385
Ni 6.772676107170918 8.162938854230593 2.634349655180848 -0.05646476785594792 1.240913115997966 -1.6182001363191678
Ni 5.284044581515755 8.578148643879448 8.195531641886774 0.9827496760145139 0.021956192556117023 -1.805570050528826
Ni 5.301507968731479 1.003909521177741 3.182777505805603 -1.6184657312757287 -0.11478021576738943 -1.0816206767508145
Ni 1.7718926479260504 4.2449315285814375 1.4542951668506607 -0.5365761171342436 0.4775991243794033 0.33591154269820855
Ni 8.403173437687885 5.125093624449239 6.298692286908553 1.2095145470820265 -0.010066383097066535 -0.2509183283852646
P 1.0486427301629722 7.2879613455869 3.548818589071805 -0.3992748374462026 0.43528776520570195 1.4620904656753722
Ni 4.101875667221572 7.8876667934118005 4.5124211734175645 -0.04057920697394302 0.49703023652082134 -0.03916947111060996
P 8.741952079379917 4.961280963704599 1.1841966229629712 -0.1921763344593658 -0.06853249765375939 0.2665264672361668
Ni 0.5677575047362735 0.6821662153718986 7.421106527133847 0.19824259525810375 0.5720306012871116 -0.597008611388688
P 1.7317812862704955 3.3917440466696718 3.4304863820902485 0.8449969106113512 -1.0448490164484199 1.7709856276857372
P 8.571100557332796 1.0016308858675012 5.247150062502631 -0.5596383982703458 -0.48121409542417126 0.7246322587776488
P 2.540475415545476 2.3908880813125353 10.09835172266106 -0.4887841944619453 -0.38942519834563255 -0.2839832292600335
Ni 0.569450337041654 4.344010650978094 10.934049986673426 0.08832587823060271 -0.3169738252534412 -0.7409001426997369
Ni 7.621795256403268 9.082834076742937 7.056712149952171 -0.740526304300086 1.3544712864327964 -0.7226159996785685
Ni 2.547791034173087 4.883235398017848 8.574426257856446 -0.458295796065101 0.7477369631159122 1.7174447183448034
Ni 0.8644441248492333 1.295251957342434 3.761799956199097 0.3075846707290574 1.259990187234075 -0.5206769294054839
Ni 7.981856536397821 4.212615498250386 12.844607279733939 -0.6650970795264932 -0.8579282739610385 -0.2620769161052454
Ni 2.8169375328623283 7.18091161222649 2.466883797744489 0.6576002569288159 1.0928317149752858 -1.44548216769473
Ni 2.058216551261714 6.308028234009616 10.76635349813279 1.5909323017421504 0.5891230379930242 -0.37992497216468113
Ni 7.504514727257208 7.857149685694097 11.26626855723545 -0.5052508246584008 0.9313268414578476 0.24215986546634424
Ni 5.637648190590601 9.064632669993534 12.495092298875687 0.47946780215702595 -0.4179253626678544 -0.22882175359654142
Ni 6.309559624542004 2.2408579353593865 13.029099247812317 -0.7169752564530234 -0.45482069303230704 -1.6168037701922735
Ni 6.173588750705474 4.521937935304379 6.241092629878013 -0.32304008605217915 -1.046930838678113 0.7790985081463292
Ni 3.0661851798746995 5.120969940304797 3.2764681630819714 0.5371258189901265 -0.2549233357795997 0.9548457505153942
Ni 0.5058376658604489 6.879818092973038 1.3822616927901565 -0.29792040816641596 -0.8252135573368368 0.022730608828296337
Ni 6.697084456433656 6.102286838507732 0.4593774911664041 0.10249034265644284 -0.09780502136563156 -0.2754710780239643
Ni 3.0702166115774308 4.222394257071658 11.301090163883346 -0.22300694668697724 -0.34109951465705124 -0.5946005161678275
Ni 1.8007768874254855 6.048808098048383 5.308639082475671 0.20216224202748406 0.3609265766853074 0.8532912894096596
Ni 8.325072520536107 7.628871018682434 4.661025096621875 1.6547941333931175 0.08278360825613484 -0.24403548522250232
Ni 3.2623415466829027 3.384474554262915 13.491896536992915 0.909835247242975 -0.9681843766058295 -0.6322355529117821
Ni 8.296446587873461 1.7186445385709759 0.5968530023272246 0.4463291106215281 -1.0048884168950822 1.128179241236644
Ni 7.5139613772883225 1.4414997531854687 3.0058188721172727 1.1104969934655327 -0.3350939318929197 0.007311703170064827
Ni 6.478215538476424 3.308643047177206 10.646779573285817 -0.6970409794229415 -0.7700518245630287 -0.1811067069087655
Ni 4.23938715683466 6.75270345354068 12.293222738352375 0.7570561836343092 -1.4624943859820103 -0.7990708375031981
Ni 4.398079807064388 5.689466387099169 5.330768598193091 -0.021897828514355837 0.2673088539281461 -3.479705821673349
Ni 6.834688198488453 5.472968356893887 11.162747479770452 0.9805218151252596 2.190958359800923 -0.628138242913957
Ni 8.316723674561343 4.802044024068782 8.851529529643184 -0.672716543744964 -1.394758158977301 -0.713463643755339
P 0.8480665488724376 9.110399106325918 0.11645579231717235 -1.6026886709471302 -0.4099228040783521 -0.3674021571073221
Ni 4.281786379044625 1.9679752127808856 11.448330595999183 0.19880720951232211 -0.21428627898452773 0.2814486357636379
P 5.889082220471501 3.330820534164316 3.297679767004377 -0.9236875797450351 0.9972301290188761 -1.9231735946776236
Ni 1.4063976991147724 5.246110377484559 12.92260856424867 0.8146074996862164 -0.6761574511057129 0.2685998048254277
P 3.9018908240823995 0.4538930835067382 6.5653848706483044 1.0381718615385604 0.5490732211599899 1.3237897981885396
P 3.4871607471304364 7.229814631577018 9.11413164011751 -0.4895084742224795 -0.34796744542147817 0.5998849044952185
P 3.390258782358139 0.10590672560762146 2.662879645304116 -0.3185825645014578 0.04330123389079639 -0.8975471739042413
Ni 5.970098314781318 3.7527647520580096 1.129745541767997 -0.4073714984114081 1.186465635682363 1.2273351202032154
