# total energy = -340856.8430863267 ev
CRYSTAL
PRIMVEC
9.36470737195059 0.00000000000000 0.00000000000000

0.00000000000000 9.36470737195059 0.00000000000000

0.00000000000000 0.00000000000000 13.70619583797445

PRIMCOORD
 96 1
Ni 4.152573400573492 6.77627406238392 2.0415792223259372 0.6616356033404541 -0.5616304889997102 0.9227169883016496
Ni 6.86229826306062 1.4363587959713011 0.7220591961938323 0.5327127775240954 -1.9293717530685355 1.3121136474021917
Ni 9.107262070095542 0.8614453716469295 11.559257078837433 -2.750435549903057 2.3379295584785607 0.06022911999438659
Ni 4.696307032153135 7.082743471413498 12.978095444039516 0.2560924163870364 0.4767912837661272 -0.16005040045909855
Ni 1.056385799840544 3.9935981305225803 5.598678983836792 -1.5783884036388687 -0.28641137908555186 2.881979101171714
Ni 1.4683580005992445 3.0520142766972413 0.3556556608491125 0.8834099631719109 -0.6793178511115655 0.21752406919553505
Ni 4.164925449418753 2.1840932099961057 6.442884865931606 -3.725016574063849 1.2133344350487492 2.679397512218624
Ni 7.361128123440093 0.450019133320131 9.55568545730253 -1.2817453195229798 0.8762880074151488 2.047747399496667
Ni 6.916473094425166 6.281714508504402 6.998095882700598 0.45499321405442933 -0.045166569234309305 0.05110376065435069
Ni 9.449270543088552 8.14048715380337 3.3547424851857426 0.6276088527730482 -0.5764503276213621 0.23046083186186114
Ni 3.421423883064955 1.915410394666776 3.8703276797531903 1.0766982997485328 -1.382349500900303 1.4197827060460968
Ni 4.375060115103979 4.315472482956597 2.4341102908611636 -0.9743663370468252 -1.2277858345873887 2.07111512768833
Ni 1.397130037356594 9.502087491903769 1.9675793057412116 -4.420846306787509 -2.0265262853343615 0.6522176524606638
Ni 2.4639106622299205 8.000569062979226 3.884719361834614 0.7939435435789617 -0.5478010393157856 0.38955246795211623
Ni 2.9954420802800907 1.1682659571978862 1.4530485772086206 3.68700461359645 3.2007226167310683 -2.4435679598456823
Ni 6.6867287317862045 0.4678560911939511 3.279453984885241 2.4831590918747426 1.5842716018925231 -1.560735466443796
Ni 9.139176992358355 8.492141275250223 9.47105004270904 -1.4872859911043934 -1.0898428075502908 -2.2753026276759587
Ni 8.741233123040292 5.336824913024495 3.819491366518543 0.49553076915715955 -0.2828087493359581 0.0383199786261211
Ni 5.081505534921994 9.212474555900323 10.708568009922624 0.9358949204445043 -0.5875695774629752 2.6571003913833207
Ni 7.815606730346359 0.9316666288616303 5.502708527603949 -1.0002123515756516 0.16743075208356972 0.7401614647614995
Ni 5.196382398595093 0.36755633080556266 5.107257543352308 -0.8550206133959405 -0.13696677916675767 1.1674638977688796
Ni 7.438209028705706 7.931307688256291 4.8435914016897 0.017137945231867256 -0.7320414067575264 1.2681166729959514
Ni 8.238760391545728 2.9115530328533663 6.846367959580201 -0.6059730196708273 0.7562529710067233 -0.7335946101772591
Ni 7.822152660704841 2.86398968479796 3.8791960575063835 2.6496400784505334 0.6784717010611864 0.706003845043184
P 8.537485187690523 0.8621898658722503 7.787037817979234 1.039934866976254 -1.0124996535834367 -0.713121687034888
P 2.670973703941496 0.8135018164777114 5.99646084371966 -1.0958607316095965 -1.9268153051952688 -0.5192137145963961
P 5.973568816879448 2.2267681808739335 5.838510072640449 4.551109448681846 1.2373333690665078 -0.7609886859194959
P 9.256385668133403 3.7841189943439257 10.149807769110907 -0.9392700075643243 0.48760945742755385 -1.344999085276303
P 4.929188571716405 0.8300876494647029 12.859523266890799 -3.0649894528610955 -1.07035873068375 1.0135970004126735
P 8.230144860887927 8.060793495218705 11.46325852848288 -0.09613020476636992 -1.1922683584070692 -0.3646451631874752
P 3.8683451712311725 5.916912338097165 4.143382876891355 -0.14222417091095507 1.9764334824430285 -0.27536334880150637
P 6.930108108161861 4.308308481920491 13.25079384583196 -0.03113323106969477 0.37705536392636996 -0.7849433969628804
Ni 6.750052882121046 9.219263968646962 12.569458951998543 1.996321993836839 -2.689254607518362 -0.6553986212918067
Ni 6.327648397500616 1.178342382184619 7.6530597609553555 0.28779720368948497 -0.3342665508956178 -1.619559992781172
Ni 4.743495791919072 5.452282388546271 6.921601208108005 -0.6777021698850135 -1.1585115736715983 -1.69796681212585
Ni 6.445353402759211 2.063241663105966 12.281669324494091 0.08643740295863822 2.9122199023341264 -1.2182704388977856
Ni 5.705241860425113 2.6660478679349704 3.784033775508071 -1.8934022769524614 -0.21378157143396734 -0.22597965616205598
Ni 7.2924941841020186 6.631701712063116 13.33028990909393 0.20240675393812238 0.2094775447419747 -0.36647424597641404
Ni 1.4935677924805506 8.892192203696553 7.943508028844317 1.3320353260267834 1.6655829964785058 -0.8339385959146605
Ni 1.0244708775777314 8.688931233123094 11.080088421301499 5.29161261305348 -2.17087213057401 2.5940209464243327
Ni 2.7003788846648615 7.765336981899535 0.6036143790635349 0.8711182902887513 2.088002390361972 0.3082199903202111
Ni 9.163000807568624 5.088294947668631 7.830281226586332 0.07115605131953551 0.060366416903199265 -1.4490390318080528
Ni 8.275891455739405 8.77272663347745 0.9365278483882223 0.6663592340683685 0.9416189674124752 -0.18440388960279855
Ni 2.3980486762339224 5.980873288524105 6.315061294503713 -0.9859818097985665 0.430931030898903 -1.3779842819530719
Ni 5.6832347984187725 8.838092289989902 0.8850416244713453 -1.5206069738540262 -1.048922415186845 0.9770297428116013
Ni 3.6527134223979787 7.417531755126983 10.714187770735393 -1.027018158914586 -0.4591288334893577 0.19797468630869777
Ni 2.1408563566840737 5.088444782984419 1.6833126810992216 -0.5999041877689281 0.4610599890737995 -1.8890090329807723
Ni 2.7130025100199884 2.0128127146361168 8.96851175826382 1.499315925685734 0.11181907625653646 -0.08927924328280752
Ni 1.1143439729287328 1.834770900651201 4.682215020703287 0.16521600382043805 1.0476941992066988 -1.2408059009961405
Ni 3.899473458086099 4.142103657882815 9.345076000960402 0.6775880129046524 0.1685466108555678 0.16678643363135146
Ni 8.440513644254072 2.363333706507324 13.257262985591101 2.040999282139556 1.0825470452198258 -0.23799930633075136
Ni 0.4552980187894818 9.18099977487764 5.515113018809736 1.578988499116713 -1.1454796801883045 0.21211472525450567
Ni 5.493665029825429 8.034253914909783 8.715851957016552 1.419587045095523 0.1147046253344476 -0.0075700990377740585
Ni 1.088029145593491 1.885743002140781 7.188282785500844 0.5109309057623136 0.6352388585144801 -2.2562700365245405
Ni 0.6714186053404329 7.482335529205228 -0.16118627742950603 -1.8041911679034282 -0.14745996538859765 -1.058089426398094
Ni 0.6148810583400578 1.6477576971334877 9.32806688320631 -2.7928510387547902 -0.2860318842589461 2.6499704652067586
P 0.6713989394552357 0.8160321603730787 -0.22231440391733148 -0.9312111418155898 -0.6625069502018138 1.9876884865315574
P 9.432788658351889 6.213417698626852 1.5061876719527825 -0.46225143827873943 0.21852140011179785 0.7687960977790567
P 2.8106764064991947 5.877618026531802 13.4091135863763 0.8662848734558499 -0.38531091906694287 0.45584013543575685
P 3.894912845661806 9.02337302266882 2.4965972363690403 -0.2465024587057561 -0.7244728503816491 -0.06291823679077552
P 2.9879222203689877 0.11347028464614071 10.324808862656052 -0.7355103391427333 0.6004443765431142 -0.6052464259174479
P 5.805116463104954 8.17720617087863 6.615199224970532 0.3048096790870815 0.20614025283862564 -1.42104434636734
P 0.3641063726595473 6.752749917805227 5.173129830526265 0.3195336155608175 0.6786665906808119 0.5614872785536266
P 7.385176691624043 4.620396715292114 5.485658205138015 0.5684210295589823 0.19236839586551388 0.41474336539544704
Ni 4.25044395590467 4.006446508851388 4.885449770096484 -0.16793674518571078 0.3267183062347147 1.3320093578848544
Ni 8.28966694008465 6.207986168429542 9.713430204822536 -0.0992522953351194 0.42267958952338813 0.3621481077972344
Ni 6.115762531562119 5.639801286254769 3.938118795439957 0.11777555095028748 -0.20134437411187905 0.4162793424239992
Ni 8.814558780703972 7.82913873230345 7.176577837925642 -0.5498142130910725 -0.47748368184746154 -0.6178826266242198
Ni 5.691119881912109 4.1881311939513965 11.204431131049496 -0.5607151762742925 0.9214270658456324 0.9249399640948974
Ni 1.6687065472220768 5.0230603970574945 9.146075972179661 -0.09800916695663767 -0.2884579772019355 1.226220546982798
Ni 5.01956736125819 5.0736672749648415 0.5508779667305529 1.1839775791531866 0.4317566121239919 -2.662235141506725
Ni 9.004980737655858 4.568534966615044 0.15986679017984926 0.5856528200562365 1.2495358246699706 1.2598050678064627
Ni 4.9281303597986525 1.484343555852361 9.354149465802081 0.2286806000329868 2.6223195362587095 0.2703468694235215
Ni 7.697012077900274 7.169123530965195 2.4934310288522985 -2.2155388773537648 -0.9221917119257989 -0.8558109705077198
Ni 1.7970498599016094 3.3899491020422694 10.947124562071359 0.6520782986693221 -0.32014245278940995 0.7430711822091267
Ni 7.3341952254272265 4.6909410549064825 1.8377816540278131 -1.542350793289021 -0.013670298398240974 0.022109944525161924
Ni 2.0762586061650357 4.649942366624032 3.8669975898598055 0.8150628420560802 0.47177814682225205 -0.34419152331881364
Ni 5.877618026531802 6.503545693528318 10.584664504944032 1.6801832628901836 1.6665080793959361 3.830528991376067
Ni 3.5515183959977583 8.109883290553702 6.28276897453926 0.01071404398339445 -1.3729618890378161 -1.9716165206703595
Ni 8.96224957853461 3.036899639217142 1.7776658523922795 0.6700932471895039 -1.5737717308024637 1.9894396648947095
Ni 9.038431471905497 5.135034201487204 11.83359992322065 -0.7735143291903324 0.39059402184275316 -2.1234998119376334
Ni 1.703552622849989 6.216685981452475 11.680639604627896 0.3424737692967586 -0.07923805699672161 -0.9893476409470057
Ni 2.3520211401653413 1.446004444425144 12.508520929067624 1.7021718513461328 -0.5339340515257063 -1.2474280342983486
Ni 4.095373768771479 2.8254820086404817 13.770614697482586 0.6953394233508025 -0.07643426899933933 -0.4102974138089515
Ni 3.4388141444035827 6.592969282931955 8.482518102093747 -1.9811861666366655 1.4638462720242145 -0.06845947832397888
Ni 5.4346767389411985 8.141217600967837 3.5692991656281574 -0.9482979220945474 -3.2676574308804045 -0.17467354968891205
Ni 3.837610202080189 0.0328429647499736 7.965424253190462 -0.5222830975503393 1.3663520970307823 1.2572843582671378
Ni 7.131608513774813 4.258160474667744 8.570538858353322 -1.048848110305484 -0.053942001434094194 1.713850316125326
P 2.090230749362253 2.801171228653903 2.6641552606024246 -1.98586660283147 1.6922949585520533 -1.8810357849673085
P 8.896705992584662 0.8446057550938222 3.5795235529892313 -0.49580664852636536 -0.11667743279010229 -0.8352264614881487
P 5.848709175291982 2.790401815331651 1.724390032922461 -1.169379626734354 2.2626929093317485 0.2463451071922854
P 2.6723784100270067 4.154530624385971 7.423700287783824 0.5174077717359089 -1.2709826816898369 -0.6531360505098751
P 6.585196575925461 2.558503570028239 10.257963582400198 0.5100351334209217 -0.7616196346352754 -2.515466802868513
P 1.086156204146143 6.948331828444559 8.419373754137853 -0.6671066537573543 -1.1845877019333597 0.3685118452317331
P 3.5517618783859137 4.19404032421778 12.035561072429648 0.05870188471658277 -0.6551543664914845 -0.472929743928192
P 5.356603174708491 5.883087015558058 8.853640513415062 0.8781631129506747 -2.5941451307070222 -1.5272548181878471
