# total energy = -340858.06647327385 ev
CRYSTAL
PRIMVEC
9.43586379904167 0.00000000000000 0.00000000000000
0.00000000000000 9.43586379904167 0.00000000000000
0.00000000000000 0.00000000000000 13.81034046162251
PRIMCOORD
 96 1
Ni 1.3730974321873164 8.22555366552097 10.243322507650921 -0.7724496353712439 -1.6444356729769294 -0.491992674096914
Ni 2.3908024985261656 6.186642827455373 7.718944037124329 -0.2536627238996212 -0.12874259148475248 -0.4812498337581131
Ni 0.36888942511221096 3.2052590633682017 4.516174154568331 -0.21689749135512965 0.7225177835378073 2.122311962277119
Ni 3.3928817747777944 8.131393182863741 8.836049321165959 0.3141569246299364 1.1520599045089837 -2.0685154852819534
Ni 0.8297653099129936 7.792372040325254 3.5450039366432162 -0.6605523975786044 0.06734696198609047 2.7284708727065072
Ni 5.800517853929324 5.985451344218832 10.716381979505217 0.5238792383928655 -0.07566525204379872 1.2174934515224451
Ni 8.72191783324327 4.619355322807313 6.798388735024612 0.3627240349053624 -0.47413687686241573 -1.3448985551426966
Ni 4.681490484476603 5.48625641742276 13.067178303628125 -0.11308328768094074 -0.022592797698851416 0.02006488907067512
Ni 7.254688225989463 8.23682952249816 11.229173985718976 -0.1274611536691676 -1.213433936741091 -1.3131235767239449
Ni 6.165251724721237 7.207442857048213 8.761031374951934 0.8540088843019744 0.6952286088045511 0.1317158151804635
Ni 2.349596082275628 5.69921442254261 12.306310838811664 -0.2678634408800355 0.4395462833717398 -0.12797100342605056
Ni 3.2423986224160872 6.539091203867117 4.3816895089052235 -0.7864186959568262 0.47596981630609636 1.6927857821455428
Ni 5.69661012419474 6.753228691934372 4.717528878244791 0.27389884844083795 -0.0009088849675145637 -0.3220792648008066
Ni 8.263278248110767 1.6223552044965004 3.5051751564752474 0.25536170886859894 0.7630134296590085 -0.7560418834371818
Ni 3.435843261654071 4.601351695098124 3.1360243579418916 0.9819778308454961 0.08086556529781558 -0.4887667109604485
Ni 4.317322765499443 3.062909625411798 1.6199254696248464 -0.4586506083013585 -0.8631766668441715 -1.1924102833015722
Ni 6.763674192916591 3.3559592405922314 10.845357024424409 0.13421621300481398 0.546808079274897 0.4618719434521336
Ni 4.9823907381549635 8.447692765903419 10.580584805218239 -1.5229772738584157 -2.2030962807150383 2.472218533702839
Ni 3.7764685010010286 4.622780541286576 10.756542902071176 0.20418801420826124 -0.5790921361195833 -0.5799909937847688
Ni 0.8083374073108992 2.4426997482119814 7.256643336923082 0.10622949798390091 0.3690669464042547 -0.061890823967525675
Ni 9.304705075487824 0.10552220599299045 11.435555193924095 0.14505624104311146 -0.10699620094659638 1.3483718584032778
Ni 5.591409681149803 4.164792030741041 9.11443749151697 -0.6378917227562949 0.5967255329306304 -0.7761857053749084
Ni 9.37595528137466 6.7272140160464104 13.626344748574768 0.2938382676772423 -1.7088348651886054 0.7044848372954964
Ni 2.7718604133101636 0.47172901508962367 10.838216906453997 -0.44637101960305703 0.6325397144157622 -0.009760678931189641
P 5.728399548593197 8.722078242924118 12.69150921053423 -1.7680255166161485 -1.2678281952212553 0.4186956651749757
P 2.6090728948411277 8.116192006637586 6.052616764762216 0.7667597840753182 0.4734519349802492 0.46254428692880983
P 8.244359341634393 4.90082713337602 9.722673257834732 0.11351240479855935 -0.1654674577096118 -0.5595373539161074
P 0.09924924388551219 2.4376138177427715 12.419362863940885 -0.7651515590479339 -1.1375074606161055 0.6694910948291308
P 7.157659240804146 5.570839498547061 12.708137089333565 -1.626327650522309 -0.4166123002833857 0.36864374282390705
P 5.7289845721351105 0.21157848186456585 4.940318109627852 -0.29257508469410254 0.3533248530786496 -0.3580374280629705
P 4.466928382548282 5.056613241069259 5.928765393766554 0.33239247380135656 -0.12041196013187003 -0.08993847413336123
P 4.982466225063598 6.122224186799906 2.832473570184123 0.4127134794496118 0.4141460981310803 -1.5451365835642743
Ni 3.455215089582249 0.32005128239878444 4.275502074529897 -1.2206533373076656 -0.03239204317746034 1.7243818117842686
Ni 3.566416741863584 3.108975511405644 7.969256738981672 0.9780121613295286 -0.7456487131283158 -0.7590660149754862
Ni 0.78287567302868 0.2051592638716094 5.943791062930135 1.9533205505746487 2.0297491631470335 -1.3883607400913895
Ni 6.77967741754698 0.2128457183432577 1.746732153093527 0.6617279059439442 0.4523136103397371 -0.30357195002523846
Ni 8.089696101707082 6.606576500185836 4.5431597808185975 1.0589126936303375 -0.7177301323411768 -0.1396425262267079
Ni 2.9714289280110737 7.91458534540356 2.467438695344031 -0.27828463621335947 -1.1977100982479307 0.3714151349214571
Ni 7.757280063674063 7.294951055882078 1.8545765251133681 -0.6860279161418894 -0.4350617652378249 0.30867764668292
Ni 7.776585840557186 3.1016815888588924 8.414791796775328 0.09164877195624861 0.1250628286403201 -0.6374168400024054
Ni 6.302864359160862 5.543852928710437 7.0231245850640684 0.016626038592455237 0.3401088686090078 -0.3304410065019406
Ni 7.556201810800474 1.0825105774010646 13.392922242524264 0.856741452741789 2.562284277442684 0.008232415212121305
Ni 7.645842514803247 8.386001089822352 13.45930920432236 0.9444263549542832 -2.230787575982719 1.3393035775534223
Ni 8.855076740073494 4.523345410888553 11.836815292631245 0.17763674608229407 -2.5149685230758556 -1.5073238835918752
Ni 5.633418145804576 8.052065877753076 6.5540555399174325 -0.8665553535084173 1.5200649853076271 1.1683162184668459
Ni 9.152627262181225 6.541648322897091 8.048873725104219 -1.3257479503561749 -0.05130147848745359 2.809800522124935
Ni 6.00136964607701 2.9476222442006534 13.056074179368077 -0.6881079385993698 1.9433171595050338 -0.7848140704738676
Ni 8.930724058388256 0.47955512034224473 7.751357172105374 0.27470566061284946 -0.6418424798739268 2.2749935810759725
Ni 5.586871030768188 0.23088520233404727 9.042278611967454 1.0105520429387629 0.7077794488863681 -3.008636527992664
Ni 5.071002933027598 1.0130154421399673 13.619218784399727 -1.4889474379672163 -0.23265321152748963 1.2223970594716496
Ni 5.32587504416643 7.40169898055401 0.8278403937428288 -0.2181028245171405 0.2321729294569614 0.15612612570402787
Ni 4.977993625727037 8.790403331101388 2.944571629505485 2.7106379582901448 -0.6361641985422269 0.37948531352410125
Ni 0.5991207221002168 7.458465135846714 6.286397833628732 -0.47181414226651003 -1.6753146219439725 -1.9340491039395467
Ni 1.605021523101438 5.824418896375537 2.517086435152556 -1.4770987661587465 -0.7415912552294907 -0.7944472226882575
Ni 1.221916025920745 5.293972389405022 10.338876667358804 -0.45587278844590523 1.6522654534339931 -2.387952684474223
Ni 0.5727371039463061 1.3227099206741788 0.7322617007896406 -2.49719757224568 0.32724615371372673 -0.45711411705217403
P 3.36007327711278 2.2726749223776697 12.0605981204492 0.11977509787881954 0.13949134536082428 1.1330782212001582
P 8.357108475542722 2.1820906320169726 5.868179600896974 0.7358954903962939 0.4285522462540813 0.205997042392542
P 5.728597701728361 2.190573473374709 8.306325601345616 -0.8350086890503877 -0.23287998282631509 0.8354090098125999
P 3.376246347287596 0.3996041046489926 1.9004131196222385 0.010538694747794754 2.0486933083497036 -0.2057579297985424
P 8.792432041770926 9.053182695919622 2.432636399704723 0.12146534109704887 1.6535931711064813 0.6860459138640184
P 8.894697931242721 5.522207057659662 1.5106855333816356 0.3360256996785697 -2.2093255494542015 1.3198616667787268
P 0.8575331692539788 5.48229335471948 4.672286743141413 -0.16188899632973408 0.16680340291221596 0.1109479865054928
P 1.3944130480128178 8.237386238449334 12.948740287567873 -1.256227120647217 1.3787756675061158 -1.0513171406712667
Ni 3.3274534967193494 7.877341991856302 12.290291573213189 1.8408612696309523 0.8451717456263186 -0.19965875887934
Ni 2.5593175861877993 6.920262349014067 0.47349823951073106 2.0474735770099897 -2.4791905941452983 -0.2607399424613768
Ni 2.6667354571738593 2.5826902202735753 3.5992648701556313 -0.9655641653741629 -0.5989965883529942 -1.0747632875093491
Ni 6.03832048785331 4.374636200879742 4.499160348948605 -0.05994218488158709 0.31961306264850115 -1.31269754493012
Ni 2.535548645831696 4.031982250863249 5.537587515293821 -0.7431169478453975 1.7654556990064434 0.7093611915511913
Ni 0.59637866014409 3.1557679588950918 2.391440362904122 0.730471234056929 0.8204531598337161 -2.6233490059644886
Ni 4.292346034605197 0.8181403259833708 6.7460338459552025 0.9122867941072612 -1.0779913075283436 0.6846207513817177
Ni 8.266627979681397 3.720438343067506 0.08835742655599635 -0.8884266996602119 -0.45705241057630314 1.7356740968686364
Ni 6.9085241347214925 0.9712900533925715 6.861515605956081 -1.0130930641930618 -0.7990376702724175 -0.8698815896681727
Ni 4.431572201716873 1.9445899457275206 10.333738839639908 1.6996172032450794 1.3739332518121499 -1.2038738038564816
Ni 5.968362995276832 3.205145833005251 6.483180881401051 0.8052296580157422 0.5212978508189344 0.6005485062211463
Ni 1.4177479386442764 0.8667038850666415 2.9391997923698243 -1.2763917685205501 -1.494275535048349 -0.27552558541098354
Ni 4.318002147677149 2.545427994999159 5.018732966730403 1.8101121613735536 0.7469990565086232 0.5281837793054903
Ni 1.1384558125623738 4.1743788681375475 13.448771231877066 -0.5432774404138192 -1.1255163496925003 0.704977717771515
Ni 0.8882525667225503 8.056774373679117 1.2899080281136694 -0.8411801079684222 2.477276922062353 0.5435103823602317
Ni 7.789739434386646 3.8356879808243343 2.8430238092520703 -0.402742484279829 0.8938249878576476 -0.9626217949163873
Ni 5.734759320645606 2.113954261111286 3.320544557406631 1.1087345022484711 -0.9822688797233534 -0.31589936124233986
Ni 8.78941256542557 6.636639161549293 11.606113146050635 0.2975195731835715 2.0492661501340383 -3.256596802190869
Ni 2.5566000574769783 0.9845191341306648 13.772099589696921 1.631424348318926 -0.5862948245156097 -1.1225474968721636
Ni 6.357375343058127 0.8352739670705535 11.324396003028868 0.04025987596131131 2.5996640036427228 -0.4627641162490998
Ni 8.257475192009535 9.15715647669926 4.608704119999067 -0.8614396295484067 -1.6126249562242356 1.2880118692579816
Ni 8.661301845610238 2.0576976424518616 10.343405881876839 0.9025842221075165 0.13105607010927753 0.34727967532583415
Ni 1.6667792502275587 3.2278202131861624 10.943603236011446 0.20809814789594486 -2.14257971138722 0.41304155221299194
Ni 6.013287141777589 4.7023814864410385 1.144470232007781 0.6394834927234471 0.9676048499532754 0.4420749633308645
P 8.280819518504574 8.428981448425787 9.424493363626267 0.8545141060731669 -0.1485945932136731 -1.0346527926417084
P 1.8121387286657393 4.12721842196851 8.211338537038845 -1.7510732050325262 1.8051355340945685 1.3392909791479322
P 1.0278580555501107 1.088049429322078 9.397218056364117 -0.2283039334198584 -0.438553066220535 0.45325360565550327
P 2.8314195842223215 4.569118785111443 0.7684076634026324 1.678276275675458 0.9950426344492541 0.7323769357200741
P 2.610384479878642 1.8911263426875513 6.052009095147713 -1.8994803648257417 -1.0428636105872748 -0.03999710921822789
P 6.647443225347521 2.4621848065031102 1.2355499052063879 -0.033898966740290006 0.10965703560821115 0.9052247450541571
P 7.588274311106308 7.325834637376928 6.527333174261027 1.15152022995543 -0.7153518619169873 0.1523805426186666
P 3.4254921193076457 6.80287077022475 10.36272675614169 -0.34020374231565925 -1.786834678902852 0.8195620154780142
