# total energy = -340874.2466760036 ev
CRYSTAL
PRIMVEC
9.23502554670567 0.00000000000000 0.00000000000000

0.00000000000000 9.23502554670567 0.00000000000000

0.00000000000000 0.00000000000000 13.51639337828961

PRIMCOORD
 96 1
Ni 0.9317586610343855 2.739745774876704 8.584586014749577 -0.3429422242927449 0.34765274239453675 -1.2310657908902412
Ni 8.729684888125995 2.1160860339904852 12.085006986084057 0.17773161978894553 0.31407953442478165 -0.14463072346991868
Ni 1.6286798590735148 8.71594317020799 10.628656396524745 0.15200927532217692 -0.05520955529260814 0.7933609316026142
Ni 8.989817085917899 5.7494313446077605 12.027144010420717 -1.5029388671503021 0.05249061369954831 1.1193963528376913
Ni 1.6183920406859766 5.899814499565279 7.43755798621487 -1.677954630669981 -2.175233749976815 -1.6899881647957475
Ni 4.905617831243509 2.6472754647201304 12.39692458926925 0.14114662157606014 -0.6145677033183738 -0.30154874894762257
Ni 3.817103847668658 0.4755170031107611 11.606189384865841 2.2866195953506745 0.8568918622767243 -1.5645918640754088
Ni 5.254554034075423 3.02988257046135 6.106814825248545 0.6363693725744975 0.729199566433357 -0.9552841236043936
Ni 1.0117801568405085 4.177066670926714 13.207989778769903 -1.3849190613996922 -0.8770770789753476 -0.3846097792348602
Ni 8.927877770006571 3.866908340095942 3.6561438180259973 0.9553807970832578 2.1270582187128526 0.08657032899207671
Ni 1.5182658944043856 6.449012229985858 0.23625134539663167 -0.8222588455838871 1.2016078906404404 1.305553991906803
Ni 1.3132390936667364 3.2750909670734876 6.030311874151267 -0.9246921097501494 0.4095188837717141 0.6896385163112833
Ni 3.327979958011937 -0.06037305558949187 6.514617851013751 1.0319988999586291 0.2324295255524578 -0.846736261899961
Ni 7.765566697800823 8.613037281256156 13.574243501386658 -1.227056669730848 -0.5771591807629286 -1.0871045826835213
Ni 5.662779100505181 8.721558065701368 7.022995845299 0.5752699341600157 -0.4315995177208374 0.07808620278046552
Ni 0.5104004648659218 0.34284662702873464 0.3761315058728694 -0.5575105532940656 -0.8909224694988721 -0.8132805533446767
Ni 7.927835330554358 2.70326742422071 5.524014531107233 0.06780281857658645 -0.6907289211619846 -0.1243884282811148
Ni 3.2631962542519886 3.4854002023871438 7.806203580431601 -0.5120357087907181 -1.7742406442879248 -1.639106804564848
Ni 3.987000611470763 8.225572552111126 3.2300933054098597 -0.061862284722435386 -0.1597603800225055 -0.2584321202638065
Ni 2.0910775849837937 5.951309001655867 11.624665900348738 1.1854191966957197 0.4508102863213333 -0.9270066168159391
Ni 8.700132806581898 8.71233227524432 9.52370499109354 -0.6820715025973028 0.5066284217322178 0.05077620211160287
Ni 4.588089950077678 1.4907362834409639 8.137395605301382 1.5358852401693355 1.2862372938560622 -1.5614425198131496
Ni 7.6416973010036475 2.1300586275455533 9.54307361003805 0.07308515002144833 -0.1957087730926565 0.7565234510592906
Ni 6.989279690764831 2.4626765403498374 3.159510929149431 0.321860206811465 -0.23975639823117414 0.7877970643615916
P 2.6384098402569016 7.086210518229466 9.60819531573066 1.5377526323953774 -0.12341577995520034 -0.5603333674548414
P 0.6515365888077838 1.4543502830397954 10.237465334597516 -0.7154387652038389 -0.22619588593792014 0.5522683310585199
P 3.526468360707955 1.1639733767926035 0.6620211132381 0.8326476450173789 0.8028701566446301 -0.5726260687792655
P 4.884331097506277 4.730955794292417 7.7160087805539215 1.0862031539151744 0.485860335946931 -0.3268314347738113
P 2.8002444268127578 3.9213395802899744 11.75001659523331 -0.33277633950333657 -0.36318091993712287 -0.8834611281248205
P 7.187112406651589 4.3831000894419585 10.89838932680829 0.32634163962158635 -0.31289656986027403 0.916745601209563
P 5.410653669806628 1.3785491938791887 10.11122161274878 -0.19486493703512248 0.33153526800738387 0.8492148053474408
P 4.6559766223997565 5.179814972845308 1.752467987646444 0.8818935265273845 -0.057527404792507376 -2.3460079646113208
Ni 6.626527889811051 0.21684763335528778 11.517629184498569 0.3138260236530789 0.7068839336552923 -1.0880957429521971
Ni 3.304984744560437 2.2218455458164192 5.449403836731325 0.4117588288458263 0.5706231794166237 -0.31790302193592995
Ni 2.5339986421514173 4.9061442276960125 9.276719775578563 0.36293949335027814 0.17347284451259157 2.644052557060427
Ni 4.192470693431574 8.72944477746345 9.152031232021088 0.9455398997334361 -0.9556764739468058 0.8270945764096337
Ni 2.5928349895006155 8.633400512445135 13.16237152339385 0.05156861610591119 -1.4252506711392035 -0.00988332055198298
Ni 8.910765267787443 7.513782963045124 1.7706471353088045 1.1871102112448975 -1.0744398427316593 0.06869756247671395
Ni 5.700827405493205 6.1480519845356865 3.8359525346785017 -0.05304545776175381 0.7014167398931339 0.6363572883896396
Ni 7.071074311463599 5.246981313179749 8.877377880160452 -0.07972733792831431 1.0421167051189213 1.8280106389205293
Ni 3.2906796900879978 2.5372309010703025 10.202552320760809 0.12696621631062005 0.4095857324539075 0.5376315549819515
Ni 3.5103994163683527 7.134204945662174 7.464914902201768 2.057156351515393 -1.4440204955475389 -0.6096435265438791
Ni 4.156334038718434 7.463895355388497 11.300880365915946 0.17336485817981756 -0.2824894183233264 0.981268206372981
Ni 6.871690111295776 4.730244697330263 1.9876933217119666 0.11947350747800069 0.5390235502334717 0.8207424089393607
Ni 8.150528735040087 0.3610359332191258 2.5541254566880434 0.21092044783608838 1.6715700672998761 -0.928590159252975
Ni 5.697225745555018 6.255113634954657 6.383994880081202 0.44819907395073133 -0.15362315677651608 0.742087992360251
Ni 8.536580505286292 5.070370685851844 6.070076970376493 -0.07321910449615132 -0.5293114651520304 -0.5594859318528815
Ni 6.731677889955138 0.5844376641593653 4.689539475510915 -0.5213608428463861 -0.34568147760077883 0.4252722899512289
Ni 1.4221200441057655 4.960640113068423 2.158649342936918 -1.3769686962043641 -0.7296371681914079 -1.3242466832203001
Ni 1.9030432311339998 1.4759694776943981 12.219576083405292 -0.8552769523811206 1.7971805409135497 -0.3888788389238593
Ni 5.417699994249799 9.052439793714937 -0.04628594771844055 -1.5189329285857132 0.036917184741323515 0.3463849314257067
Ni 2.253549388297945 9.185377985535956 1.974123375267937 -0.6352614842222994 2.358373942375842 0.04748544717547305
Ni 3.19673177585422 3.9505592009166994 0.26557255130366453 1.653327061929288 -0.026686251041934686 2.171552958691118
Ni 4.875927224317174 3.926788245324667 3.415552010652576 0.5810536307213284 -1.3441503641227626 1.9961422737258652
Ni 3.3038857765280163 5.576302321886771 3.2576533919573745 -0.5492819947366863 2.3226075834095097 1.3390058438073456
Ni 7.98069661641636 6.793534090637124 7.550459866748992 1.481022526693185 1.5103690981761022 -0.39937691024170574
P 1.8712193333212013 7.330652407726554 2.645090457690964 -0.4366285955043126 -2.3020474998699707 0.444065511398332
P 6.030249999480533 6.883363183505693 12.677525297540635 -1.0509322465280224 1.1744243882471128 0.5052929907502459
P 0.36170916657680224 2.087752975810083 3.0237117264339233 1.1597068795312802 -3.131762287511271 -0.46177218464947567
P 0.23230429550539833 7.867225858312514 12.133719898499306 -0.0930515658410462 0.34264166233319054 0.5558123396560363
P 8.641037878519187 5.360442836258113 1.0011691125610813 1.2847743361572905 -0.34418612400217496 -0.8311209239602074
P 0.28382742617498163 7.234432677224073 6.017174126899819 -0.004839330370172311 0.5382573614914085 -0.3466047607459966
P 6.987340335413499 1.6420521759722184 13.317283534848002 -1.094018021973903 -0.282772496781384 0.20973516927873556
P 4.352384394687064 7.553124171600702 5.16661442742058 1.6515961952811105 -0.32321492106714655 1.7842077828029657
Ni 7.016753891575357 3.50119209596227 7.533185751583919 0.7184209877606144 -0.31371006690050485 0.4946527374275804
Ni 1.9684826217032076 0.7322821106117369 4.43386317751433 1.4012777052633738 0.19595688454772056 -1.2843994693163752
Ni 3.866917575121425 4.963401385687699 5.639701695326887 -1.7384714571081157 0.12583750202281554 0.06609869140128617
Ni 5.336034663907785 3.731919972617801 9.635687986592153 0.4163683025933797 -0.930531599250062 0.2653733274683301
Ni 6.842452020618086 4.145565999005804 13.240699315526477 0.5404273725595339 0.25111887443184494 -2.1709158393277517
Ni 5.635194079388864 7.231643699528348 1.6326721605896128 1.4728441046474505 0.24456410403246268 -0.035870745754680154
Ni 2.259949260957338 7.427860285955664 4.918818376668237 -0.7348037999940119 -0.20580909475145198 0.42673061966431025
Ni 2.4702215561690646 0.9404118799115163 8.779518932634822 -1.6265209974800374 -0.1577826874708444 -0.3198688874130491
Ni 8.379335726395253 2.7148943213032157 1.1179986494329242 -0.9069219302509219 0.4482060159292668 0.01765962206329217
Ni 7.331585145300289 7.052031688918622 10.9682689176295 -0.31223528212719126 -0.05938811215032998 -0.7666399706680023
Ni 4.915102202414067 6.3183181493570935 9.322080373743656 0.253366532815441 -0.10248802866359769 -0.29303376949807597
Ni 0.5966260507912083 6.453343456937165 9.66226177241813 -1.420483074547231 0.18731514971232258 -0.012639543140881459
Ni 0.38303745792870536 4.130928483615993 10.527120985354522 -0.35734940085701034 -1.1618419235964121 -0.1365525744474745
Ni 7.3585606547347595 7.399130121679514 5.258931436154143 1.0321179420349966 0.4809271603113718 -0.17389887630641665
Ni 1.5025940561605322 8.114299730072123 7.791903143471902 -1.8347631271530145 1.916952553468576 0.3136316482540857
Ni 5.572866892407268 2.84314112017911 1.3837540542411426 -1.3419345874183664 -0.4184917766942857 -2.1409162076418675
Ni 2.7857916119325985 2.617492507538971 2.9195406389909846 -0.024437307106757913 0.060953913975553095 0.14791762175130654
Ni 4.74330302336256 5.084103168744367 11.577898807802658 0.43715335765953095 -0.0714085336499738 0.41097721348479543
Ni 0.23246867895898737 6.319518702669822 3.9569646145913824 0.05445750761793203 0.3516268965509363 -0.019302299873037724
Ni 0.03518082957569818 -0.03810371514091894 4.6908240675555355 -2.4489148259798923 -1.4307700582955358 0.9070309450249605
Ni 1.332798877638735 2.24962450246787 0.9962837840808231 2.5283223186749426 0.6389530741412738 0.887511386934794
Ni 4.046197124813781 6.434790290742762 0.07323652258410795 -0.8834847822739041 -0.039378758907938634 -0.5631564387259334
Ni 5.566882595894589 0.6741660952501752 2.279458252289183 -0.12042095899293455 -1.6517255217701232 -0.1988133801599092
Ni 8.84358969242752 0.6056061895704206 7.234419748188398 -0.4190952146062395 0.18236063392052465 -0.34508909543241856
P 6.995716503526154 4.396481641366145 4.2198045218547655 -0.7973908786976138 0.748312376003408 1.7636363864095175
P 6.739989412889415 7.799800937264562 8.877783297779136 -1.202027494676362 0.40210433647519783 0.8338982295950284
P 1.7339499145488748 4.5575127807050215 4.37199866530941 0.28186798268924357 -0.10326193071514474 0.11438966519719011
P 6.5174991789643 1.4968775753868462 6.8306044064265485 1.4020215254079338 -1.3084361985506048 0.1563618958639178
P 7.241460531616278 7.798480328620561 3.1599837624541363 -0.7393703363187718 -0.3686478565889651 0.15397051281360577
P 9.156112189781819 4.675979687594916 8.357983423977094 0.07010164191309218 0.07361068350761517 -0.7366171990536668
P 4.901286604292202 1.8271590267440505 3.9206598824144603 -0.6532147262666105 -0.4098328154677071 0.48273721693691696
P 1.6870729251995524 1.1707057103693677 6.682639904642904 -1.7907610105404517 0.854500222116096 0.34238249513453295
