# total energy = -340864.9446681064 ev
CRYSTAL
PRIMVEC
9.28437042360745 0.00000000000000 0.00000000000000
0.00000000000000 9.28437042360745 0.00000000000000
0.00000000000000 0.00000000000000 13.58861459349637
PRIMCOORD
 96 1
Ni 6.878232818119435 3.0478451957693884 13.15746128193427 -2.057748476573437 0.13482762133656778 1.0280170324927456
Ni 4.790735022608969 0.4170984743095027 6.438611390144531 -1.563524599153159 0.9732731039826464 -0.7300737415081943
Ni 8.365886023822304 4.253875600230401 12.222904005213724 1.9045091854989007 2.0117164740150386 -1.2298897683042689
Ni 1.3963878466481283 3.0020082600976434 11.912798613075823 0.39222384413669226 2.8966670422011918 1.1961702645646368
Ni 8.772216485575175 1.7867306229185718 12.095619931972527 -0.9130630101516534 -1.4896015266114475 -0.14250930625154168
Ni 7.273598438667459 4.927688767412272 3.8557961582732516 1.3034186907313552 1.7116602504525424 -0.1805536626187729
Ni 9.168501258772885 1.5671181302348651 8.927189336060415 0.07715520632576389 0.4806222274764433 0.885965639714229
Ni 6.898992669884073 5.234026562123479 10.249728373709836 0.6563530147852761 -1.3445519704365554 0.6625547727206137
Ni 2.385098997864551 5.709980515997561 6.809608324231621 -1.3816565885983367 0.11240117401225158 -0.3722188617696751
Ni 5.631481165966246 7.619794034642348 6.339930604611966 0.6170639873776663 0.39448127271230127 0.8865778193769313
Ni 3.1094655607791863 3.6599637229798714 7.807393090443385 -0.10272611281633276 -1.221612101676509 0.008637621070339965
Ni 8.82462675534771 0.30463132746865773 3.539140642960058 -0.5822659058618747 -0.18684643760602015 -0.5824571959370742
Ni 2.408012823515324 0.3066460358018092 7.301746792236346 -0.4045437991546259 -0.10016143741295008 1.2112191884779593
Ni 2.7409781919568466 5.405629576508909 9.347553123368854 0.08256249338426426 1.792919965864983 -1.1445278577979967
Ni 6.810076256489643 6.104956192997234 8.054461322679144 0.30045397322154704 0.7815356568329122 0.08202384727197487
Ni 9.207588457310063 6.051348239469047 2.802583701974326 -0.1328319310627777 0.6064615292714717 -0.9343221766407457
Ni 5.393829141986165 3.755388479883699 4.1919785609886775 -2.3712220019831034 -0.8518802679947458 1.4295438991979188
Ni 4.874322207509256 5.931626285754817 2.7997844643593717 -1.1140381738495717 0.7747664564298786 1.1905637170111367
Ni 8.621354754213986 7.607018741248725 -0.34055348420504605 -2.1836690252283617 0.7390571759537272 1.4177206813107455
Ni 0.3716941902890242 5.447223554999779 5.017921704500901 1.867599714067061 -1.3500921835284942 -0.0700137101849762
Ni 6.481799494998543 0.4924866318871821 4.686631236443252 0.14186807312311697 0.3517120000655749 0.2661379735484965
Ni 2.6612068832082882 3.9248746578637896 4.467895188306318 0.3536349281199006 1.170829728917319 -1.2990277607525111
Ni 5.187075502027873 2.859521030655822 6.800734323195556 -0.060015461321683734 -0.016101019326920655 -0.6818372750993097
Ni 0.7841616207433383 3.370049979150438 6.526435033166556 -0.6765611143020348 -0.36210928413949894 0.11785756914113252
P 5.684439213580513 6.033160158249491 4.996900033496654 -0.11432641605942247 -2.881723276407166 0.44038909098800927
P 2.6249421332115617 1.6447354650972896 8.913315701672268 -1.7759434859116445 1.137482263805125 -1.2713570343101201
P 4.9696634050812944 4.895462718452048 13.59717555361116 -0.550284982079904 1.3527640739337026 -0.9630457698276833
P 5.583443834557373 2.1330097782252513 1.1954267252569006 1.7231229996765036 -1.564174831142648 -0.5076162395667839
P 1.3974926867017916 6.998929630704544 8.231479910201566 -0.2098632102161676 0.7786130838694785 1.2545587318058589
P 1.2467795052637851 5.061569385679755 0.1659961832223411 0.25520821400987015 -0.5191111275802608 0.23249097491801252
P 0.423078537154585 1.9530786837714493 4.685476260790514 0.7696733581776872 0.4127985829642503 0.38032837825068694
P 8.11415889462076 2.9505264273449945 10.37394210572627 0.05942899269059442 0.0018859041688032035 0.8888085084796629
Ni 0.3991322895376992 3.630560122560099 3.2547724534504 -1.6862652074182054 2.5729913794475427 0.5028710115723146
Ni 0.8237381055899957 8.784304735574082 9.603223324593854 -1.7785403001045434 -0.7421527841599154 -2.2878118158865632
Ni 6.3252278759650595 9.15930973227602 2.1745313386285687 0.4925315773195194 0.5735745487354638 -0.5304651191404993
Ni 3.097674410626641 8.695713275136614 2.06574080238647 -1.2351476742690985 1.6604377048321404 -0.7461351658464311
Ni 0.03166434456319358 5.9829038623630915 9.873337220537211 1.160328315165363 0.1560813885090215 -1.2543928956519557
Ni 0.9221515012608344 7.802863246223364 5.946268665995431 1.1497819071080844 0.3917918988055962 1.4199649972602322
Ni 2.543861728264965 9.0224952530257 12.987997386442656 -2.3377534379120126 -0.008553803107282043 0.0950634540647524
Ni 0.7060178620906389 0.07538444382959984 1.0909784889568064 -0.5203557986206392 0.4185190303877953 0.16539752370362484
Ni 0.884917463015348 6.475439701412327 12.130691640398702 1.4811713935662232 -1.1598297782623896 -0.7954921190130042
Ni 8.101736407294691 8.393033522283755 7.981829694613505 -0.039128076349713256 0.04487320636360659 -0.03978550742805406
Ni 2.328027974252192 0.6838690685442513 4.039215390610763 0.9433138386163946 0.2868541230499253 1.543008481477678
Ni 2.4828077098372967 7.911230415184394 10.718413594155233 1.0652427496134234 -2.24174896009023 1.2358177037529299
Ni 6.688961647245586 0.8100167348731084 12.964475434543859 0.5138797039779923 -1.4957590615724112 -0.1003126182788337
Ni 4.746040064471683 1.7940374222650701 11.911588859638911 -0.28174636950971477 -0.827475099677504 0.5092645738034842
Ni 3.3582773977382905 6.742838847509539 12.905093531189005 0.5860490270533907 -1.159947020566544 -0.4931234452672475
Ni 8.115839365626751 6.876608053334635 5.723021342378873 -2.322529936094039 -1.7087944988689732 1.0898564343970456
Ni 3.5283763441515053 3.2499287975176574 13.304068914870342 -0.3005347058608115 -0.011963343009463268 -1.105946655090689
Ni 7.122894541599651 3.433564355680802 8.576983820596642 0.3207176085665896 0.4123018458334899 -1.118825567935886
Ni 2.5301487134812564 2.23085775575098 5.749247831316597 1.123238352291601 -1.7491543907432585 1.8157922424774666
Ni 4.567093113258959 0.46962294183548275 0.34798562254922916 -0.5652444316032136 -0.4937860185519109 1.4478208431302355
Ni 7.30658580598399 0.6000599871962108 10.123653125468529 -0.021238083443169874 0.5983332437373825 1.1920307884749666
Ni 1.7106173560283617 1.0864291475593675 11.043331270508387 -0.26552425122389756 -0.9521203811644312 -0.5267737863318412
Ni 1.6967836444320685 7.04678127470944 1.0325426629252157 -0.7756558010133674 -0.8562889385854027 0.586125645927597
Ni 5.745530369488976 7.241762333255586 13.209178937689968 -1.026096418431265 0.843181454669167 0.8633265621584745
P 4.393001887660237 8.75637735001593 11.997903792503623 0.9592765325932383 -0.7221701703904014 -0.2668396276012114
P 5.021776575007465 4.957695851894971 9.013477344251552 0.3054956494105126 -0.5667261583550628 -1.1804806217435218
P 7.396848453057254 2.293480832742254 6.709555308783665 0.3127302194857388 -0.6254385845946068 -0.9306467846716875
P 7.171461082109859 6.2696980578057095 12.120541038460292 1.3880252111288418 -1.3947969826350366 -0.2544170855671425
P 9.024964895498593 5.059563961716803 7.0387252266878955 0.09427026873949572 1.809443417441303 2.115561273816847
P 5.804124029813948 8.391148795133386 9.09714251786151 0.752711276402052 -0.7004965420717097 -0.28423828269363305
P 1.9680172354214063 5.638890093384933 3.328435575045132 -0.16534918696419265 -0.012740844605436123 -1.0641798555665478
P 7.8757269835439745 4.205141941056613 1.7445470869200759 1.228002064363253 -1.144932549435583 0.3787085832590768
Ni 0.6284868718710638 2.8756386973210333 0.5661014747568803 -1.4379197819664398 1.919310769288107 -0.4959254334924168
Ni 4.480655626707623 8.270544826250266 4.072766319198364 -0.6056233496408925 1.2633403346532306 -0.08768104555775222
Ni 6.349534357145661 0.8933096052380927 8.064584071506955 0.20252682445575443 1.0252356130928666 -0.18591261293784112
Ni 3.5166409002201533 6.214047542833775 4.689661654876159 -1.0356632361840938 0.4759695591957803 1.3778976357765367
Ni 0.26622653014109576 0.9658158943060475 6.827151141722357 -0.9379186357427525 0.0780185827673237 -1.6951224006985193
Ni 4.68689862630498 5.496356442092116 6.893163942273233 0.5070575388498364 -1.0447217468419363 0.39076448598234637
Ni 4.567390213105322 4.832551825984609 11.066200531182206 -1.043495587744319 -1.9456902877229005 2.7008117162283423
Ni 4.055227215455708 1.6995968086023214 2.6686269518712127 -0.055790367496742634 0.49280822801967383 -1.5996961639777094
Ni 7.74979378616671 7.5677829927883655 10.528811899702303 -0.296510929413399 0.8863862721914154 -0.19023797978607235
Ni 5.598995154640455 2.698223667191121 10.138288078212984 0.5242325079672261 0.553426355922363 -0.7803310950018496
Ni 3.746651887526577 0.4101194132310237 10.129537559300562 2.588319782274497 -0.2769664316225682 -0.9055489611627954
Ni 1.496436219910985 2.0241319689032835 2.5271015831819925 1.3266457795800959 -1.9389655674045572 -0.9274462754565188
Ni 6.992774093262704 6.140394634046261 1.758366871961071 0.30774022247031513 1.6009557474164233 -1.7615393946711728
Ni 6.6556957488230895 7.338486901987253 3.8377779810283346 1.970355908790381 2.136873147920746 -1.0259969167389233
Ni 7.198664286792503 4.438356036081641 6.305620214542097 -1.2519292646028117 -0.42170488431494474 -1.4186460213384922
Ni 3.11130386607856 4.233422132682325 1.7710586060229052 -1.1470732499276697 0.8166276154400387 1.027951469362133
Ni 1.6070687752005366 8.010925982379696 3.667893503566713 -1.2637591673582043 -3.2953317568672214 -0.5933987825502425
Ni 3.77751313406757 7.581783823048237 8.36850700152944 0.04657476243574559 0.0993710803011708 -0.32746881124749405
Ni 0.675458357581109 3.804038579725697 9.083947570934898 0.018699376181716184 0.17119561844264064 0.034145535533457325
Ni 5.091715735715437 6.878297808710827 10.646080922809999 0.52709928799206 3.2704313940811156 -0.21993704951240187
Ni 5.568393870465029 4.116875433576102 1.8753100136747836 1.415284046844795 -1.608102899984166 -0.7041775904677228
Ni 7.544822745286599 2.7471801512496814 4.066691555777253 0.6970029270961545 -2.1131917451434057 0.6132973212463825
Ni 3.140985997604298 3.1323143958385673 10.272979221998826 0.26855146808599556 -0.8438944215757918 0.24420594936209555
Ni 7.851346227401782 1.8853306344304075 1.5788071523152232 -0.21918294495519672 0.33573567924197667 0.3607360579410561
P 4.352410621150844 1.7012308577573199 4.676902144911872 1.165051431672645 0.45002455719524426 1.847296740843651
P 4.771562798148334 7.674265434599028 1.6721744927829845 1.5999005666790318 -0.13084523965005207 -0.7876309710973726
P 2.3195791973712345 1.6386913400978351 0.5773801276744488 1.2606283350387064 -1.2701815259447802 -0.26664319531968916
P 3.119585524295938 8.246247629439864 5.922746714096633 1.1658232768416632 -1.5759162879492923 -1.51248048809215
P 2.264754991346998 4.893113772791739 11.25453862285107 -0.6669544444502061 0.48695896832774843 1.637741291675889
P 8.533450337171232 7.913068720483767 1.8957337712382238 -0.38200525173247757 0.36512056016199695 0.2935898991118621
P 8.290821890764564 8.8798130518097 5.630184139449466 -0.5573241483148724 1.1896782290823897 0.022495095778722548
P 9.629655926549994 8.702156628054619 11.744843427741523 0.4440089471287837 0.9260272836218051 -0.5159697537378016
