# total energy = -340870.5582903378 ev
CRYSTAL
PRIMVEC
9.25001391712662 0.00000000000000 0.00000000000000
0.00000000000000 9.25001391712662 0.00000000000000
0.00000000000000 0.00000000000000 13.53833037345077
PRIMCOORD
 96 1
Ni 7.50883753173093 4.830209257198061 11.084941004684733 0.0472717885027702 -2.986543552748366 0.12919150609671298
Ni 3.4569059438642364 3.489040492145122 3.2335486332787253 0.9057073411175305 -0.8931472450643329 -0.5638274966510289
Ni 3.7896566938090563 0.15928153931420294 5.413950809246618 1.671513760140644 0.7851819953362478 -0.90712993249667
Ni 4.9841757385266 0.47084605742754887 9.652991678237596 -0.5109481321534942 0.43038364303586524 0.5276595313709042
Ni 6.982409990794405 0.5132758711766632 1.2003789285217876 -0.8987365662266521 -0.5862832545513837 1.173958504354288
Ni 8.316039994520654 6.931322164036969 10.74587342024912 0.002893776608027274 1.2906349087031257 -0.057034781426805
Ni 8.45577070446051 6.060627605852887 -0.20537065856127876 -3.061326145076895 0.879069683925344 -0.5572639845008983
Ni 1.9020248577170005 5.815437487464448 9.053392827364075 0.24569513231311235 -0.4567976142530198 1.3026193347585113
Ni 3.4356586619410368 6.762981161111281 1.462369847152764 0.48182267554244756 0.23162451315265914 -2.0838973670546626
Ni 6.712947835938192 5.6791477826945655 8.837294002684152 0.05416748718133897 0.554074016808691 0.04401240102520807
Ni 2.9564246919109816 3.134478209429338 11.968615182370177 -0.5932116062401009 1.5697898633365803 0.8887403742458887
Ni 5.987857746519056 6.432163664071097 11.377801994696767 -0.8461276817816847 -1.3205671774861838 -0.28117507038727707
Ni 1.3468297735583805 1.1181786800191704 12.681381478273302 0.47062680682662816 -1.738665832507109 -2.0857159083206405
Ni 1.229215846848115 5.243120627581038 6.774256003051285 1.5125043993515501 0.1935189645301893 1.1575499810892773
Ni 7.84629653874972 2.2213168374405514 10.589939460964523 -0.3112438647481995 1.2442799755876701 -0.958258118631053
Ni -0.0295297443672711 4.008512022630518 0.6143479980335298 1.8789583336129898 1.4427696538595733 0.9829761902030233
Ni 3.9114701268289136 7.088960900882926 12.604672963021796 -1.4309664905770583 1.0239145802885978 2.08997828314142
Ni 4.938240169510228 7.333346268062259 4.746904557036049 0.47918806613307796 -0.4343446845661423 1.0383906624175858
Ni 0.20208320362200796 7.8788750876977 8.6392687801591 0.6842777662200021 0.09200692662661575 -0.4360426410938555
Ni 5.000474263014488 2.5728173655561704 5.372347946739965 0.5172185385432383 -1.4568521000945684 -0.28134219209276057
Ni 2.6737627672226374 2.1195666845649774 0.8605028928715079 0.3342058728610115 0.5782704115492363 0.7206665892616815
Ni 2.289406189742106 4.739263120555094 4.816612661769715 -0.008855907728733134 -0.0986066913313205 0.8723660466529233
Ni 6.610864682562298 1.478207720948542 8.002209223002353 -0.5751364939059449 0.4563888088503753 -0.36598110839007936
Ni 5.595990157753529 8.627913463098185 11.723693314384773 -0.06487201808303666 2.154379275125309 0.4222371026693308
P 5.595324156752888 3.7602508996280153 3.5089862971129038 1.1819782893349708 -1.0752317425053353 -0.588940746778889
P 2.9555181905489993 1.4409394149543886 3.3793436523299656 -0.33589225942449896 -2.0711027863931557 -1.0960990728726476
P 2.754459888466865 5.860771805577466 11.165995176465414 -1.4617215123717278 -3.3363475371579505 1.5822759116187328
P 0.5502694517580525 2.094295646596244 6.532813065292835 -1.8672585286775585 0.04949553562696637 -0.033315583432994234
P 6.112954934472626 0.6138669973108453 6.034684091873785 -0.2693878479443619 -0.20343468098200448 0.4766102781035727
P 0.217170901290676 7.4968217636777155 6.264144561629052 0.2281560949880845 1.3502325657611003 0.7000774522564202
P 0.4613712681920534 0.22277270970717125 10.560506841743178 -1.862303241554812 0.1660608683192366 -0.2768052234543555
P 8.282120193557496 1.448219175891941 2.745505875013815 -0.548291605798959 0.027221811830430535 0.48050755627544994
Ni 4.773700922296526 5.704150570260263 2.9568252175127556 0.22544332404261172 -0.20769962690594554 -0.006865102550949466
Ni 4.569876866058957 8.646200740574095 7.722940203411713 -0.04894351977823829 -0.6335555572747863 -1.238423773917209
Ni 2.2080153174555446 0.3679757278689539 7.072545826219927 -2.433069374307203 -1.330395219320199 -1.021507770619318
Ni 0.47885194445607693 5.002056015391008 11.75416748517101 2.2253273241990965 -0.1317566957207279 -0.6608861267689392
Ni 0.9663304518732231 0.5563254358569287 2.16741885646097 3.0279665957798434 -1.5459346539855376 2.876210317008737
Ni 1.7197255838195633 3.059534596829529 8.301880073245934 0.5300414013395195 1.1544937107614568 -2.399865376751409
Ni 3.7005420599178493 7.469728472971119 10.496050894900671 1.3039375393493027 2.5545131181376974 -3.982336177989767
Ni 5.336323767615064 4.135153962905017 7.4053039761758646 0.4904656959294262 -0.9914112083442538 -0.013953376856298551
Ni 4.073493370262419 8.48139324295736 2.8524582357055 -1.2203342634053498 0.8558749909764356 1.153402277469491
Ni 3.824436746064707 1.7965099491850305 7.5495958679687165 1.377158443617667 1.1960774477405145 0.6748726708560183
Ni 4.245562128788912 6.018641792770866 8.18379902083383 -0.0029248869562788333 1.2299365623818044 -0.025997966725658454
Ni 5.403025617831951 2.2622851489938167 11.090546513106787 0.5553955638335919 0.3592903266334651 0.6388263187554224
Ni 2.1933447954136662 0.537228782164963 9.326894463289449 1.0975424901873936 -0.2719676928563961 1.1365317269663975
Ni 0.4899436361209043 6.4176781423071745 4.4572375968229165 0.04103763466760029 -0.17286195040147004 -0.2634354870156689
Ni 7.0270320578372925 7.9575834559539045 7.546021662598615 -1.298267742658035 -0.9135070396676075 0.4757674704873032
Ni 1.3065922131030399 7.667734270466986 11.412812372298475 0.5852584128312953 -0.2018115435562847 0.7417303519105162
Ni 9.256396407368912 4.125755948784873 5.169732867318835 -0.1697876823515205 -1.1145503375993 -0.5994352185523096
Ni 1.1978582997346425 6.546216335430718 0.4440885422254422 1.6206074602090799 -2.583644488286015 -3.7061793867526878
Ni 0.8302858724716318 2.961734199888307 10.322543759213074 -0.618151049794258 0.3638211246242831 1.234092750642023
Ni 4.323659996127864 4.883637337471636 13.04167691960293 0.24731852684914826 -0.8137382097073855 -0.03194621388929337
Ni 8.323985756458848 5.8186564923008754 6.960583658001204 -1.6483805165572902 0.4694734099484753 -0.13181197443869555
Ni 2.2407973667092747 2.252702134595717 5.273166522723805 0.46418002276001996 -0.00563045881289998 0.1757323299707296
Ni 1.6506742300726396 8.656792006487054 4.696974832018616 0.6204501302410799 -0.39411746161497935 0.08769827194893284
Ni 7.8259742582162986 3.4448994258249184 7.071638399856555 0.5288905755645279 -0.4677034625322461 0.6325178600388913
P 2.6785635244355848 7.696030062980293 8.47955711519865 -0.2371984076960109 1.1043988509875946 -1.3240512793800423
P 5.456139197633001 1.6158386777336022 13.243560322924743 -0.45979912008350493 -0.36665602296991695 0.38111256471487914
P 9.308473985613412 2.848116279181882 12.375319793427744 -0.7689200249514305 0.09985007682011834 -0.8595984625746099
P 2.6599154964176615 6.781323938670577 3.9728226940087152 1.500363393113642 1.0389938432192236 -0.30225220277255044
P 2.580032376396438 4.441680923449631 0.8394803862860246 1.035923688934332 -1.7673210343499564 -3.387076688081702
P 3.304299214578671 3.7749029216420977 6.617725417870282 -0.7418802472248192 0.12026720702388967 0.5560087719375585
P 9.236351627252425 4.84762703336758 8.821738254312256 -0.4984751964974642 -0.5081451154870603 -0.272427406101634
P 2.218791583646458 8.417179646478974 -0.009874389835879557 0.544418753107114 0.2794048658607317 0.3238880358747712
Ni 7.469497222623675 1.080235123010479 12.507197241568386 0.15176887717659668 -0.8539194099119617 0.10713786873078322
Ni 8.286735950492488 7.426965658721685 2.8087704200662875 -1.2090327223496016 -0.3649279845352167 -0.9700857073936003
Ni 4.40490286819206 4.146263229596249 9.898549947179166 -0.6438718515991299 0.6387149899885387 0.07968517183646921
Ni 3.0422463208545794 7.031546064619409 6.188763423371878 -0.5746927215003069 0.11218931511176163 0.3129811591542803
Ni 7.059185106145974 5.245386880985994 1.7687423324652862 0.29515672937834975 0.3851317131766012 0.42577494061926024
Ni 0.8402194623964572 2.8077584685458703 3.13142940484863 -0.0957450535128093 0.7383462659296316 -0.13078481872576186
Ni 4.550849587471225 4.872833321239029 5.228164280109719 1.5801722350121687 1.433351445869467 -0.012365206433572253
Ni 4.863278056882622 1.5014252558319683 2.1832585802595275 0.057363625521133464 1.407976457439788 0.3444236939342778
Ni 9.196410067241812 1.6323499525411385 0.7299148966682169 -1.9027546647016391 1.3742628672374269 -1.6711008409729413
Ni 1.2767424182549056 7.463826964104336 2.2336212059273777 0.8888835846919725 2.1648171826291813 4.013343167894243
Ni 7.435512671563234 2.9390809158526454 1.4800641987378262 -2.7600841287364144 0.13935739088612129 0.2768299060447039
Ni 3.5496650832311687 0.8937844428757183 11.941646766851202 0.638779524677887 -1.0382723916721666 -0.14773224521337783
Ni 8.482086993999694 0.18310125010237477 6.660290281822303 0.3480641189003425 0.8448133338456353 -0.9516838078476451
Ni 6.1142314363905195 0.12085143157448845 3.9223518431782614 0.6886864368106591 1.2188404524686427 -0.2784687271997075
Ni 7.1245827044032755 5.164347509227548 4.330816731880575 -0.14260058041376733 0.15070341202655982 0.556011857261352
Ni 8.815873745501063 0.1758076141439757 4.302617139511805 -0.45110210653013927 0.42100245893128135 -0.45388686836412806
Ni 8.884064847955495 8.399817370392842 0.7371511825404496 -0.1918469761444051 0.12050991916231503 -1.760026300460756
Ni 5.958368702212936 6.778752434806995 0.252091553757573 -0.6383213540945459 -0.42558339343374446 1.4753696992827816
Ni 4.644441228088957 9.059482111512983 0.6277096431088722 -0.7749294643703041 -1.0297918650049813 -1.186167387715654
Ni -0.06859902806732214 1.3495862776999188 8.514445392616905 0.13642247662751344 0.25890443191453477 0.9559664943833989
Ni 7.508846781744828 2.6545967384264384 4.500736712178615 -0.8185680269958613 -0.8010207621407172 -0.2611472052021244
Ni 2.085036382684567 5.178481530463355 2.5649724287694635 -2.8736561831283156 1.0669641031799044 1.7917835382676948
Ni 7.459627457794744 0.07818851747515008 9.70496565632644 0.6007709066445976 -1.3598258658764903 0.8656536676297544
Ni 7.44997969329936 7.640825980038346 4.9275462284430045 -0.2692274111070976 -0.8989065161456131 1.9628979098504387
P 9.014416043803003 5.008790025508592 2.8815930044793356 -0.5493748115608087 -0.4669616992702152 0.3467137755200352
P 2.9504954330025046 2.47696872154738 10.002551553437462 1.7506682562846236 -0.7212836540203901 -0.3064844956863432
P 6.551544343435838 4.33629551511223 13.188974140911169 0.02147436782369205 1.4979624969816332 0.3840739613360482
P 6.133249464964354 6.1336287155341624 6.394532757532151 -0.2701560935689541 -0.21912123847932585 0.09261293564173083
P 5.94573318322857 7.633546219100793 9.592787037782509 0.10243120728373327 0.809651955453154 -0.6928601085723745
P 6.417326641779059 3.555002341250187 9.227346738722936 0.5811523610827217 -1.4452710801251882 0.7128949157360626
P 7.335399771147567 7.890863105709221 12.689856341006447 1.817839097704166 0.7649641256274761 -0.2212619389714125
P 6.040629075805888 7.503121023142103 2.6383768390566824 0.5808291734153481 -0.188939572689623 -0.5374297233837906
