# total energy = -381176.09475142433 ev
CRYSTAL
PRIMVEC
9.11060577075686 0.00000000000000 0.00000000000000
0.00000000000000 9.11060577075686 0.00000000000000
0.00000000000000 0.00000000000000 13.33429245965419
PRIMCOORD
 96 1
Ni 0.547675872118115 3.8932534261342733 5.917799506935059 0.755338429612254 0.08357319403696575 1.8529955910006413
Ni 7.912624969278218 4.146273172258133 4.613931504111547 -0.6053392427415704 -1.1143035116958164 -2.150383266592039
Ni 1.4238601484485625 2.18892327608615 4.673163197091875 0.46315569526056366 -1.1299157643117768 0.2656949724738069
Ni 2.840750683409268 1.7721495001181942 11.110972399310313 -2.94606616145961 -0.983543375560403 1.9899060630081664
Ni 0.7402841018019376 8.785056587052262 5.58528152508089 -0.30951299810002175 -0.02433034921524842 -0.8307704825993241
Ni 4.240886814181518 0.6407170234689468 7.439815500867894 -1.4740000726287648 0.3007907877356755 -2.311932620194167
Ni 7.337472420927388 2.2496545747921 9.304602552497036 0.21297398793100739 0.03124250295404942 -2.038009860493929
Ni 0.9454986768232074 6.846428985935894 -0.140145716862289 -0.9972581540433342 1.0468915007997452 -0.46937930757277224
Ni 5.19675336048078 2.745836391492288 7.8748068443264625 -0.30106486733266863 -0.03207219794419638 -0.5246783372553931
Ni 3.8119686005935463 8.640243506804575 9.283521521582589 -0.7570502700970381 -0.9847597644660073 1.4674938960791308
Ni 6.347231558693902 4.45671706715841 13.024950345194334 -1.4957734597501142 -0.11474781986755722 0.431492816939644
Ni 5.154279715931254 1.9605750506487163 13.18197528154545 0.882114641399255 -0.2993244876027942 -0.123193122421433
Ni 1.3206369839813534 4.501732570744683 0.9278377673510376 1.9671903665782056 0.6041470222056822 -0.27715823591840005
Ni 3.944163491716159 4.650526985756021 8.719453847389506 1.4201688857409218 -1.2903122352563843 -0.6903008324856306
Ni 3.7566763335898843 4.268200410569223 3.3987379392470642 0.6008524106148103 -0.6525812064476697 -0.46436282819478736
Ni 5.01856813094418 6.212248822176146 4.8104791597720356 -0.231452249240853 -0.8928363986921334 0.6482386132082577
Ni 2.4704501079662227 8.052618539022536 1.2657656269687227 0.9089613292784539 -0.46736433402527244 -0.8065576327985463
Ni 6.802406538389066 0.788560291227824 11.20212583312561 -0.8580483444786707 -1.3981975236761535 -0.17646072349632191
Ni 6.047310413569407 5.477888436308594 2.0265859454542907 -1.0492042080933222 0.5984867385961112 -0.965328652324589
Ni 4.511216711451689 5.642562637345204 10.707250477306674 -0.13937513149793415 0.22392637317745304 0.8183325139462875
Ni 3.9006147956743886 -0.1283975905974641 12.62676129413341 -0.7567003429567871 0.21169229300510636 -0.2850211836062446
Ni 4.051413543976351 6.8094854791473205 2.7107414266340237 -1.044895296305323 0.030608983135108573 -0.9568586671803649
Ni 8.61683836033359 4.819601609426141 12.75281108159908 -0.3635773840445932 1.957607607985777 0.8386172323372524
Ni 6.25307344706384 4.303239800731702 9.306762677147978 -0.022074720411852305 1.5270331890953444 0.6091023093284285
P 2.570466339168431 5.572055658544522 12.859378749479875 1.8459762222600142 -0.7739110504081188 -1.0398919295534608
Ni 0.4863988481207628 1.4973827377910491 7.166941922439804 1.8003561104280543 0.2769335215021037 0.534519491715531
P 0.5094076832365558 6.9552278411933885 8.884532559326589 -0.3267638147606695 0.44748379305126157 -0.3385291828267138
Ni 5.429064699470132 7.806495521539602 10.779508514554895 0.3306796048753079 0.6503389473807123 0.6845104510560985
P 9.410709223720986 7.892390313648767 3.6141536596570303 -0.4137241801023133 0.6144885133410063 -0.5989158557137298
P 2.8325329169177036 0.24811277380417363 5.682262102408387 -1.0221757432206204 1.1441720171204746 0.6385882346026872
P 2.2235253571670377 5.687067947002955 2.785960410788849 -0.8621446260352313 0.28203613283599166 0.2023504467788902
Ni 6.883144727577805 5.842686205808286 11.223354455855093 -0.5965113600372952 -1.08493894249077 0.19745429502885348
Ni 0.7416497816213228 0.35231988370496226 1.7860486404280949 -0.8917858459404319 0.20102915686430542 0.8601337662527896
Ni 8.159804817041664 0.2692284250209124 13.161200366988117 2.7184402279433826 0.741731894572413 -0.5201154004750591
Ni 2.988807139345421 4.6281331165362145 5.623577956840635 -0.1500801766202641 -0.6191180416932176 -0.4756862236274066
Ni 0.8899522239158706 3.9396355206005187 3.004736122642373 -0.9456304025647134 -0.8604865216065181 2.012180043915018
Ni 4.704388887638646 9.156796638222211 2.065588449168688 -0.4965718088271641 0.3961180369847758 -0.9961273828730004
Ni 5.458063757943134 5.29368109629425 7.1759832877016985 2.195672734557457 -1.586308944037526 -1.1509898113732564
Ni 0.5568256535898201 3.1651155840735257 8.975952022833187 1.480206972770425 -1.47905768965733 -0.9339979605321077
Ni 2.702752336349708 6.505683215923707 9.087267227431003 -0.4755065035164327 2.1224407745454994 0.7962199983179643
Ni 1.9200601863604834 4.807766932405586 7.818042303414778 -0.90787375264123 -1.935621076412357 -0.5920733788705996
Ni 7.10414069408099 6.887854910810774 9.17698027445881 0.04567436210866327 0.007120670205181284 -0.2397584551137032
Ni 1.236682750921748 3.52462920217066 12.206438026119875 1.6810263276167694 0.14380179981072008 -2.0927383623850604
Ni 9.242071909132456 1.8872620052411584 10.88757032179779 1.1498235589792971 -1.6628936225718005 0.72805773951943
Ni 0.7817555797061507 6.2842043873095985 6.716323156738465 1.398586531584456 0.6610105681619456 -0.5195908954301568
Ni 2.3193689308823986 7.026591216945519 4.889085467188018 1.0937020333953809 0.598720194763156 -0.8077177145449186
Ni 1.727024669261523 0.8126168460182622 9.302735789354994 0.0928816159220852 0.5229006765296802 -1.1986660344032969
Ni 2.6415381755328347 7.228145150529638 11.418021682464738 2.45778770298949 -0.7914919967146756 0.5268331788148669
Ni 0.9731766974455711 8.604384162114114 11.10217246510388 -0.8900611499398414 1.0102957039535827 0.2247961773769161
Ni 3.566711090667927 6.499679326657698 6.793408904035331 -0.9728357593349117 0.9674510979842307 0.868594495425633
Ni 0.3815612842940138 5.871102185505834 4.444146253183842 0.8720022355556014 -0.16813703412197495 -0.21118912811644272
Ni 7.695428125421354 8.068461882624343 1.9891030907984224 -0.5478308641124565 -0.062021178897802856 0.49993326910022934
Ni 8.402730011865463 4.005587196467961 10.667621163908663 -0.5971605635855199 0.837840502072228 -0.9666388864955805
Ni 6.086640899094998 1.570294916540482 5.842713537625885 -1.8028778484086436 -0.7351095041598888 0.970797131638328
Ni 3.9351075494848784 3.571175287542502 11.84025180028613 1.0237253470959273 1.3816481039579043 -0.1485226023251571
Ni 2.679046539885129 2.5491657426526024 6.886029145395132 0.1655700447257471 -0.2335548974061526 0.3633464989807097
P 6.096471242824929 2.8493510953472243 10.899090682915952 -0.8350642248786715 1.4132567320021208 1.9629274775367938
Ni 6.132795228414581 3.143960757251561 3.3011305522359526 -0.41669611824644365 -0.025791507141807196 -0.4535857921839414
P 4.470647183528256 2.4090537350320194 1.886042095115637 0.1262301094755439 -0.30281398881329136 0.8635582185533063
Ni 8.192575666343389 1.6036943976469944 5.25937875414637 1.9464901579163767 0.5599032218959583 -2.6836909973876555
P 2.899586976094991 2.8008280085023562 9.12853644988498 -0.3995118931576732 -0.9151332624171208 -0.787859799278727
P 1.412317010815733 0.5972913206063738 12.936157469359042 0.3932833957494582 -0.15835347237264985 0.3059772170326215
P 5.3901897442378655 4.0872728886668135 5.231722598978086 -0.062091370014105966 -1.122346950825583 -0.214930597436746
Ni 2.018181411542464 8.23131396248766 7.558156804709939 -0.144709399226654 0.7520199067619823 0.011512371514973722
Ni 9.186315001229604 6.149467637150238 1.9622076712199892 0.04975547415657238 1.138712279557484 0.9311229529771576
Ni 4.751618268450474 8.847254693302716 5.029441639045823 -0.26234045417927726 -1.2532191870588287 -0.43352604531958894
Ni 7.15982471713691 3.4480727810746354 6.5472312229171985 -0.020496577291455022 0.931349467165667 2.2975483264480365
Ni 2.651787607132624 9.152059123171643 3.4321665742923493 -0.5016926749934972 -0.35561133511998116 0.677657175579691
Ni 7.363546974917251 6.10192849573895 3.763764384954005 -0.7456194025522772 1.6296160914655937 -0.018017005402710905
Ni 8.326847775603559 7.885930894089434 7.417439852859822 -0.2610032234250924 2.297801322999107 -0.14991408335604506
Ni 4.9083480211715145 6.631992655656574 -0.02747029880860797 -1.4449116399032405 -1.173509589742327 -0.5681122400693118
Ni 7.059744711693638 1.269480932041073 1.46057133478754 -0.6140061743879489 1.62420237664919 0.02483505676580884
Ni 6.340744807316968 0.7025279289700747 3.616500551728236 0.767331083197756 1.250744500266091 -0.2179045924634054
Ni 2.3223480990007372 2.141675674062589 2.4808853959256876 0.6169907109375696 0.3435173800699245 0.28780388855770433
Ni 8.40366840426971 9.399776496681211 9.42823802940809 0.9308126208255906 -2.108971793524787 -0.6245212149866599
Ni 2.1873198094536495 4.545855234956042 10.18079867261511 0.1991147134504119 -1.1517212902226424 1.882513912174732
Ni 5.676353874503975 7.597243125998308 6.68501455967831 1.6254213366579557 0.4650212877143927 0.6759288800346747
Ni 2.8095195264989776 2.2368815053672964 0.2708965769550647 -0.3418438490222435 -0.3604167269284244 -1.0258850737514074
Ni 8.01257742623936 7.670018645659744 11.711575425149151 -0.3622586652331697 0.057750833657223125 -0.2417795993087901
Ni 6.1193297529439254 9.160623092686132 8.52468002669122 1.2146405554546822 0.06770434532550922 0.7284292639262359
Ni 7.665855098778763 2.57326329516944 12.383437965833243 -0.6728343002697509 0.32525714830815594 1.5928724561876566
Ni 0.6584790606662345 6.0783229159389025 10.778255806248254 -1.5642378231700995 0.18507520463821028 0.4174214264482424
Ni 4.154500049355563 1.9476015478948498 4.6556015932236505 -1.2793917316891386 1.5066610531968956 -0.7057547051468556
Ni 4.1565043826461885 4.3395364545037545 0.8225792935332572 -0.6466982653043314 0.1869451679674135 0.10457165066550378
Ni 7.436431821849085 8.373093210981807 4.996973261858864 0.6917079972458023 -1.3881794773185188 0.5270661207612795
Ni 7.756423631697432 5.998504897942679 6.359057125108592 -2.0873575576891215 -0.9038157805217725 -1.4106565753751124
Ni 4.6135379259381155 1.626598460795323 9.943395416006982 2.0506982545948746 -0.5654784019908906 -0.8615864395389161
Ni 8.399340866483135 4.886601004968229 8.394576930675552 0.21182907569328682 1.2426570952722664 -0.4207299219961851
P 5.799684146118503 7.6819899817682975 3.449928611489637 1.556560766240816 0.4212289731197907 -0.8538772438201165
Ni 0.3007410996524771 2.469830586767302 0.6141186096417608 -0.49726343557755 -1.6405921308611229 1.3793958175886178
P 7.386396374430381 6.539638443988075 0.32117072224747 -0.44698834147208183 -0.1372431727565959 -0.06607966523789265
Ni 7.887625466780598 4.214529831409794 1.5621527680776093 0.15126725494982982 -1.7399482987639585 0.9182355554915282
P 7.638523281179325 1.097654905399276 7.254894800414207 -1.9100779378359294 -1.0690469538508622 1.6330873378436455
P 4.979793392376444 6.85604067512503 8.620419739499704 -0.3454320805941341 0.4252370658379192 1.3335797876957678
P 8.358662011289304 2.086957375228515 2.995935277375354 0.3126443446401519 0.7926006563978221 0.08640320728659312
Ni 6.060356801170205 8.521550533576084 13.364561844776144 0.7058086983132426 0.5083088947584343 -0.03268077806247274
