# total energy = -340864.0361009519 ev
CRYSTAL
PRIMVEC
9.29968216563942 0.00000000000000 0.00000000000000
0.00000000000000 9.29968216563942 0.00000000000000
0.00000000000000 0.00000000000000 13.61102487569276
PRIMCOORD
 96 1
Ni 6.36424663626418 3.334149868668771 12.146164858754938 1.2969374538823857 -0.39683537476677466 -1.026548418367019
Ni 5.275904858664677 8.5422600459808 2.825852502957887 0.7522482207227045 -0.009703857551325223 -2.049089515346858
Ni 4.150382952663545 6.624302942072882 5.174026842996878 -0.09814672097576645 0.2724081228279244 0.7354722868159463
Ni 0.7812430306903373 4.702430672067643 4.8886716824348495 -0.32471207443796335 0.9645069277542422 3.4315588296544774
Ni 6.5354537808049535 6.963908727208135 5.918113924458632 1.1997908920363594 -0.6249223070798205 -1.663708405163612
Ni 7.9660610525749425 5.505848794347197 12.501957670277354 -0.7041523936567421 -1.0657906516970934 -1.7103513018331318
Ni 7.778951451914411 5.378796539664087 4.455310223839398 1.0327961990489438 -1.8671389723805585 1.1004015569027437
Ni 5.54540964132582 4.663474304415209 6.662923591207233 0.275046588892036 0.38889915063883346 -0.19554088005622455
Ni 7.598081937836545 2.335540722121628 0.29559876022045645 0.8094730066731286 1.3835188386180561 2.446183028871026
Ni 6.531417718842396 6.632133274267523 3.2184357862085897 -1.1989527124057804 1.296012628075271 -0.2657587358322068
Ni 0.28661154759230845 5.935057014987629 10.334537528260155 0.9032298261113155 1.632610398207227 0.8647470966550849
Ni 5.379577712947163 2.1691694121903704 6.755477745760605 3.4145450687053005 -2.1812467889401144 -2.1122496929451104
Ni 0.025173309047116912 3.7645205495518765 10.59814259269769 -0.11322238436196631 -1.9199098363246871 1.485975756933402
Ni 6.64304180118476 5.877389687269143 0.8614788265441611 0.298650344353905 0.761340927052592 -0.6332141147749676
Ni 8.960494641930406 0.2515312873730412 10.782231656663662 -2.996350254426143 -0.6791504722957659 0.10770762519132418
Ni 7.23052130878551 7.259461918987078 10.55232770961349 0.6205432041755184 1.2900690088973266 0.48252175849200124
Ni 4.530042467920314 7.486067268852643 9.802442276461285 -0.7083540904429155 -0.22362863943137617 -1.7393587448090755
Ni 1.4040380804634713 2.1241589515941 7.314945681385729 -0.1369456961208351 -1.258942205585535 -2.411480592392834
Ni 0.16030698733728496 0.24025728295550833 13.16723738703148 -0.5559524647783265 -0.22175044857205684 -0.05477503885835083
Ni 1.3737862151081677 9.010433933955609 3.412733111041612 1.5059730259909354 -0.9108845144430957 0.26711242164662385
Ni 3.587445305706092 3.056080078939619 7.140806347128839 -3.6887611912762406 -0.8520358197360037 4.370452170605673
Ni 5.365581691625389 9.083864222564731 7.27593630554623 0.38037208700442876 0.45821763452899794 -0.1642199584557559
Ni 1.1891317304801603 1.2687928059900067 9.50456509416519 0.30972434277987954 -0.09279188442175633 -1.7848150773696616
Ni 2.0649664760372266 8.014177606939635 12.686428021202923 -0.5451970260340353 0.657514639193545 -0.2480644038762373
P 8.586340538382933 7.518151171550398 3.047004519333028 0.13974459902221095 0.21880936366586187 -0.9629544956654577
P 6.075742603396801 7.698657998032552 13.36783617634798 0.0835161155467852 0.8750929586657833 -0.2461810708105954
P 4.915681678665389 5.093435799292894 3.876338065278621 -0.7685904095261537 0.4913758664485215 0.19677398113237726
P 1.965041393577117 6.696775363442043 5.58823746657045 -0.030513338097508735 -0.4404191728949963 0.11105622994858294
P 9.06489287140432 0.036092995582683314 8.086922508989677 1.3508339467905253 -0.3927961717003945 -0.06080273310966947
P 2.9789578165997685 0.23625097997516253 11.22740743119744 1.9279694734043697 0.07022942574020809 0.9295247552521023
P 6.450724378637056 8.632373963992755 4.577550823086039 -0.3141947198464073 0.09053317029456667 -0.2532816864111186
P 8.327753582320968 2.224874507019227 12.003398931495482 1.8169667224015418 1.0098722432629188 -1.9774850636359942
Ni 7.908589018177225 9.09451235838761 6.110056569824098 0.16422510066207846 0.22735031125733746 1.594328729018209
Ni 0.7096987175789259 3.446601622703918 13.190158313112397 -2.9385050612829007 -1.2859580720527466 0.7865904456480002
Ni 7.004529737928075 1.3218474914655698 2.2805405431839287 -1.632244530227376 1.8986205879286076 2.2571110443685964
Ni 3.815994289097405 0.5150433549911602 9.242783697356362 -0.4499749349042315 0.4942261914131231 -0.37272845441624197
Ni 3.2028290599745683 8.082288477478288 7.740916682742368 -0.9495551915404162 -1.7301991897969944 -0.4633935223029826
Ni 8.70317244261247 2.226799541181092 5.534447176253324 0.7534476403474443 -0.4067076395751641 1.1730663315573218
Ni 4.922628541075599 4.278402374268558 0.18250718806774321 1.4880678635757403 -0.015398593943257351 1.60857881117932
Ni 5.594288769609705 1.7548313829742022 10.201259136517294 0.7992999227948686 0.710398374566454 0.08952941162040064
Ni 7.5471568795255575 1.696271285789343 7.986663567947872 -0.3778603763261686 -0.09322177287032332 0.0012040476104301842
Ni 1.414184033461515 8.951966833590163 5.950739998613569 -0.24721542561238066 0.014227970673923883 0.25711957209997005
Ni 2.7817673607147833 5.354449972341558 11.008038163850461 0.748718096082259 -1.5732145727474132 0.6144226931000772
Ni 5.328559657816761 6.304086993785403 11.577523716862839 0.03571699378563526 -0.2672864853306429 1.6825023979416638
Ni 8.606288356147191 2.8574202733078957 3.2353946861968867 -1.3922292219078605 1.794021169348962 0.3348859296471717
Ni 6.503304780333609 4.333112403129687 2.658614462669693 0.06444058697257289 -2.0552447363149766 -0.6649217302908936
Ni 2.9128370779965693 3.70280786018889 13.063099548651927 -0.569069975996891 -0.6522883577975992 -0.7183392266800855
Ni 1.0854774755615577 5.641317261187255 12.698990961537529 -0.1043379373881429 1.0145207977785238 -1.0026970656707181
Ni 3.3073109865859536 2.453674581822957 10.967573387787136 0.5339710754112287 1.400140763445453 -1.768329678120129
Ni 7.984558119956344 9.022430523659986 1.4646552672937634 0.04599446445224337 -3.321712046632963 -1.6084682537433845
Ni 0.2892786963730957 1.3766784161919363 1.8272526560926856 0.9547912431283749 -0.18216805829374433 -0.3992362708987834
Ni 7.315966786462893 7.705372368394227 8.024610920109666 0.006817794252781807 -0.008323689374346955 0.7061185162441775
Ni 4.0584834957188445 8.751502889661811 0.43244357998783806 0.9260416817995084 -1.2709698261740305 -1.1639065194349245
Ni 7.136427126902643 4.007763030410567 9.752639689760622 -0.7901475668716392 -0.6945192414423522 -0.6121318401833715
Ni 4.443099741450368 1.6834842231199476 12.750861797501956 1.23786584453121 -0.4099181760926618 1.2502493057972273
Ni 1.7863573047554746 3.4476803858091176 9.118093561886363 2.103809275487241 2.061641898090572 0.6985512454198808
P 8.421001493147168 4.579256384754087 1.3397047407294045 0.4584104672660944 -0.2585776447027353 -0.6278196832322737
P 1.026731384737871 1.634698091655477 4.1582635031406685 0.09106024644263028 0.24590442011044103 0.6445547365987674
P 9.149743169437455 3.170931150915641 8.305719845897261 -1.3359184631312733 1.0352359188386882 0.4341829621772974
P 4.60808539877236 4.314364244335868 11.720085981087779 -1.0721993834369148 -1.310416462205427 -2.033283658662853
P 5.172194805654427 3.224134631302266 8.577163612243181 0.9604330147951847 1.1661636909002175 1.3077502282271738
P 3.153187357771491 7.969548433302959 2.2320585113189413 -0.6022307790195758 -0.2815735913772764 1.1668818000131644
P 2.3103850824702 6.511256008393487 9.428070560356383 -0.6993570291506279 1.187536757259355 -2.26731112483005
P 2.1160868276689833 2.6681531464369646 1.4854391264645497 0.5102459638801471 1.8408031626995072 0.0941820799010636
Ni 8.496245219734861 0.14368380586707125 3.936362862369247 -0.7954090723808948 1.1090723452038642 -0.2894216266667854
Ni 9.100733845606392 6.796123865621787 5.8559120718255295 0.06799899374779257 0.24252161968113717 -0.027462209976010767
Ni 1.8016924802768073 4.966030156696011 1.1783701385375973 0.5606964072212149 0.09637780200080176 0.6931817535778513
Ni 1.5678891765886154 3.587714996482392 3.3027699518939784 2.026628872350497 -1.8070808307463977 -1.1943334684662141
Ni 3.2909342466871867 4.150736340577317 5.513893949194684 -0.3808030038942603 3.592772140073425 -4.5385182422803965
Ni 8.850935088979028 6.81611818179575 0.5244685826387471 -0.2182046402023274 -0.11540910760063995 0.9997747498176007
Ni 0.32212982283101455 5.690326585018318 2.9285070420677917 -0.7772138895291065 0.20667092853111504 -1.2022540088648714
Ni 1.4888790788146653 8.328534755604045 10.275833286005206 0.4535066022065738 -1.2018302910638916 -0.7017314429200754
Ni 5.450534286159879 8.874398186517126 11.515049383548853 -1.4668922579393897 -0.2296920720166367 -0.18534619891140985
Ni 3.3635275639215854 1.9934147231802621 4.67572756534117 -1.9976754225409405 -0.8997562657404181 1.161158267265826
Ni 8.186156625081543 4.3282486694743465 6.642138802068251 -0.0008883161422242766 0.21316116424114903 0.8310324780114592
Ni 3.686486918381771 8.930196278165397 4.364252388110392 -1.0860918251482907 -0.39829421870048826 1.1642623601124464
Ni 1.7266440470098843 5.023306897772959 7.186689117891211 -0.7843109055852041 0.3275518578796036 -0.24393598353016055
Ni 7.239793091681064 0.5186693009801034 12.5478125419939 -1.3963936376981951 -1.3868864695387082 0.423828872636483
Ni 2.673444665461609 5.708135475936057 3.389785215883067 0.6290625545004392 0.9526428293268046 0.6636850296703151
Ni 3.7562159335782255 5.317948720721648 8.467854220736028 1.2962558544343288 -0.5598739113199197 -0.2875922867675305
Ni 2.3021083655423733 1.088825361060454 0.2908168637661997 0.1195688954052844 -1.2644124846714868 -1.0987503944525658
Ni 4.427615771017973 5.993840304539082 1.5520108996419062 -1.3298612011936 1.7686960603206119 1.034430135107941
Ni 3.9096699852929087 1.013088751329869 2.169842709162926 -0.1884718890245851 1.1786073159802086 -0.011681807213302463
Ni 0.9977349764446534 8.318695692110067 1.2848217377841662 2.1346257466474654 -0.35586201767820647 0.6005865585479334
Ni 0.5151875000612515 7.090403000974762 8.150363079257371 0.02249458155809029 0.5085420938151629 -0.09953768778602214
Ni 5.522113938062668 1.3198015614384666 4.220302611339797 -1.4520119983934479 -2.007401648689769 -1.2277896912421307
Ni 1.3891771887211488 1.5780909276783075 11.731396254264885 -1.0917243408437198 0.8506620793169286 0.6548576611866722
Ni 4.185070766304886 3.299852641668968 2.921838240147629 -0.5201809636056719 0.7766364197590818 -0.8629488671040816
P 6.695966291113144 2.6555148786786313 4.999084016220253 2.4283457435792886 3.2534533714658807 1.315026964394245
P 7.915098795536189 5.882262720606424 9.06151243701863 0.020585537460835517 -0.17804503726430626 -1.3331874373533557
P 3.147588949242781 6.22343085230783 13.043431651314105 0.9458258064049713 -0.5998658783318249 1.3585413427371118
P 6.843840533662999 9.386633967530184 9.479534070251777 -0.5826469433503771 -0.490067174939427 0.7299223035319945
P 5.565022670540187 2.54532294735524 1.3165810815821672 -0.8888051660455532 -0.7949627288720954 -0.5098561846408961
P 9.10227759280866 7.552857584555622 11.991013615085953 0.32759453819208095 -0.055102340290782516 0.1527929475657369
P 5.062765448250229 6.900745287462293 7.278754109174468 -1.6413040693264829 -0.9424013541044544 2.3377518952501157
P 3.146640381684761 0.7853999885181334 6.860174495024836 0.908871854888441 0.21341673189538082 -0.27533686643894517
