# total energy = -340872.8807637191 ev
CRYSTAL
PRIMVEC
9.22104752794465 0.00000000000000 0.00000000000000

0.00000000000000 9.22104752794465 0.00000000000000

0.00000000000000 0.00000000000000 13.49593513491326

PRIMCOORD
 96 1
Ni 4.584446511615826 0.07249771781923749 8.81492375970505 1.5054557200348846 2.3666534087758144 -0.1726392928677027
Ni 6.870436339471536 7.155993731222718 3.1156710756552766 1.490602714182452 1.259171805097838 0.6337401624817667
Ni 9.24834156648043 5.96007922703201 2.9951390784150154 -0.3485819390770255 0.6688208082349836 -0.051175237322234446
Ni 8.696572540143332 3.668400013012825 5.575481332904764 -0.4461666169017348 -0.2786759581145071 -0.6396020205791823
Ni 6.79904699153374 4.661294719535431 1.2203567341802093 -0.5245423258981612 -0.3688031512199068 0.5130898610868454
Ni 4.756944642831576 2.3988093411622113 9.720878744179513 0.41512106044983993 -1.030399416681993 0.93373082291365
Ni 6.551756945938829 6.337376818038312 5.715055714855222 -1.7959415263001264 0.7964521689334283 -1.1993851719575086
Ni 8.264271402191932 9.04028707700478 1.7592891406175133 2.2844313294501046 -0.4840520790935986 0.20533472621819476
Ni 1.9009649992400226 7.196234381494037 3.956602923224787 -0.23218629919340011 0.6428513807544155 0.1557718276884027
Ni 4.4531387985398485 4.599301618762272 10.338007475646796 -2.348617120099394 1.3756764597555018 2.8018311307662134
Ni 4.72923539579553 0.9976251037703574 12.047969546016514 0.882482566261635 -0.11705949871986937 -0.5331691483352237
Ni 9.028198284038305 8.282695054630542 4.121105484355693 -0.7961724329094805 -0.3862635127881993 -1.706068872407694
Ni 0.5141130356146006 1.6651182733029264 2.226829432802842 0.6705120798944776 0.10140353735016729 0.12499752262002344
Ni 1.8415445706542366 9.16064018592807 1.148732249537116 -0.2506164808741297 -1.7734400027635004 0.6462763472755644
Ni 0.8692506058298773 3.427371058511916 12.332490492054934 -1.0240282230483266 -1.762124063530049 0.9102746487732387
Ni 2.1883389373027198 9.192757093557539 7.766006580514388 0.9244596820243692 1.5309456367758731 0.9538785015061185
Ni 4.849496294246154 2.5609430152503356 7.412939135410457 -0.7087672667209342 -1.7465614332051016 -0.7605405426384837
Ni 5.2174160801823515 2.4931222126047032 0.6506767456325228 0.18668882898223332 -0.8645154402602532 -1.5748279399811203
Ni 1.4192943742234 2.2576166654164704 4.491851521279096 -0.4483857360402406 -1.2148328739711467 0.08208092576215541
Ni 7.454709557423298 5.885831354441577 7.637349918527551 0.8626971561045916 -0.9353503607949439 1.390029128932748
Ni 5.6095134520515 0.6700215806930628 3.742018088074951 0.44224645591172224 0.4573367745859414 1.359125754485672
Ni 7.861127215697431 2.422590422062699 9.232015702294966 0.9170050255185368 -0.4134835248464169 -1.5993680912143295
Ni 5.6062584223664 3.2074859653932544 2.781930945622079 2.6143414031492394 -0.7173724918914419 2.087250599797612
Ni 7.9505898162777076 0.18539376581805084 10.97398956035531 0.18678730223331055 -1.0570224185861603 1.5125689340408983
P 4.917058907568322 3.2125022151062694 11.99212319535125 1.0020321783932098 -0.7010958662186054 -0.9894355726751216
P 9.145296363276495 7.240154229624715 8.467565064963852 1.7983717330081739 -0.27434673461153397 -1.947910178192355
P 2.935243765895001 0.5668887775400953 10.144421731437124 -0.22679418164355133 0.6233251377960297 1.0088039498994046
P 3.7237078545177202 3.714099523265953 3.7247295465548564 0.24014849146327027 1.9308365105395198 1.1869736856670332
P 0.7379788548382407 6.922415382913199 0.7261030680636232 0.40992871761562305 1.076126486405463 0.686287083340547
P 4.026803678169921 0.26006580658274586 0.9692159792467777 0.717436512360158 0.374552137888542 -2.1995373597191863
P 1.761035606969802 3.0136411097553912 0.8945319511206361 -0.5817331732868563 -0.3654838570386867 -0.1729725078374053
P 2.8485751426364967 1.9065160696944985 6.889458437877746 0.7331192132027374 -2.49337022807979 0.3148706628675093
Ni 3.2060659241142027 8.847391989235375 5.339032472581161 -0.676875303108344 0.4760430927461931 0.10814008474305246
Ni 2.252996920735918 3.6998253420973004 6.193554299612145 0.15640380484544678 2.7085471371993872 -1.3711646879280774
Ni 2.6586031268505934 3.736303805083857 8.642338028540266 0.6763104317438094 0.4649156153744638 -0.7576627068700564
Ni 5.6126762712639335 7.9368688979450495 10.886225476681537 0.1484189868677573 1.0248754015399704 -0.5410740050045971
Ni 1.5092549113560703 5.578705933133884 12.690119589241636 0.9187019536049854 1.3233946196326498 0.12074260399841141
Ni 7.187548154968926 2.6702954147846056 11.51351672434131 -0.5237967059813883 -0.07336771425887365 0.8224020560299706
Ni 3.3831838000105057 8.172383666180549 12.408783592929092 -0.5165287115650652 0.5428562937160006 -0.542237429185079
Ni 0.239604302698224 4.756972305973376 1.0362031992195122 -0.8456137182597435 -0.9920359864124465 -1.0268561794154252
Ni 1.5726496113137487 7.255544157512624 6.946951667584819 -0.5682292252631505 -1.6491834720745597 -0.5860240873527263
Ni 2.4348451938799722 6.238923696373129 1.859024909957476 -0.14793690502501616 0.14395298067660367 -0.2807863195892906
Ni 3.7140626390768867 8.462689897274014 2.8667258520760157 0.7652852564123208 -0.5735403530634188 0.15751272163890936
Ni 3.323265434872325 3.881295552303425 13.165621333636922 -1.406326837651507 -0.5117670285103637 -1.4686586058111932
Ni 8.061703435839894 1.3797914077334081 4.385909065024004 1.0827522192520964 -0.9993924267775176 -0.9684576848718741
Ni 6.1009307240288875 5.629928850699688 11.828134246553091 0.6736025458943431 0.45904527263661593 0.23315637641615328
Ni 7.711497281702778 6.924490118548177 9.821774521265612 -1.0350569700586625 0.6651515869135125 2.474692706274945
Ni 3.5570835304107753 1.9957481440931097 2.407688287575193 -1.6380505953861917 -1.3198508681454495 -0.7579329298123075
Ni 2.56859648448159 1.3500996355350483 12.879737516812504 -1.0408933742347817 0.5719071883353699 0.37904282667004396
Ni 7.235626695416829 4.440542847973712 9.793621741856043 0.2726768031082788 1.207703976235849 0.8359800518247216
Ni 4.119853266136893 4.407439288286722 1.5964343806331427 -0.07646949311264895 1.8373743395236164 2.0846008208795905
Ni 6.679302471730045 8.286558673435236 7.684328388036553 0.5378128177548221 -0.26388157341415197 0.09916564915858406
Ni 0.620274952794637 8.346670680566014 12.464642853060528 -0.6162026678186355 0.20857303064983435 0.42259808555317535
Ni 4.255826829129755 7.679149847891646 7.249192700155409 0.3959277753508407 -0.9817276625079029 -0.4150660388421884
Ni 0.8123908620700182 2.0667686501402427 7.5584657033714855 -0.5004950551409703 0.34311011732917684 0.582402688550055
Ni 3.8683953071774915 1.8982816744854503 4.818764387916124 0.15664446010134314 0.6035888357093669 1.44944500899722
P 6.46453505984433 0.927480597213549 9.756157548916688 -1.6139403326015493 -0.5537713979666076 -1.055300807909363
P 7.565961492694481 7.52064926642655 12.184210519380105 0.20566074209904578 -0.1811820402313912 -0.8814803502493659
P 7.134434922713474 1.6163942595463634 2.103395571987791 0.1204530977824506 0.7662224235146095 0.6720303163112168
P 7.323549381103587 5.177728692747028 3.7774850021763644 0.4332172558299184 -0.9814132165912776 1.1671042004366157
P 5.619564393572062 6.349733021375517 9.36995795887924 0.17272516771328963 0.9385619257537062 0.13593345280623687
P 8.122387147901199 8.719542168884361 5.978510256308433 -0.9318711439970919 0.12211248776274454 0.5983764382704921
P 6.7980050131926175 3.73887647727123 7.023715963974299 1.619074054283689 -0.0914644238595844 -0.9643958560976745
P 1.8590645604607223 0.15051792084642457 3.4435954911774482 -1.5526622025173582 1.0199504534345272 0.9156744796325713
Ni 6.379784414417274 2.574202881219666 5.179618085331948 -1.007273629297807 1.1185229490938027 -0.41903916455732354
Ni 8.722834082758528 0.21493523494596556 8.739575816175714 -0.6013807723144545 -0.3098816942933502 -1.5183667716695979
Ni 8.922930808443127 5.086283567004439 11.181300833421275 0.12925526945511287 1.16290198942981 -0.36499817565151976
Ni 0.6604049504987555 1.5487117726097293 10.434004110320164 0.663794815775302 0.6545830673690468 -0.07910487385296698
Ni 7.677720585565327 1.5691824975415178 6.813449345259398 0.7742828319252406 -0.34940726319179827 0.9136327666121944
Ni 1.2028948369715031 8.399894565388664 9.924923922303657 0.14889721205575648 -0.3416823837437148 0.8897179076678097
Ni 2.6078228195535846 2.883679669580334 10.934973465160994 1.2494957154606545 -0.40333383800692474 -0.8586903489380437
Ni 5.518658473333972 0.6085900416984377 6.262343312220766 -0.6920869778517759 -1.089317788284756 -0.43147481921751496
Ni 5.7560912194009175 7.936269529872722 13.25837953651027 -0.5462012989288335 -0.1644171620682265 0.3372677996157869
Ni 5.465701998882052 4.439565416963456 8.472909583959556 -0.9725637366204475 0.6528005215473273 -2.5511843108747807
Ni 8.834251996880509 6.171112114774763 5.563482906201502 0.7782497869927887 0.7185426009401432 -0.012640828692462101
Ni 0.43301853542873864 4.514799941611412 7.505993333901062 -0.17025742289908743 1.1200699818659485 1.1445862218397578
Ni 3.449934961173216 7.511953818854173 9.564676969797974 -0.12080148226080485 -1.2525311598528688 0.42507508633875823
Ni 5.216014480997832 5.829970250100688 3.845356520581963 -2.0125639096169983 -1.5649168515149954 -1.2793755337392223
Ni 8.388331372116383 3.4285052473257043 2.9692675860991966 -1.47045992068599 0.1668327134882546 0.29860920670332447
Ni 4.85819174181853 4.293402596741033 5.809257933730516 -0.6531422211574622 0.7027791674582993 -0.3663750013943884
Ni 1.6399724774069864 3.8994886785603704 2.938861182737677 0.7886360153231192 0.41824469368048617 -1.0312622789029209
Ni 6.066121270597581 8.850822218818537 1.843611929451402 -2.022549817185117 -0.14140630299535 -1.4086662844179612
Ni 0.8921815061723871 0.2856920190412744 5.719064104102 0.17443649397744151 0.4892503354650865 0.9263471288550691
Ni 3.4691977289130835 6.314121336832018 5.374891281191404 -0.40416404721770394 -0.6994076798829052 0.5528712547498413
Ni 7.002214325958107 0.9966845569491672 -0.07527417515120213 0.7900046135358717 -0.16617091153453964 -0.2021606993655873
Ni 1.521528125267877 5.887601795516758 9.583395695749115 0.05997689477426444 0.08541384679013031 -0.5249724714570443
Ni 3.948563092113063 6.099151061906439 13.436728422216662 0.6930264589469096 0.4161106780566189 -0.6454754486408238
Ni 7.823717426936952 6.826156870497461 0.8976578861440039 -0.3712613829524122 0.48187461182630553 -0.9134975265859107
P 9.038867035725728 1.4481931363568348 12.488801074794218 -0.06810646585993431 -0.6326055346566912 0.17497231187625348
P 5.082014222120017 7.931225617017908 4.9733192832558535 0.8060683518669538 -0.117392713689572 -0.26507096573656286
P 1.3085957017882108 5.232243524186998 4.616419570907935 0.6064286191510072 -0.6764371871296609 1.1594199444184807
P 0.6543789961100511 3.8170248528554227 9.634356735572547 -0.22037387993950433 -1.2012667052509376 0.2923272303493546
P 7.70350263372266 4.46300531911508 12.804133228169158 0.6790355439844564 -0.7427081424427532 0.3894439673987099
P 2.933805282521416 6.263092061258812 11.29937726577445 0.7816122757071184 0.14713703483154014 -0.027927836758519644
P 3.1716160915262916 5.719262356618232 7.461132938949192 -0.2010438121523247 -1.0050385693197013 0.5706571179783527
P 5.456370299048282 6.447595996015639 1.591832155942397 -0.7850233582711964 0.04764871222621471 -0.7768323378199717
