# total energy = -340860.01955279947 ev
CRYSTAL
PRIMVEC
9.35311485724854 0.00000000000000 0.00000000000000

0.00000000000000 9.35311485724854 0.00000000000000

0.00000000000000 0.00000000000000 13.68922902092406

PRIMCOORD
 96 1
Ni 8.444758772611461 0.964848590917809 9.81102901041372 -0.10275105251699723 1.774642507712034 -1.9628076641294776
Ni 1.2143896871554942 8.132243156097603 8.801557645281504 -0.938259564021939 1.2069087340280635 -0.63084767142532
Ni 6.957641618244773 4.673433335558443 1.8612697957758388 -0.34223337115117836 -1.5016234907729882 -0.43383020682356893
Ni 5.121597172414701 8.20974306327247 12.422975103546698 -1.0502640168164041 0.5618719155865549 0.2723525869996406
Ni 5.936524690184314 6.529727274392812 2.861609715171291 -0.9284104391420012 0.9536591864064609 0.5906039934139248
Ni 7.153617427445231 1.650254178376348 5.228395710922571 0.892641766182824 0.30638910775905936 0.08085193845106076
Ni 3.468855065567617 7.158724227990425 8.901544310461418 -1.007615586018258 1.888275754359174 -0.5065556595127534
Ni 8.860869485899256 5.810912361755824 5.777744346932807 0.7727226865269723 -0.9153412646628687 0.17792830918078387
Ni 1.127340250023405 1.5011187668504897 7.660163405332808 0.2644330750422478 0.09819557193583088 0.6529249629403335
Ni 3.8750140649724703 9.316469048824066 5.778784413270949 -0.6024899462182333 -0.47200517523139357 -1.6962063777913174
Ni 9.146410720046195 7.214253669083496 1.8831448600892084 -0.951990026234154 -1.0792130957505863 0.9868585559765648
Ni 9.493037145329877 8.716260981816392 10.933422398150762 1.3240895888171453 1.9290740193224587 1.2741734207129927
Ni 1.5911144350663446 6.621434562571616 0.3629737988970332 -0.30181048724944154 -1.457586664267748 0.06831806765010814
Ni 4.773810960926616 1.6956635495245473 4.144003092297375 -1.2077304585984103 -0.12740844605436122 0.3020560276013443
Ni 5.57268853412562 8.25150471974553 4.68112720758862 1.3367378737087754 -0.02245472945909036 -0.005551268835532375
Ni 8.88321407656312 1.7498554952367344 1.766608794021627 -0.21050521467554068 0.7224244524930525 -1.838299679551363
Ni 1.4691498213129932 5.89451985273291 7.445106307135554 -0.9125852991842863 0.17397986605599713 0.5902455816332416
Ni 4.169871001212838 5.3832599051113075 1.9317969560524604 0.7025562528142159 -0.5492624543526604 -0.956062910751947
Ni 3.5276206842955546 4.104651733444271 3.786509283216146 0.884246085919961 -0.06157200717552622 0.34975436211857186
Ni 2.743090788818763 9.152228357297313 11.571518996895666 -0.05993652845463226 -0.056921395777392296 0.9093701346810983
Ni 2.57473472688929 5.487107535978137 5.404767392022798 -0.8141495862131913 0.11043479431450012 -1.4750447118431953
Ni 6.505671063766 9.034023695593719 8.753125347510215 3.177070781640083 1.422446368921189 0.0027194558136920907
Ni 6.234084676530106 1.4271262776324865 2.186265273035948 0.20897078030888527 0.8666384001405268 -1.0996212270932932
Ni 3.6534948999314905 5.092219039608007 13.13560854277651 -1.110643803456042 0.3900438057662379 -0.44415832822245443
P 1.0131106620042578 1.3650964219260273 10.773382190369153 -0.06809849544013433 -0.1334515669246476 1.537806111341132
P 1.5534120303086945 4.088676613790074 13.538660437527307 -0.0382533870542438 -0.43188002507573364 1.0986943444036497
P 8.44063404909419 6.667049702239951 7.606173486894937 -0.07323401689448678 0.3634177185382773 1.1003609334727953
P 5.000558517001961 2.3510549923868815 9.494219379009202 -0.715719015448419 -1.0595798949006914 -1.8319328567930708
P 0.8724950025234863 4.345485080034382 4.463413824858702 1.422102612428525 2.696949662169775 -3.048599955759479
P 0.4753617586609631 8.731525264764663 0.7173754683074907 -0.2820865264579529 1.3797161770425141 -2.360966642803682
P 5.3400952814555005 6.278970273263413 9.01172867643698 1.0932130095741044 -0.09442684892201803 0.08082339920597048
P 5.764380616861428 4.409207849474687 12.244755247011069 -0.2613500652415499 -0.037718083376064075 -1.5017109082804718
Ni 1.9047617784409525 7.947088900433388 6.0313923957701165 0.45080360145311393 0.01392432339057602 1.1161624192814261
Ni 6.606525697976306 4.919616663672091 7.751649024696739 0.6705097659016324 1.529885570942475 -0.8847515648014699
Ni 0.675163927024496 7.064790898548331 4.273722373325489 -0.47664704487877907 0.04384167977529869 -0.921368187583239
Ni 8.390117877400796 3.6813484750662666 12.306150961550927 -0.05363012662063022 -0.1130894583285278 0.8088340875375489
Ni 4.657252447384111 3.4463608250709292 6.141700222857762 1.3346807340694307 2.404698279363678 -1.1906894439557236
Ni 7.086396593162613 4.149743098697715 5.237649682459962 0.0031771121764009804 0.865708946347722 2.186218531123093
Ni 8.219919251904651 5.73234619952207 0.07968853597995049 1.1216856630925005 0.17962009506091 -0.5431360297399483
Ni 6.435485292170513 6.609967644131308 11.047440605781045 -0.27800181486561804 -0.5013070095193044 -0.09431372038292143
Ni 5.85692968534988 6.003979352330723 0.028549446857417938 0.01918685734109599 0.05201161718060075 0.22766887093902083
Ni 1.5144750144302281 8.918727852515685 2.645812785613003 -0.4525442382933045 -0.8254279873404881 -1.092413910711577
Ni 6.588932489504676 6.5616681605866525 5.989844925620288 0.4626635861154935 0.7656161573891781 0.4690005840771148
Ni 8.878696522234678 1.462939353250706 12.552406308646622 0.2544227419940973 -1.1380113968357175 0.2844118321570198
Ni 8.625348708374476 3.004987349379161 3.97443486672201 0.5968949686289591 -0.2609050072843313 -2.2507583626776917
Ni 2.531719753066309 2.6005119105936023 12.050723950325896 -1.1598480330948346 -0.8965531854220882 -0.16686099562302875
Ni 3.7202200191428716 1.4261629068336679 1.8075801123150748 0.009286310397932394 0.49517261448679234 -0.39635097893118837
Ni 8.186070330342275 7.613154651596279 9.63595741223617 -0.8773987239808243 -1.9203703209008733 -1.3968767479822009
Ni 2.2646789795025106 6.400467231289182 2.4854162241669737 -0.48997692921846575 -0.8234757487101237 0.8362914124175533
Ni 2.9998150770321055 3.396910908436422 9.721172703604683 1.1535994810819616 0.9570242462239519 -0.7419537807752319
Ni 0.6927618120534017 3.2103162731312564 9.622665701146838 1.7675598898336398 -1.2619691653373168 2.768804025107915
Ni 6.110586151990286 2.735945009301312 7.667706692218704 1.602370625486079 -1.4215377410639907 1.055434248163434
Ni 4.146619158437468 5.693325005612638 7.024258241327355 1.0450451916196262 -0.25409724033387854 0.41464334948247294
Ni 8.699677909716339 0.6281177608297599 3.628124576710174 -0.29457257474010556 -2.1096454225530445 0.8432035661563544
Ni 2.250593188987745 3.2605612045026526 1.9828574790127593 0.08786539365441642 1.8578547188651553 1.2880126405889303
Ni 7.954197267492632 5.740333759349168 3.5548055117398882 1.3422472335627786 -0.56740441536901 0.9827635599715848
P 2.0917585976718387 1.3242794300226817 3.4185558861318217 0.9906501618085133 3.0551719525500416 1.2364478811377608
P 1.7181952024794418 6.242764366834025 9.590974543111527 -0.8112727788860284 -1.6620400163222537 0.9659973962568396
P 8.788869210080753 3.0446726144217586 8.105200495994453 -2.74004109404261 -1.021807561247924 -2.0964232674358154
P 6.439217184876616 2.908678328840951 3.714682040016847 -0.30213984556440227 0.6226149991028825 -1.9910777147187644
P 7.2726825756875755 2.953610691147017 0.5859361495133305 1.0070160047610461 -1.4180433547574867 -0.5566237798137382
P 6.181192813740595 9.629405555492749 6.315827156465596 -1.59005966932921 -1.5112633278555971 1.4715176725265433
P 7.928522968048388 7.832849959299689 3.819048768741293 -0.42994835527065955 0.849161326401686 0.6156786769943654
P 2.5191117546507025 3.9687229196653253 7.504791337023918 0.8682060017379628 -0.8612046307194653 -0.6459030230965457
Ni 3.215582076623828 8.261793145752332 0.4411097178614118 0.26462847888250557 1.26253943601849 -0.2561988600579136
Ni 4.510389842694301 8.886824378780052 2.7706179402556868 -0.5802655876023942 -1.0511207083897447 0.07231253352148191
Ni 2.7976662122275666 2.5385849391472113 5.600865727023883 -2.4725931434334383 -0.47529567305720727 -0.699757092802524
Ni 3.7239051462762167 5.4896235237925275 10.507454437436998 1.1090872576021997 0.5904273586267444 1.1263586430881376
Ni 4.744208353370684 2.4315946617910313 11.552093513283369 -0.31848203436785155 0.31759628932878853 1.4900571260916273
Ni 7.967703164905197 1.0533009952326438 7.405051594068167 0.5226849609744482 0.4930375704216605 0.5528563423515059
Ni 4.0873952370965 1.5303378967098051 7.3086518483188065 0.5814354395407793 0.7211841523280482 2.4276237778115997
Ni 8.723930535748734 4.94011869076928 9.186663719142077 -0.9454224003189652 2.335033210767372 -0.0726336643063265
Ni 7.410687780896985 8.149452886872615 12.999428130216124 1.0383994041683342 0.0317189283698357 -0.01280152264004247
Ni 0.48545096332781434 7.046926449754703 12.152283809373396 -0.610458823356323 -1.610458544700536 0.34097918702910307
Ni 0.2591804160946028 3.327557564036031 6.039523058249856 -0.5951003386223817 -0.5093725601362582 3.5209293470995107
Ni 5.8896094675933 4.303199649146429 9.858311810406612 -0.5594885029560429 1.1834301912901488 1.0245033629125324
Ni 7.0098600567865645 8.633906808189224 1.9204347924951313 1.2247239078326133 0.141458239279208 0.1426633153309027
Ni 0.21356059986899148 4.692710104649368 2.117573193834358 0.33989006772998237 -0.17370372957647504 -0.3282414277474605
Ni 1.6233920333840453 1.8689206434790782 0.4479702273850379 -0.8017823228970901 -1.9199869694195257 -1.088767315097925
Ni 4.79200276872955 9.153434909074475 10.067004114151475 -1.3090033839079842 0.5817876806738754 1.1816412177105262
Ni 6.326325092238353 1.12148520031408 12.97233776922876 -0.18243622435346646 0.2555504278406373 0.4223042084618404
Ni 6.874137011527754 2.510254355170302 10.747399238144702 1.335057914903191 -1.1616048678849415 0.38777223612324185
Ni 2.7089893331634927 1.1729460365771889 9.560502095902292 1.008840973784927 -1.2867702835413968 -0.5763045460721172
Ni 5.0820147916321705 8.082381702422822 7.545612070173085 -0.9552057049579743 -0.9054605152140471 -2.0938351949936647
Ni 5.104471619670652 3.546953572073789 0.47859700098437447 0.24317956498011023 -1.3406855455026137 0.21631899314384034
Ni 9.029291019630591 8.890444034111534 6.003944745806881 -1.9039088329107405 -3.0211593430500225 -0.0016694172826229314
Ni 1.7392490633351776 4.778019862474852 11.454667730867694 -1.84462767865192 0.9451519202663979 0.0016421635891133008
Ni 0.7942561992990397 1.1873778923303655 5.441030352450951 1.7759753675908445 0.8242915597431997 -2.4584932136969466
P 5.346156099684962 5.286614172449238 4.880127814035078 -2.1356626725524124 0.21682730023882657 -0.7256468160850922
P 8.433132851223776 5.5492028634864585 11.37392790481214 -0.02934065794564624 1.3814681267366142 -0.34953093325385615
P 7.0321578818776675 -0.16935123331776708 10.918624835618619 -0.8649278452073232 -0.7124871387746826 1.8304135919350673
P 5.299540176759601 7.80115225408419 1.0641253547032536 -0.7089534145898113 -0.07437121582272353 -0.9236058186645061
P 2.853120828404225 9.192465456098457 7.742750471512311 -0.48159770401583507 -1.2862383222973268 0.17402691724384867
P 2.675149764715669 6.974552049354134 12.094104630927845 1.2689656512598082 0.04508352260219978 0.5867427106863057
P 2.7605811130303244 7.767761635134845 3.9969263012843324 1.633956113601844 0.49881715321791503 1.4619994486234629
P 3.8527723585686764 1.10766129700676 13.295389669285042 0.021975218719510543 -0.26546460163055574 -0.25889543305347024
