# total energy = -340867.18479004403 ev
CRYSTAL
PRIMVEC
9.28645712196931 0.00000000000000 0.00000000000000

0.00000000000000 9.28645712196931 0.00000000000000

0.00000000000000 0.00000000000000 13.59166868747361

PRIMCOORD
 96 1
Ni 1.493615214997708 8.04142194707075 5.715609221296198 1.0188417937513807 0.34293631075547387 1.5038338681607455
Ni 2.408461266865328 2.504241787186933 7.613020028763181 -1.1718761679039622 -0.9492440880579006 0.9829450798547715
Ni 8.477885438937674 6.233896616847987 2.9479784323906686 1.5612262900372855 -0.5453176107722995 0.28064310914320695
Ni 1.9976191106167196 6.681550289729795 7.584110358624225 -0.9687070818785188 0.028686055080782855 1.2052603997913631
Ni 8.055908820417821 1.9165019063303883 9.514398939423243 -1.0503694320460168 -0.19105430503978066 1.820308385180265
Ni 9.119273183464754 1.0884377976860964 13.258442205984268 2.0152715383561484 -0.17431976589391912 -1.3652868889910617
Ni 4.253633894875932 3.398016867500381 5.881183039904506 -0.3096461812437764 1.6522405137333285 1.0589288915802537
Ni 5.051981340244178 0.16936176453027704 11.443165469875092 0.4274847242215154 0.5729294589522972 2.517222094996723
Ni 0.9049355446650583 5.856002811006695 5.441043968248627 -0.5946907618887888 -0.40931190996723055 -0.8249816438316889
Ni 3.677307070008844 8.558556893274865 6.88719795741158 0.9394679825077433 -0.6228811082800757 0.37034555600636215
Ni 8.58876573878642 8.63351717638869 9.271325920282463 0.6903548256520176 0.1278848714701475 -0.9078385285279205
Ni 4.238831281981551 6.3474699893061235 8.008728045592735 1.1153499506824598 -0.1036095438625506 0.18675567766442674
Ni 6.338722146554238 1.9975076731294346 12.21794574397398 0.9086337707357061 0.2574579292759953 -0.8432207925475348
Ni 0.7121802656164415 1.1867163750143441 10.92967267221375 0.19039430285827857 -0.8315857794117678 0.19048120614513
Ni 4.707611645161175 5.053569324437992 11.612300644847892 0.4126677138133409 -0.6677787401237144 -2.34761387564586
Ni 6.750808688077531 7.070494979726868 1.5455627283414182 -0.5603019999962737 0.9497997034510546 -0.4051210118143345
Ni 7.658318438698876 3.7507350876724983 11.230061705648204 0.8100407062511403 0.6935684474933087 -0.5115446280869126
Ni 6.2279625706500505 2.642145677702333 4.14102817126572 0.7970028992305757 0.11531114857019496 0.4472156269915395
Ni 3.876863750364765 2.1141362900306406 12.510519294966835 1.268557874298428 -0.15607573208206668 -1.0141726704104856
Ni 1.2106940076952037 4.8347803910681035 3.299663069868216 0.5133932512598771 0.3067590895039685 0.08627928011421915
Ni 4.495443955827482 1.5147604782100694 7.835950722077167 -0.3849784754281886 -0.8022993717428247 0.31473002352458695
Ni 0.6169560040855346 4.631666997576331 7.381961828043196 0.180997692134727 0.10925414374283765 0.3131292546963704
Ni 8.780456789831463 8.568985584793301 4.622431615817572 -0.08841895216504127 -0.8057078832037414 -0.6316046041960026
Ni 3.0275057951917317 9.223420801790022 1.4515085604270057 0.1430302117520182 0.011663295270541203 -0.4159605256319998
P 0.6690056684592564 3.118921680594668 1.7189789601174208 -0.4382319354356904 -1.014691261918117 0.1613079270152835
P 5.1052020268801215 9.144476628505751 2.067170961014305 0.40078793165661947 -1.0754765115262896 1.917862466877355
P 9.029055251050135 8.121935531634287 6.914449066281442 -0.49282339752832544 0.20345602113824315 0.8685068208078331
P 4.6383346738988935 9.104786310117683 9.539543879783414 -0.7814279276104542 -0.0818639246553429 -3.0664405834853254
P 2.4376021697904 6.846338474052744 3.9873475184879217 0.36509124958595834 -0.9050308838757961 -0.1383099234582134
P 3.0358171744517506 6.424036829528311 0.42765528714275824 -0.06058058979653438 -0.3381427460215725 -0.0326838633862663
P 8.737739086372146 2.478583305739522 5.08555374058029 -0.5378002193493319 1.263925003512107 0.5504479900203295
P 5.681946742324529 7.575975422052408 6.590451072519896 -2.150990561158734 -3.585616245754934 0.25370283310893726
Ni 8.616959423069568 6.883623600006907 13.435432795164942 -0.9360273322573106 -0.16446267059418126 0.6016065151720155
Ni 1.5977814062375226 6.2171531343833895 12.211679242605644 -0.41193520652269056 -2.576207829502312 0.3088331984241778
Ni 2.3559463509821903 9.110172455336466 8.670805088280037 -0.5678487019952801 -0.04975701681846915 1.1138204014118107
Ni 7.366667961559034 9.121019037432223 13.41009748243066 -1.3187329524909224 -1.2647313014634864 0.284990073257993
Ni 3.1782621425740225 4.47020336495739 1.7658978568473878 0.38453573146381514 0.9233811042482096 0.44128126378497545
Ni 0.7804450130358831 3.3128229084708676 12.055973213496438 1.0211840687313123 -0.04719542673888001 0.3893470368095295
Ni 3.086641955111063 5.9004756548907515 10.10813787167864 -0.294019530450113 -0.6076066986195084 -0.4390444040346567
Ni 6.486534686980744 3.2003174785992123 7.953885014871065 -0.15964133794613797 -1.1011721165201809 0.6577612079867123
Ni 0.3417146969484336 0.9009739419920705 6.367030982907582 1.623172906943411 -1.436964360031706 -0.5930992490319528
Ni 1.117253674606587 7.240232845776732 1.850750074249227 1.3494393804358435 -0.16610457707297843 0.655035324415117
Ni 0.9076304745659047 3.62788454439787 9.62988810801696 0.1341668478241173 -0.6101217517318783 -0.009343388888112942
Ni 1.386468070973015 8.265179135082102 13.254010708573228 0.5704727698816885 0.4896025765981825 2.6232063097390372
Ni 5.26010013420651 5.413809575001858 0.08975082361375016 -0.030405094654418603 0.24456307559119814 2.1123311969153233
Ni 0.047654384146049056 7.939948828440326 11.486740313340778 0.4830688892447229 2.335363340413281 0.25737976773989224
Ni 4.117299415639797 2.063023629195842 2.4700954837913014 1.0055273360306618 0.4532201813144066 -1.70763184601944
Ni 6.695015652776754 9.066981142556187 3.7034168732797594 -0.4751005263272656 1.9043711172591395 -2.1609109055962397
Ni 8.091104493485389 2.9637635524646138 0.004041466205542238 -0.11020673746409408 0.7164522940700178 0.5328485317710113
Ni 0.6233376575240656 5.077899842495254 0.8826944794943928 1.0307876532593474 -0.32206229551994214 0.2206803554363296
Ni 7.766756400284622 4.513682557913154 5.016766165616336 0.0033645455968587218 0.6467941674522475 2.365314378249417
Ni 4.18924160013965 1.5652509464075262 4.589919728902123 -0.1450474992923631 -1.7546305833664813 1.207075855733547
Ni 3.127390929628341 1.750376472160018 10.207370168168904 -0.3419526066859659 -0.9013128115942607 -0.20389413711692628
Ni 3.035659304678097 4.175330487143551 12.95095739054693 -0.6656182421372859 2.0509751624053454 1.956006067826612
Ni 6.842911771318725 9.06590391351243 6.121306680215141 2.634245598272334 1.0505897755869391 -2.3502137751625525
Ni 2.551324125564918 8.076116151445534 11.327324344550702 2.3646345785735727 1.9789588199680435 -1.339144940488371
P 2.9150096517773507 3.55930405743112 3.911655462540924 2.3228320407154897 0.8517121178479977 -0.027025379548908296
P 0.6818386237658713 1.4293622171205325 8.745627003180482 1.0376620117816773 -0.16090169271580032 -0.08928927058513654
P 5.899017681098771 2.8512209767638637 10.248431167650581 -0.0667214125869496 -0.2902019564762357 -0.6987641327616353
P 2.6034490102425574 0.7338873594938657 5.798328339462254 -0.5355402196705615 0.7002797980752135 0.25893605648341855
P 2.8793125100170007 3.8235966314424537 10.954668100611812 -1.0350613409340368 -0.31145238121457974 -1.2728665289761112
P 5.999487862343627 1.8105991475803798 6.329354897102192 -0.350188621442513 0.8338408939945318 -1.1737759560298366
P 6.479124094076281 5.102564673014372 3.2509370285527748 -0.9598560592457921 -0.7650715977396179 -0.13762343891415008
P 2.2769557454115508 0.7821128607622513 12.627938189382037 -0.9446186734707473 0.16986661521857196 -0.20862728092653748
Ni 8.048943977462498 6.241037902491511 6.7817808803769895 -0.18140752597863596 0.13434965325888476 -0.20060415351174482
Ni 4.545080069955752 8.36972607107014 4.588696702479168 0.12220273348370567 -0.9945834354246483 -0.36017375767968296
Ni 6.199090974985918 4.94235471212739 9.559646273843933 -0.1836392435226321 1.3609170420581402 0.4169791967045012
Ni 6.632397071379761 7.258824333238809 8.62933734196977 -0.24327366735581327 -0.014205087855788438 -0.3210811625535954
Ni 1.7871229835923035 1.885067248458696 3.2343690601306516 1.478565837622576 0.793702374102433 -0.39997160640291113
Ni 4.704305666371716 7.923920403185809 13.49303390369692 0.03352564256127129 -0.5806679652471354 -0.3600164061662122
Ni 0.7354623426474961 0.3665151097437486 1.596885263110604 -0.2271271395029379 -0.141362337131292 0.2338947972440746
Ni 4.411150783153523 7.011878861414867 2.1905285448560807 -0.9591513198692835 -0.1247031313080562 0.6777422790943296
Ni 2.496868340111564 2.4103371312346282 0.7840453725209217 -1.6945346465158493 -1.514929978073907 0.16044737878720108
Ni 8.691603966636086 2.618075180448736 7.342899274166833 -0.4942997249635358 1.7008832144416963 0.07240046524959788
Ni 5.337604906613348 0.9959725426112248 0.4102998271438201 -0.3314882168195323 0.24338216790921954 0.006807766950452792
Ni 2.2388626976745694 8.989857114897575 3.8789810626231835 0.3142332863938265 0.41367121537719076 -2.1523797281967774
Ni 4.1435522303527295 3.591908808919307 9.07533431087394 0.14764225660273284 1.2988770941072598 0.008720153481817242
Ni 5.040011096818295 7.238960601130227 10.71326571513458 -0.13744706123728587 -0.18095398338098512 -0.7797171155669345
Ni 7.322928747799604 4.724810164032188 1.2920052989385569 -1.5738234099760058 1.0357467970368357 -1.7840913118297597
Ni 8.985789646611666 1.3645891776360262 3.3582838314088534 -1.9926265472631233 -0.7033689785234983 0.9885035477791557
Ni 8.293428538108893 3.8173654186117574 3.0228003472911156 1.4355687652357598 -2.850185096589569 -0.29482659973244063
Ni 5.960299012648342 5.075206769885863 6.851682830213796 -0.4790649102916524 1.3031147863376913 -0.8894592546897843
Ni 1.550476192884967 3.184883386610216 5.595662553211076 -0.6167356575039701 0.26070034747269294 -1.4220810151619703
Ni 8.572579443758249 6.172605998841141 10.543859375609392 -1.1556964728203065 -2.326971773915476 -0.9449017519288048
Ni 6.619126723935552 0.5455217887985573 8.160804927199354 -0.18187315276114485 0.08594375115167134 1.9829445440886688
Ni 7.27271687332036 1.6820002872532913 1.9220654228831004 -1.4088411194329284 -0.09129755926441696 -0.9495253667437453
Ni 6.776875773644988 6.889752661807592 4.267961041157895 -1.0322416120970543 0.5111952151672938 2.8231106089702798
Ni 4.626884472080342 5.683609018176533 4.368498084895123 -0.6889273491768716 -0.4394292981779013 -0.17630799996854155
P 2.863525532651601 4.603454740378635 7.413467062990168 0.5782184752653784 0.5037688407962356 -0.43085646890722573
P 1.3353275507663949 7.073494505426294 9.880939122601633 -1.1882355830985925 0.555337971122779 -1.0956650706590227
P 5.599668730878977 3.1697371747967065 0.4784874969678895 0.33189445111901555 0.5096790356330836 0.17968437263994216
P 6.5361615146517416 6.316954690704534 11.95697214979229 0.08747972818022354 -0.22159438261016676 0.4708314666382665
P 8.139598373368987 5.020203083453357 8.660787786818828 0.23461136369512497 -0.25030974826698826 -0.37277164894935155
P 8.766824270553577 4.839980807141412 12.704988854028189 -0.2101653148376187 1.0445258287810464 -0.7321208538452101
P 7.6830297015043625 -0.04851709602678177 11.26160872965291 -0.6962153981978525 1.4146055327205316 -0.5549065400123152
P 8.41590762309257 8.289268205250247 2.253036617411516 0.128549758747656 1.0682835933222765 0.09906460480434552
