# total energy = -340864.30173861724 ev
CRYSTAL
PRIMVEC
9.22475323230524 0.00000000000000 0.00000000000000

0.00000000000000 9.22475323230524 0.00000000000000

0.00000000000000 0.00000000000000 13.50135880782043

PRIMCOORD
 96 1
Ni 8.842322505520244 1.5742502393523892 10.792904849643053 -0.11250710346249657 0.09197195962362224 -0.1073615547058151
Ni 1.8398032066855305 2.3325249437253426 10.509862672917933 0.533007940167011 -0.32484062959602766 -0.4694492415787592
Ni 6.291521454071387 1.579277729788925 10.673606652722945 1.7859867290802598 -1.221741685275838 0.03143405013956522
Ni 6.759520852817775 1.5204514793049064 5.077118685709437 0.7069554103231761 0.021685969613865878 -0.4389716418151923
Ni 3.283403267959645 2.2179350607847 7.509212846911548 -1.1147351999165964 0.3643142622106177 2.347863529762821
Ni 7.692005019381521 8.719854683436845 10.555321333692621 -0.5546322033050061 -0.6371103645055802 1.8782245407707587
Ni 4.5057384015076085 0.8250942034134096 6.350714849728569 0.4551217692124936 -2.1915857089722772 -1.3904680162423795
Ni 1.1536937457713314 8.908620806010857 0.7949061989114571 0.7488196546571297 0.7957363738133263 0.08300343757642478
Ni 2.190205452982448 3.674403652625728 12.291204929341989 -1.0667900394958854 1.096861404959969 1.9110696123252378
Ni 7.196921745549501 5.063669918172876 7.944793695857719 0.6332724788167287 -1.2338320407814687 0.5213377029179344
Ni 8.688831838779834 3.8472663008647157 11.749517280400935 2.562275792802252 -0.5544805082184903 0.02113883886114424
Ni 1.2158501321224866 9.021218142283074 11.766501895798642 -0.6164042423064803 -0.27692220864819406 -0.17336125863539176
Ni 7.322184667820552 7.1143325310938925 8.905077578347235 0.9407694749279862 0.5273317157178402 -0.06499877346888806
Ni 0.7616961652957264 3.2513564757091387 3.765177990502141 -0.5617834696378067 -0.2537658251363888 1.0122122042500052
Ni 5.037038055988877 4.517324691394378 7.031008103816647 -0.41783794516037076 1.710845210750415 1.3028497056017627
Ni 3.929025287541814 5.398786748592106 5.042136577024241 0.4253363104199449 0.09589546304774453 -0.21296010397393644
Ni 1.438295828244742 4.803854747264552 10.022477455543324 -0.8775694452307338 0.23658597092299255 2.020984786690842
Ni 0.5820607033347118 0.31040371687889917 4.678855652932006 -2.0559700445167755 -0.9127475357937636 0.8786130560038997
Ni 8.986496171635144 0.8169902578198374 6.799365328859113 0.6312911867206418 1.605687605674454 -0.7055413035844689
Ni 5.984623143368421 6.956072667003596 3.7692553313699375 0.26012853412962295 -1.6039953055736955 0.49567886469924954
Ni 1.6681305515957412 4.559795454641739 5.480187814849135 -0.3790114592114763 -0.21720011019721305 -0.22932877513994698
Ni 2.107542440502083 5.840117386142115 3.432301852609581 0.06920098447569371 0.5710430405628617 0.07961498072016612
Ni 0.3988764788582194 2.0806984089969087 13.012042818231285 1.0974784697186777 0.37663987365550616 0.012304785509282034
Ni 0.4576519932002178 2.0923400474022453 1.8179313170983251 -1.1146462397472159 -1.2091867314289626 0.8448009925504613
P 6.211542844741539 5.921258314361879 5.540565668803659 -0.14241443254489022 -1.9162143897509707 2.5860754663250107
P 5.784805766587125 2.515765439195712 7.177416927606361 0.28532328822769576 -0.4085516347624383 0.6382331652561137
P 6.623806285290586 6.817184784411878 11.699858589542291 2.3066011806789244 -0.12761310586599958 -0.24246968339727917
P 2.1454100519552575 1.56749772008717 0.8085311592321245 1.463125848918422 1.1917587657605022 0.10398158248998866
P 0.62808115157286 2.7519006689102965 6.133897175469305 2.68667527682696 -0.14156802538419488 -0.8728208748021548
P 6.449366204272429 5.49481642830649 2.2819723742918363 2.0520295718117887 -1.5696813627831738 -1.5963298186086379
P 5.467003797726387 7.861057844592455 8.245306632468628 -0.5690707473278392 -2.640009754449621 -1.1339058593077764
P 5.754493227918395 8.66991187018289 4.828423032181297 0.2209786034030388 2.5339970004622163 2.004285214547974
Ni 8.673039061481946 5.542748245385831 6.226016482346906 0.1809598969182561 1.2888829590090254 -0.27043428693100524
Ni 5.032296532898273 5.352183295958381 11.99189305558399 -0.08189863454802024 1.2791719023688486 0.803439655994855
Ni 7.443388698729994 4.49738999995703 4.470138234365077 -0.34433884752995536 -0.28349780498318267 -1.4654264720271406
Ni 9.145466341713723 8.90126867779449 8.685829181647556 0.48923362329453807 -0.948410793523328 1.6185392648261419
Ni 3.2329899922978664 3.923702605006252 9.0142359266658 0.4331293241018025 1.0763481154979657 0.3414317011854894
Ni 4.513311923798243 9.17969940044764 1.2145273025287262 -1.3688519806345005 -1.1882584659167277 3.329487576813324
Ni 2.8887406563150217 8.946968104624949 10.051437645408392 0.5227137573298547 1.0507080463323581 0.7412567547082073
Ni 8.969734795262326 6.971754747264351 3.9463927301929447 -0.07099921402669708 0.9055628451198663 0.35341021370360426
Ni 5.369221414924036 3.2286359088372336 9.21562243394848 0.5239368311036783 -0.34662764356413206 -1.1945517551246074
Ni 2.699531745592471 2.0200548821532616 5.374431555471844 -1.6391366293615188 0.9781319747368444 -2.4068703473143325
Ni 6.0664374785640875 2.5018176125167346 3.117962856060542 0.47844244621630505 0.776514806579553 -1.7445135495371376
Ni 4.9064985749477374 3.071326194315677 5.2700257999475975 -0.31038588762327834 -0.05644908412666407 -1.8486319147153063
Ni 7.7766882527895955 1.7064501759505497 8.679536977561755 -0.8900891749642993 0.21533965994970655 0.30221569310766017
Ni 1.571519712436399 7.042305658931557 5.582379629630687 0.04608213907004322 0.518415644175133 0.8732880442465606
Ni 6.548707570347761 3.7101772451264377 11.091730578912967 -0.21706101351618745 2.038658806931837 0.8013493491247295
Ni 1.0577839878471758 4.189975103080769 7.962236781484224 -1.201161547131641 -1.1264033802831441 -1.9230010736555012
Ni 4.515156874417156 0.8553523160388807 3.7274413705429095 0.0766677251663841 1.2292338798878248 -0.2451713985991584
Ni 5.145253634541177 0.4793338528736752 8.817007938078147 -1.6839057060470937 2.3880521861665645 1.733820074379033
Ni 5.30297846295199 5.876878027223943 9.317490459896414 1.384496629150293 -1.5076049051674036 -0.03161839823622942
Ni 8.904488116624492 7.246403321148729 12.998163254725206 -2.430685961676691 1.3081934864121794 -1.08934941285364
Ni 4.7517810160457525 2.4405652519688465 12.559517020325714 1.0391895041697974 -0.6959017236121757 0.4582562010764172
Ni 3.8027845414427404 7.92816792335539 4.112351573215963 -0.9604625824815396 -0.5934622887983263 0.371608738989502
Ni 0.7290719035015003 6.670354389405743 8.189181389690697 0.006011753411718679 -1.141557205205447 -0.65712048907892
Ni 1.360023798237388 6.561419280112067 0.6354591090978904 2.9447952651669866 -1.1857783798073513 1.5464427039702078
P 8.473267808466122 0.38842298865146235 12.705602055281807 -1.1509972675724243 -1.2869299490477126 -1.525675132405553
P 1.5233665012827882 1.1980371338968883 8.776747425672244 0.6778561789643746 -0.027639873204455625 -0.8660357335595215
P 2.503764035419687 9.126039011696577 5.667505651187301 0.5692296415032068 -0.8968267507984489 0.1788413079133565
P 5.776780231394856 1.6143963648199207 1.069997560944375 -0.3473688926055308 1.3779300316763687 0.529134573254534
P 0.38835103557732475 4.553983860192165 0.25851448072199085 -1.1930404606864033 0.06492832524226883 -2.059090592423628
P 3.9582677548515735 3.738174370768432 11.24514652515331 -0.4509691804967007 0.931115239667674 -3.590818358781164
P 8.878040749502386 7.920539052546188 6.669941120467107 -0.05852987791509275 -1.490294181803098 -0.6818102785161161
P 2.7645478054029407 5.294371768314764 7.121751077532539 1.1762868953771484 1.128440722428147 0.9653944725655179
Ni 0.07791226463666626 5.475970257734301 2.3256091463303497 -2.18404440628991 0.5411848195508486 0.11612387427947743
Ni 6.157725635187867 7.526983411272911 1.639969225348664 1.6774558366566916 0.8106076344982039 -2.2788551209139074
Ni 3.646388077477545 4.950380725418567 0.47756915760668556 -1.9620635868746015 2.0735345357631 -1.2357644819174913
Ni 4.117643814066312 7.381223087625745 6.2757554285574715 0.9529739874139782 0.1464011851067801 2.4075686589329375
Ni 5.838521503856756 0.05527379806730292 12.924958381592694 1.3338278991508319 -0.4799395995871219 -2.301079736640063
Ni 2.0447772204466865 6.349904916406867 11.80857138228639 0.6145558762438319 0.5397432020083156 0.32414463197026755
Ni 5.613954114522752 4.139755547233976 0.6432346534812963 1.7834652482099866 -0.5240278481555879 0.9636818607497855
Ni 7.549620955366965 0.3750277246828497 1.1747344851047168 0.7512429193866417 0.9628711919230322 -0.6725411945093643
Ni 7.983599464700609 3.144995072528845 6.567681964987964 -2.834467428743996 0.528893146667689 0.6851671108034909
Ni 2.4999818866509176 8.511043172388352 7.850432773978139 -0.33394696277267005 0.5708314387726878 -1.3350987954434554
Ni 4.022047697747372 6.681783858489904 2.0414184878449566 -0.14333334481473378 0.7369925801152146 -0.8712010798105447
Ni 4.62981133062946 4.584001206761868 2.867823528673103 0.7965578412733572 0.11389601339022319 0.32841266321800217
Ni 1.763219306494481 4.149275492427564 1.7115265575784868 2.00763664751871 -1.4657563445627335 0.23759924267885532
Ni 8.8122036866665 5.9481853686449035 10.902738449888139 -1.0634432345108393 2.0760544739714764 -0.43665327809466087
Ni 4.821243406847801 7.581510926814864 10.852230159269487 -0.2119522315347124 1.5050741683257498 0.5879225899270197
Ni 3.84980310796572 2.838899315345106 1.2743230745629834 -0.9394214455405242 -2.322310106773749 1.720763241195075
Ni 7.425658723282248 8.95491984179246 3.4183549484059133 0.46488527635716065 0.08217657079975525 0.5663782880973407
Ni 2.0278221242588823 0.8152615390899165 3.2253804934701633 2.3670830401140655 0.1836436143980063 -2.3047939522668566
Ni 3.332626550472225 0.5239908826044473 12.963410842392063 -1.206886108320244 -1.1950268949888128 -2.121315402691805
Ni 3.208055484683267 6.467907957992496 9.210963933635728 -2.2106429827140444 0.568890255885917 -0.6604729504909206
Ni 7.218184801432465 2.626785342688759 13.285634235411026 -0.013488007184105803 -1.684272602468209 -1.3330894783229106
Ni 6.674809945150416 0.5236440318880917 7.067218949614039 0.687512471107216 -2.713131671246276 0.3593898283258069
Ni 7.983018305255652 3.5880784131668215 1.6959727013857466 -0.8756429176319822 0.9000668550023015 1.554585130571684
Ni 7.496615524085615 5.0878848950461 13.323613466376644 0.1388575684315673 2.1424992358582715 -0.6289944202666652
P 3.7191621546405402 7.154303386252628 13.306857624855683 -0.3050477632398166 -0.24702053599275517 -0.24585145538531852
P 2.377264996233966 7.936774617992615 2.6392858056071997 -1.8618869799529998 0.08625871128892887 -1.6081278396848304
P 8.255969524570633 1.7856170070080761 3.519682403822505 -0.14259672375902538 0.48797429696614014 -0.5814997171198114
P 1.2639664442637193 7.456930636272811 10.064236990327094 -0.3108044632179357 -0.39787949976057285 0.9887938253260647
P 8.77750016552476 7.934643700027772 1.6911398532395059 -1.2037483340222108 -2.602617429844092 1.842762600418723
P 4.517546085468647 0.7626352451607528 11.117410446577606 -1.0578192034558427 -1.5707679109791335 -0.10857897205268396
P 3.0180901442069623 3.555201393137805 3.5300242745168178 -1.4489696120226983 -1.0361710290584476 1.7131226939306816
P 8.272657102918693 3.525608385210451 9.62050145964533 0.30399695337779903 1.6220331369120131 -0.15603485154180224
