# total energy = -340893.38426934794 ev
CRYSTAL
PRIMVEC
9.05789023776881 0.00000000000000 0.00000000000000

0.00000000000000 9.05789023776881 0.00000000000000

0.00000000000000 0.00000000000000 13.25713794855439

PRIMCOORD
 96 1
Ni 6.362452356331506 1.7589517156748091 11.51021807407991 -0.017987951936988374 0.47152206494738796 0.45222799260446633
Ni 4.8587248153957106 0.4173151215024966 6.114509819597698 -0.972402528452235 -0.9064429337319743 -0.1951477583828639
Ni 2.781786803153211 1.4744071500627363 4.69315926191647 0.44458590267817627 0.07622729519485581 0.29350016761153325
Ni 3.47531323119975 4.436138001743656 4.900421907562854 0.6702631971084649 -1.0768895898237323 -0.0091793525064229
Ni 5.148513899486469 4.516037652003543 2.693002268306551 0.13818291096204588 -1.3307474604532952 -0.9599015677717468
Ni 7.054330248345021 6.09752718109047 2.6093100793816806 0.8866289843298408 -0.19962816275172074 -1.230613533844171
Ni 4.883009019266787 4.65905268181347 11.388278943399868 0.5096211858119546 -0.5754344847623379 -0.6553464278976328
Ni 5.860291976470052 7.953941796300069 12.288028171287344 -1.0555034108384724 0.6702827374924907 1.1890333964095394
Ni 2.0586954211957464 6.454217842873045 0.6482134260750947 -0.9355174825004277 1.2573951728133892 -1.5044956701144607
Ni 2.7131913999769126 1.4950863135978596 0.6826361265492643 0.8233780467899948 1.3099994292726664 -2.2147235805413215
Ni 0.7229835930629975 9.082165437318181 4.829721450682848 -1.3074589222389998 0.0177570668731049 -0.5469356059916967
Ni 8.455033345107147 2.3225427074921132 1.4415415009296475 1.4669236253979574 1.8454763998054606 0.05877773225984071
Ni 6.861877253324976 0.5768617068831425 4.695200910388138 -0.08459880708800269 0.6911436401019 0.24377297558973504
Ni 0.8647287066540781 7.683147108150246 2.7488939803492483 -0.3282098031785767 -1.3320759494567316 -0.003972868604818964
Ni 7.7076577592786055 3.7634175476963185 3.5604302262674477 0.13202846132487586 0.3795634750602044 0.5501070617411429
Ni 7.910889643745342 3.941848928545374 12.374570878286896 -1.6482707304523032 -0.6684261438997262 0.9293440066998641
Ni 7.890491274809251 8.93762868193931 6.953183504828744 -0.42671442171439417 0.48057980427428193 0.10182134161387627
Ni 7.059121872309139 0.8497424271670605 0.5264436779435004 -1.8560294927309584 -1.7742969514471572 -1.4277806366499088
Ni 1.6834451422062207 6.5265179231785 9.078739743209997 0.7259815737166917 -0.1407054202735835 0.6471276395322662
Ni 0.02713291036770117 4.924765893509852 1.5231657735010053 -0.20940195430903288 -0.8188439063650672 -0.07728093327035078
Ni 6.113586820577011 2.1161586772039906 7.1063560528113765 0.6696350766061628 0.42596083137782126 -0.007769359532773717
Ni 3.534959438768207 4.4805307220615 0.538408245229328 0.028464683098596136 -0.6778458945517294 0.1457884912234457
Ni 5.9083259686850145 5.519742475186639 4.630081925505656 1.0506098301915971 0.5128276085643942 2.13057625916844
Ni 5.0006800720415505 2.8716591906238604 9.584088500454003 0.6869370582197202 -0.6635922128461926 -0.25832361971040024
P 0.263440587022286 5.5862817372668045 12.619522499646505 0.6854334770910002 0.37051344904279415 -0.5646296808373502
P 3.9218762804529748 6.270623464557927 12.574580871177005 0.5454780476095639 -0.18393517749649613 0.6961632048036784
P 2.2278877539476376 8.597278454242307 1.3502923141347147 1.491389985970438 -1.547754995023728 0.5301599291952547
P 6.346909016591571 7.637703672558607 5.947218738017959 -0.8134723576405087 0.395278571802616 -0.2537606829300662
P 4.612893672888815 0.8682078423149809 12.754082894658497 0.5931344731452624 1.4250681228147524 -1.0381780321861473
P 3.9498108141114594 6.116775197959561 8.371603835000725 0.8027194899993788 0.6635924699565088 -1.5495509105818863
P 4.743952287514174 0.9949096117102084 3.829550110502402 0.2323408224933934 -0.7249857854623256 -0.25802922839843306
P 0.03565638513184966 5.734758674922407 3.7312873992548865 0.1672029523434798 -0.3345835679154044 -0.5623730235926895
Ni 1.386056488161031 1.1321185338433872 2.4956163462338425 -0.24015646188307024 0.29225549657115474 1.4463398877093347
Ni 1.9954169996204631 6.3487568262110035 4.692350392313455 -0.8161195654553686 0.9291118360843998 1.3961185296599374
Ni 6.158332798616217 5.593265370681426 9.226569947498799 -1.331594638944939 0.098821635555604 0.4943755725067937
Ni 8.51859256128146 2.3249883378707743 10.17697452105155 0.49177644432104983 0.5873985991027496 1.0289523998228214
Ni 2.515367076014104 5.237580134721189 7.072975009720711 -1.1732535078674633 0.10792874006319478 -0.883838308958581
Ni 0.6273521989451155 0.17623212508631866 9.047161220287308 -1.0185692568162845 -1.2254217052305865 0.2963394368325412
Ni 1.4733654926792323 1.3345442660741953 11.329921673619868 -0.1464495218462123 -0.8296366261051971 0.47506375955205926
Ni 4.439697752628152 6.6043614323422535 1.6038090765538113 -0.5034405109225394 1.3707157733161168 -0.3899443040738962
Ni 5.5592258189665795 7.7677568613616295 8.014735638568439 -0.17489852121552457 0.3102575895755302 0.7052011466362307
Ni 5.478782695289213 2.8534165995771072 4.802955384871947 -0.13219326903751427 0.37982187092791364 -0.008947696111591042
Ni 0.738442694423223 7.59627288236603 7.085145191116151 0.10903997084950254 -0.7020669718826231 -0.7271087453425994
Ni 5.139003114680564 4.681262628807829 7.061188882873623 -0.3882790005563313 0.09511333346608135 0.1945494626772327
Ni 8.12380441293352 6.90606164216612 9.147597825204745 0.8674290143626223 1.0963461558864471 -0.1267597567267688
Ni 4.555611574686395 0.3530566361976908 10.438127084986244 -0.5505202380191615 -0.6838738459133642 0.08542773074720127
Ni 7.891759379450038 7.491291933889428 4.525642638868477 1.1280463152032056 -1.175886574614936 0.3148845468245803
Ni 7.549688152597682 5.952093694572756 6.881581787864752 -1.4108401521408283 1.4075846213180083 0.18878350672773295
Ni 2.222797219603906 5.343013977712356 2.623136948911407 0.33207957054662807 -0.5919535654632838 0.43846462027178673
Ni 2.419416844157967 5.0359605547263095 11.540908923754047 -0.822998294853073 1.4799341787250124 0.5037639557002292
Ni 1.1547360859008566 3.2380870844696235 3.8399032791054006 0.1672821423208474 0.9234674933144289 -0.2780933461381598
Ni 3.8110982821899184 2.635184848787915 2.645873159331693 -0.7613401557216437 -0.033002165957633486 -0.07556497902050857
Ni 0.9950726537354524 3.30728030840515 8.27461466312817 -0.0214154895612986 1.2310567920291766 -0.5861184468387455
Ni 3.5696330428034466 2.8625650687713575 7.313048051369405 0.4814048712787387 -0.40307055704320904 -1.1598194938497444
Ni 4.1645643350287775 6.931613950677982 5.936559412723113 0.13867604854838053 0.010310123676756437 0.06989158278481511
Ni 0.8930119690887791 7.2344554546785576 11.199272475635675 -0.4421862920977482 0.2203543395554786 0.9047578327200677
P 0.32094188616975405 5.46908169478719 7.820306211886823 0.4606342143902905 0.15976809333198935 1.7237372362217347
P 8.610321816261834 1.6998942709752893 8.072403602897268 -1.2458591471493319 -0.104981998730045 -1.1783653751727319
P 1.805817240042189 3.3491005878802547 10.51871694648633 -0.7681242685230126 -1.4709186054899634 -0.7127823014175981
P 4.07937487683875 6.09740037062639 3.662350513614605 -1.0709009763404653 1.1823976362605766 0.6863313063149212
P 6.739731602746291 3.811868202864682 10.518822923802741 0.32827253809571205 0.6475151047786719 0.037627580544786814
P 6.340034077860445 7.75455951520715 10.247900519399808 0.5994745564306772 0.4598621121109564 -1.469249702427973
P 2.4208570487142893 8.313431346182668 5.801323299095388 0.5909624051946081 0.4763238572114054 0.12181861067140956
P 6.814459197649825 4.001431730881791 1.3527451908256087 1.3358976371956672 -0.07540891305861852 0.8904779257622857
Ni 5.274563500780719 2.9352636962496317 0.304287143291072 0.2912453101390855 -0.9062927813073552 0.16453800391680695
Ni 1.6691970807779468 1.1334228700453397 6.8906496418354095 -0.629447962864316 0.8135242939243666 0.019945589883991456
Ni 6.757394488814399 0.8999503130519436 9.227246571903562 -0.3479705307452717 -0.9250525784133617 -0.4043882474133681
Ni 2.5886997558127716 1.732366807669734 9.173183647910685 0.6336666289313538 -1.01105032273142 0.8684908799682333
Ni 6.351365498614909 1.9007892197468617 2.5429845835123914 -0.4162004095569477 0.63437085408723 0.5575673746739301
Ni 4.001078473160429 6.7141158890023895 10.367558873304493 0.07476922259209058 1.5443089454566565 0.5275739136356333
Ni 8.34588576709653 7.125135776752407 0.5705782483880419 -0.013272548739190043 0.4916584306859467 -0.1882111791640307
Ni 7.4105680156130305 3.6919507932976665 8.459764281206311 0.8416128246304666 0.07151754842401231 -1.0824190042823938
Ni 3.123948608908481 8.274591112613413 12.426259729234415 -0.4223430321195759 0.7101520628836028 -0.2481204539251533
Ni 9.169483499726676 4.861949424339427 10.403870143904406 0.17862867768191817 -0.32073200674429275 -0.671074894376483
Ni 8.394997648256162 2.2363931129312036 5.810046953234974 0.08981788939509693 0.5158453123447956 0.2142942494043277
Ni 3.546743754037237 2.7088436126370707 11.83801406583312 0.09286953173722715 -0.561837977024826 -0.36619630972467904
Ni 1.0832059262701654 3.2920358790448288 12.829979863198643 0.7121804061675412 0.21871397573857815 0.08196702589211044
Ni 2.8980267092619436 8.384662595433745 8.027210165077669 1.6508539177984471 -0.14130988662680183 0.15130710704882974
Ni 5.611725351095171 7.840555125633108 3.4451187539135764 -0.2984354001296215 0.7373224526508075 0.6172876733526982
Ni 3.1547092043378626 8.184600972568976 3.491400044357165 0.34233184440225556 0.5214516027879794 0.16636554404384896
Ni 3.2446993443823 4.265043512030584 9.195005011411547 -0.18231641094615053 0.6212168332037753 0.6217516226613228
Ni 7.360034045677659 6.176122495148404 11.442461431544588 0.1858596482127186 0.06522631609866185 0.09321277400925883
Ni 0.6498664910532638 0.08876189012093169 0.05557740324958801 -0.7992009353231591 -0.32499746688886605 -0.11908424245938203
Ni 4.628726865118072 0.28667679298665383 1.5881389263497976 0.009154927026390685 -0.7396580427625198 0.190855044544781
Ni 5.883724738653742 5.564905116179248 0.08854450075393959 1.2862558057988234 0.30398538341357323 0.5165847616139814
Ni 8.126748227278204 9.00859725237194 11.286596878567373 -0.12385235327198668 -0.6500257870156676 -0.32078702835194434
Ni 9.330261052397914 4.742484909286978 5.83115183761379 -0.16847899084242596 -0.8180543205842363 -1.2848260153308324
Ni 7.947329536387393 8.87978499453883 2.5669535728013284 -0.2709443937982044 0.299847964206432 -0.4898691999960079
P 8.676924483574037 1.6652568985012153 3.591544079418191 -1.442027890597542 -0.2014724150493111 0.8456209173485952
P 1.9175463167858358 3.465467304453066 1.590286552137874 -0.37280661595234504 -1.118387451957203 0.7430292732275978
P 4.533537496046407 1.0712585689758913 8.291571033753554 0.6167449134753508 -0.16605829721607532 -0.45478881135310706
P 8.518574445500878 1.7726472457953113 12.464878044491531 0.2562911626614038 -0.44100178487134367 -0.3638859164239475
P 6.39586691361625 7.857420917355578 1.244572241810341 -0.06133572279500404 -0.6085284391028294 0.7022214951826165
P 1.9106985517255846 3.2771447074058706 5.956445105068715 0.030440575878044353 -1.1044790694062268 -0.10507327289227066
P 6.944367460208186 4.091711723415551 6.0642657021516495 0.38331420035188823 -1.6855807797566713 -0.9043791092244101
P 2.311926860070666 8.596707807153953 10.193122022073917 0.76538758631814 -0.031745667842713064 0.8637687919022157
