# total energy = -381174.35431743483 ev
CRYSTAL
PRIMVEC
9.16659422966803 0.00000000000000 0.00000000000000

0.00000000000000 9.16659422966803 0.00000000000000

0.00000000000000 0.00000000000000 13.41623722867319

PRIMCOORD
 96 1
Ni 8.091252046684778 8.482885625943792 7.977294778389856 -2.111003736353151 2.4024511352007143 0.754678427430752
Ni 0.959174105104971 0.932664314092494 7.5721918053155814 -1.109913610158237 1.8701718456696113 0.9070155184059928
Ni 7.561239558323289 3.2701458867694146 1.9854155981569643 -1.0220525873791946 -0.04369975488079571 0.09995986292510527
Ni 9.150681194771582 0.6223659269682333 9.894984827121688 0.6381768580968815 -0.41081240577215694 -0.3126422877576228
Ni 0.08544182642714343 5.170344240062101 7.290880023011395 0.6645314368310103 0.2723394743735181 0.3163228219330036
Ni 1.5381270409822323 1.4935682255909284 5.468605972076236 1.9392625298196857 0.6296886181202124 -0.577455886067741
Ni 1.5020931583853971 5.473098519992976 1.109187255823294 -0.24947748217368007 0.7787516663298717 -0.03768748724844477
Ni 2.073685318957327 3.1553709582537763 7.245586963408439 -0.3140281123615559 0.8820063979561649 0.14793536236311944
Ni 8.955267735295791 0.6431282632902461 12.312456852534494 0.4399280921911907 -0.8909990883730784 -0.13359349181915056
Ni 4.160460534721644 0.41347024044501846 5.121460625431625 -1.4387926714896961 2.551111034434684 -0.23127510023304043
Ni 6.418376067983523 4.146655643551246 10.37579653668637 -1.9308856186099006 0.01142161157338033 -0.21990748182604708
Ni 2.9290752422354425 7.271291010772922 1.1497081863802285 -0.600857809931449 1.609992917918027 -0.390953719175017
Ni 3.4759725974866207 6.9435119281228 9.423336961981342 0.458201693689398 0.9860802830496437 0.13563649039110834
Ni 8.153731554133271 5.788741031653984 1.1995442101691407 1.7262054952565693 0.5481152281220947 0.35203570195358075
Ni 6.240901633753727 8.781304106722214 5.040789094731622 3.2349226596515446 0.8797924210239816 -1.6113944262512443
Ni 6.434454274565779 6.35196409153629 11.637485673608305 0.130179323931279 0.4491771215932845 -0.47323801919723013
Ni 1.0901280727412945 2.935326859618053 9.59191246636504 0.33733619095987705 0.10322542105025447 -0.4219283131796604
Ni 6.250444058526891 9.033962948242582 12.31292618216791 -0.12586835526075094 0.6312441355327902 -1.4892935084527252
Ni 8.983152515468667 1.3103921696426817 1.1621738381083986 1.1149848540335572 0.5885396546857283 1.282757562837578
Ni 5.640957196694387 2.8646157503959757 7.787267609785066 -0.5878611405614651 -0.7293926562807695 0.09989275713259571
Ni 5.132733703228008 5.147821917614778 4.746208667029593 1.02421462802752 0.03757101627523852 -1.7149276083499045
Ni 2.106685058806883 7.987917027983652 5.296757076831349 -1.1438570569832172 1.3243299869627256 1.0896371192973877
Ni 2.9179836630082305 5.910977568013384 4.6540926432178775 -0.001752978135364723 -0.022361141304019554 0.5064116777357215
Ni 3.9694837069367384 1.4727600562969025 8.986262740949488 0.26478145952060206 1.0354961144786101 -0.4793251059315745
P 2.131911526602989 0.29206878083570137 9.299974767829298 0.34913086960196005 0.32449661599304763 1.7429588034555081
Ni 5.725922360212592 7.4907117809892645 2.8491260391743696 -0.23503713837863394 -0.8473224734207343 0.6486993548947602
P 3.754444568844865 1.9487263040603393 6.480498994909754 0.5913645257290331 1.1155101304094077 1.2253756824839992
Ni 3.105330519409685 9.080272583164792 7.439987514202735 0.84263535235771 -1.2821605526835274 -1.4502826744071668
P 4.666319046832138 7.227502189311441 7.643632575452109 -0.5945046140199116 0.6411199998856055 -0.13776099293327887
P 2.4114009899399274 0.4978139088627239 1.4462300987767394 -0.45216628612859544 -0.08379636579136536 0.33174841245945447
P 7.556949592142847 5.604098320601313 8.560713679060092 -1.0712174791396198 0.1738489969050877 0.39793117893411467
Ni 0.5098019810225155 8.211471932275593 1.2538947817013604 -0.1866417777943818 -0.6823736072187538 -0.08459212221978335
Ni 0.27230835328189884 6.016420903427119 12.312564101689004 -0.12548963176509356 -0.09615771557019569 0.8851128047956304
Ni 5.465783577659658 3.027368634015108 3.4657096783934085 -0.5071943215380168 0.13919181184253446 -0.732658728626551
Ni 4.124646650390472 3.229537873565655 12.679203127990302 0.6637575347794633 0.06367594089240647 -0.9594665371168571
Ni 7.814255897025361 2.283288666568427 10.766986452776294 0.6260415082859283 1.0444345546188205 0.24718997169108395
Ni 5.202317321338559 0.632009184279826 2.934788780526617 0.2951549296061369 0.5596450831385652 0.6606045909727785
Ni 8.178783856635727 6.982900784271006 10.134988268409751 0.5302116083687965 0.5741605031459209 -0.6251580772397105
Ni 8.654814270559982 4.614509455268334 10.44089127351794 0.4012152490020252 0.4675962475304205 -0.16235462311224297
Ni 6.384193837456024 1.9834768634408029 5.441116272122115 -0.45286871151225877 -0.15628193455560183 1.0331792934199755
Ni 6.027604148598358 7.450488764750417 9.397041669277888 -0.49464913788315457 -0.38177308111701347 -0.4500474400133797
Ni 0.9144603742682622 7.814310896591778 11.103814797420718 0.5435319796267866 2.803699294323204 0.046933431326744976
Ni 3.726229791273494 3.498504086528346 10.199426677082092 1.8886087122185604 -0.9091968423280277 -1.8796113938159562
Ni 4.430737570683915 8.924202146865195 10.446163898618346 0.027721891395300645 1.6504530828156028 -1.1509029080864048
Ni 3.697254186366702 5.752276319120225 2.4973387291242544 0.6224023688714442 -1.1742456965774033 1.5191851538058352
Ni 5.165201780602211 5.151341889865398 8.493685707469 0.05669565291983139 0.7952815456640948 0.7534049600349669
Ni 2.325638332708691 6.523846903180467 7.349870724630239 0.5944349371242408 -1.360176821458006 -1.5849161774550575
Ni 8.254444926835237 5.383971722615965 3.741506837504958 -0.6603153418671338 -0.08688683179123101 0.10636268112765553
Ni 4.223315872540647 7.770824572745584 12.182413127722354 0.18564213288527384 -3.200534411979662 1.4814914959098036
Ni 8.745187724775754 0.4952582623432638 5.777688868782704 -2.1713668108222413 -0.63437882450703 -0.6413645117962438
Ni 4.8561408837223095 8.550956755977905 0.9625034121920152 -0.4433096070689139 0.24386142153848328 0.5102248808342245
Ni 6.101294401001298 5.154669363633562 2.2314020756116406 -0.6783932824147672 -0.3179377318286073 1.4892117473721964
Ni 4.162889682238347 5.436523808326385 0.24691230348934431 -0.10900320407429614 0.13384957369401465 -0.4249958963613906
Ni 0.25952737070627757 3.615946494015156 0.7881126203192726 0.42704763668409684 -0.27320619324918755 -1.1464536140658
Ni 0.9340026368752815 7.981656244006639 8.372255831417036 1.4058995203061013 -1.953607485687448 1.6682397173750625
Ni 6.7822531993913 4.682470586169615 6.596213499351664 0.29079716685807333 0.012802551081306983 -0.5708759188573781
P 5.589981765221225 2.0834385754017513 11.27685718325683 0.02931160447992371 -0.46882394928993454 -0.31877102636318005
Ni 3.2878190807777323 8.185007974235129 3.433631181281319 0.13783041271863358 0.1075682713999825 -2.0764612224915915
P 8.002464413300665 7.760310488965739 12.76839409152813 0.5976411027663643 -0.69735388267767 0.09658014781959495
Ni 2.479142122575545 1.601193210472496 11.033218270628673 0.4024444934234359 -1.6054981153714671 -1.2433518073464458
P 7.522043200657539 1.7076265380817184 7.541575380010714 -0.595808934653632 -3.1949887995710844 -1.1640507583222728
P 7.475174403476765 3.4128239286467332 4.298683611719273 0.07057292512255588 0.06937196283591923 -0.39071717768417874
P 0.36588278226307747 3.104533025696654 11.834704952181418 -1.2839225296799566 -0.9115157202691916 0.9528536597860301
Ni 0.9664798808438868 6.855925118605434 3.414177834640005 0.8432614159774832 -0.12386366612589637 -0.4103802033307448
Ni 4.124939981411358 4.401991130637191 6.553134172296948 -0.997762090262946 -0.3400070529238209 1.1579474736380122
Ni 2.208205091816283 8.584524824680427 12.822823495772212 -1.7528750341279555 0.6305756487108559 0.005150433852687904
Ni 1.3838807569687634 6.039484054944198 9.92668749386327 -0.6718277133821076 -1.4951427681446507 -0.24712029479541311
Ni 2.0207849026596074 2.227170775635375 13.04550665693646 -1.8637970524915193 -0.3843745232956025 2.501382299750989
Ni 7.727970743913174 1.2676941729151165 3.3195529139402824 -1.3899635658021352 -0.30283430052826554 0.15642051701599516
Ni 4.54315668443807 7.459701192125084 5.427378297090856 -0.9047228657170742 -2.8726822492508206 1.02051943856412
Ni 3.2167229745907435 3.33107623976386 4.652200658133169 0.9704454047258642 2.3942166631060635 1.7642241405921872
Ni 6.735045238217628 7.1786167413620845 6.7802044655423055 -0.426534187382788 -0.8117744011127954 1.8589294399865728
Ni 2.939048496945531 3.535738792991929 1.4611083981516881 0.3509915769597826 -0.4925683440947259 0.7129010863836496
Ni 8.704460545844759 2.9707282472011047 6.119722922388394 0.47630354549643134 0.05000769937669452 -0.5285676450074703
Ni 1.1127145613494354 4.643805890979218 5.202280654960949 -0.5618996835006967 -0.057776287578519846 0.6209378685107758
Ni 7.629860684021561 4.506114476456943 12.632742244260445 -0.6271650803674103 -0.22087395950437444 0.18899793673138418
Ni 0.7096099058549388 0.5287685815010482 3.494795282433032 0.6219663097752901 -1.84608343726184 -0.4456747648669809
Ni 6.1862412313306985 6.613367864116792 0.48922480990743655 -0.2557527736594305 1.3608576495751143 -0.341432729626754
Ni 7.1166872295777495 8.979577543651631 0.9929750053053196 1.0360481303273383 -0.1444450898216738 1.7308373376016255
Ni 5.703280872038036 0.25759321928731743 7.29538815413862 -0.15117109569159773 0.26646167543650234 0.5408068673861396
Ni 2.690221291885472 1.8083582439724897 3.412930261141804 0.1503768819250765 -3.3174882383596023 -3.6623294794472736
Ni 0.03511447317824894 7.385497610435595 6.273003047351824 0.1169941926995727 -1.0975165220454646 -1.27114054742394
Ni 0.41218875054752735 2.913033702030797 3.5364400374637315 -0.12341912238931002 0.2116771234964548 -0.33301108122196194
Ni 3.950884686893752 0.8353370813628685 12.925632351954626 0.3025005713379307 0.8957556292214574 -1.513406085230213
Ni 8.014683483639404 7.972828813596884 3.243845094109318 0.10541060162703136 -0.12725083743057441 0.5380912682271894
Ni 5.2753200791613 1.9651711744187017 0.9555606335914446 0.8162949146909683 0.154254876823244 1.3553153796006463
Ni 7.368081081070551 2.227784937460353 13.076109332349722 -1.0530366944655347 -0.374638012734129 0.6770344543940275
Ni 4.218136746703147 5.483667603339237 11.143204570228365 0.34806823266540055 0.678668904673657 0.17900791539820785
P 5.816451646533209 4.009697556581184 0.4458109021570241 1.086717888768064 -0.11557185843074934 0.12139669264264255
Ni 8.165070631409355 3.38995327561211 8.422498851997425 0.05239908242700653 0.6465519695344543 1.3431885144301254
P 6.692943070126236 6.643296794841458 4.836727870096367 0.9693483150069434 -0.45674644930011016 -2.683408176039914
Ni 2.120040786851551 4.2096759800694965 11.565360158869899 -0.682629946203934 0.6649281580487968 0.460489204171994
P 2.642591667369279 4.841730997321337 8.797321813781412 0.8228663972608988 -1.4400131741603586 -0.9943893171359715
P 2.494102004640677 6.152114000369615 12.386192021250006 -0.06854586739019806 1.9483169267124703 0.4612636204441733
P 1.7531203461020932 4.57581726029473 3.101901296443652 0.5647970596531499 0.472398039794438 -0.2341367380515516
Ni 6.6913205829169655 0.5994109412651057 9.805646281413976 -0.9582666032714852 -0.4496106095862773 -0.9309985115841515
