# total energy = -340892.94513992645 ev
CRYSTAL
PRIMVEC
9.07478507807923 0.00000000000000 0.00000000000000

0.00000000000000 9.07478507807923 0.00000000000000

0.00000000000000 0.00000000000000 13.28186525510551

PRIMCOORD
 96 1
Ni 6.118855149045513 2.1555064098763603 11.350575670373017 2.0557232186132923 -0.3069809757067874 0.45216525768733096
Ni 4.605897951922674 0.38760130102261264 6.094569209956015 -0.08786462232346803 -0.516522283807162 -0.562585910934444
Ni 2.5693982699514293 1.5015048187015905 4.713985898752951 1.0901099451687484 0.3320021803414734 0.027176046194159646
Ni 3.6294420323467675 4.312419411397169 4.717957024582696 -0.5934964844703714 -0.9330427957076898 0.7594390820441889
Ni 5.166819475374187 4.365915267810213 2.7603299272473016 -0.27707596061723894 0.40029530829091703 -0.28966511013615925
Ni 7.235507419041287 6.080432510190071 2.879242277390468 -0.200016656439391 -0.835637066663006 -2.25619033232654
Ni 5.0317866775071645 4.505385635445849 11.488480637630156 -0.3339094246665153 1.6675236651446441 0.504517288926486
Ni 5.374405177740325 7.843799319163892 12.467207975842227 0.5939495128473901 -0.116764850297586 0.27583591756255077
Ni 1.725461432852145 6.663895799091966 0.3137733892586905 0.6786077124184184 -0.18704981186607786 0.7327592587601574
Ni 2.879610713653465 1.5149536497794756 0.5031078844292539 -0.5804759038409874 -0.7948570565321667 -0.9691711659991309
Ni 0.434374556853675 -0.0952253468506595 4.704436502704869 1.067669356777045 0.24021996813115404 0.39182095227131875
Ni 8.602233533850335 2.440264082206286 1.4798786990378203 0.7350984484162952 0.4157748919837549 -0.05050057985271302
Ni 7.0225312945022305 0.5747115664379874 4.948609922439304 -1.0127091984910817 0.39232360293935015 -0.24606408561675683
Ni 0.9026143956347796 7.1548779560675975 2.6609156597316277 -0.4643427735901293 0.9836192231036609 -0.2462934280187436
Ni 7.624516219186828 3.8401131615458888 3.966549415769132 1.0357020598418292 0.21674065406229126 -0.5729757388092003
Ni 7.46181440245579 4.115632702946471 12.607823581319987 1.109804081163566 -0.3848609760137178 0.05800948663524848
Ni 8.150263876742335 8.855429104635807 7.070122188444034 -0.8238565290883102 -0.3076165524082573 -1.0138343132344605
Ni 6.79171414304069 0.7668773944670528 0.6205655465685168 0.560708491406073 -0.27382325800789614 -1.5271149501758732
Ni 1.795164854923153 6.387650274907153 9.274500851876365 0.12685565887468475 -0.012478592082984961 -0.4417291499556715
Ni 0.13762183397128733 5.0633941529756346 1.6357417579413995 -0.3657167989850992 -1.0730324208611715 -0.6849814771552462
Ni 6.258833704630111 2.1723219861161183 7.116077806164355 1.6062828160562916 -0.3377421681490441 -1.1480297003036681
Ni 3.360492635143478 4.086420970665964 0.13085022955136985 -0.26689670609139193 0.5535759941263498 0.6459040515378102
Ni 5.991644815678582 5.604242252443154 4.879464599633674 0.07050530510941407 -0.020796882140693217 0.22185175003661145
Ni 5.238183583064124 2.8563338906340494 9.21902215498389 0.41128111787845945 1.2620182734076975 1.0171908884115193
P 0.2174091569152682 5.494092514505659 12.482668686710912 -0.951769939803548 0.32960822618800006 0.03806801051631509
P 3.8271362192777545 6.1602452425314995 12.796851348764212 0.29470292967038275 -0.29696498623168216 -1.0293941153459303
P 2.285421029114552 8.584746423535163 1.5492626886837666 1.3934504959094711 -0.6257067506543288 -0.1893686898072416
P 6.391697628929242 7.804151584360061 5.983254269649829 -0.10738623729616342 -0.4212767956385906 -1.2443167423628763
P 4.732073759822074 0.889015830607647 12.690742612499445 0.4979661180715295 0.9684245176410935 1.218584884814411
P 4.117728978235939 6.231781771132693 8.353588967643516 0.3054390851409643 -0.42008200399954104 -0.6330441648560066
P 4.670855261541769 1.131571216211727 3.9117086762482995 0.5780811783565656 -0.07044951217081415 -0.12176461750502257
P 0.22066700465950617 5.486868985802558 3.9129301422827685 -0.9921203185961365 -0.692297551200685 -0.44362636697838437
Ni 1.3794035891786882 1.109283544735826 2.6203522791411835 -0.4513414762344549 0.5039863561236805 -0.2550434062972317
Ni 2.037579581362788 6.2332972601947745 4.646833398690036 -0.09384063740124483 0.1804994123420698 1.0053031358349978
Ni 6.0985004067326285 5.957968289275054 9.554123103486335 -1.3212788588412279 -0.4562049749743433 -2.1492607229518215
Ni 8.825200996457374 2.1298701428081923 10.211549518445716 -0.4569688497235614 0.43764238148080764 0.2807102149357166
Ni 2.583863476927238 5.193617314897125 7.128974890326224 -0.0926018798981373 0.2946463654008345 -0.7748466748485107
Ni 0.6673986959792783 9.072969845930716 8.721311045076915 0.6161792707798679 -1.1497942484032584 1.2318324938529366
Ni 1.6584622966523985 1.0313583676333984 11.320837600573944 -0.8894003764273908 0.5190460786702802 0.6066587328839423
Ni 3.925978775350846 6.928797842273167 1.5887497997965876 0.9829047135351394 1.4088516609558897 -0.12724723788614858
Ni 5.819033333942787 8.003978345719727 7.9812587144872085 -1.4480640694892932 -0.11512500070131786 1.1378478746746599
Ni 5.4963339863519725 2.9080510892257267 4.989877506330452 0.06415082364629597 -0.46453329233438057 -0.7578727659983335
Ni 0.7408155199916293 7.154750909080358 6.565903550354906 0.5651107342388267 0.518851446160971 0.5617567301649293
Ni 5.334512423746816 4.649184675432465 7.1593500100184615 -1.4806515165070113 0.19217222069430773 0.7915105086574369
Ni 8.162523911011041 7.389833209399256 9.405313874810043 0.6372612882611476 0.20350795742210115 -1.0283882997892355
Ni 4.516048507589247 0.4510667160201132 10.605821693776935 0.32794420822201586 -1.121004834975392 -1.7351778739585082
Ni 8.086077923831484 7.184879194625957 4.642423053275831 0.01490648479818723 0.08185569712522676 1.6007958247997915
Ni 7.2954282230947785 6.140462211661197 7.181902665210608 -0.050621421701293454 0.4622300981225007 -0.4829133375034651
Ni 2.587502465633198 5.1612384827204085 2.3375420556299584 -0.7264981083417941 -1.2482371604632052 0.2080320705446998
Ni 2.144888911656978 5.307451415464593 11.455515574355173 1.1188564211738214 -0.6924970688060008 -0.28381713599581443
Ni 1.3515802989730235 3.4272830512927577 3.8180841214368697 -0.9252937478898903 0.48762591248778603 -0.07282212616804878
Ni 3.591073842200143 2.466272415451373 2.4794317608940455 0.3254615510094782 1.137912409364008 0.9687811296495636
Ni 0.9321074462441764 3.622218503643666 8.299704710440908 0.81422671930803 -0.9215486790251612 -0.36520129280126135
Ni 3.852100952270508 2.7216459345895365 6.881838553353645 -0.6769830323308018 0.16335118269755736 0.42194245424704757
Ni 4.143011328696794 6.752429399628975 5.871739684077981 0.009365757485616128 1.3286967485718537 1.0592456514897242
Ni 0.825171997083866 7.365004598178546 11.407794003512208 -0.7158334295390962 0.4922752383343393 0.019260133781192637
P 0.02405543955550424 5.848961974222723 8.292107300603927 0.4619660458278366 -1.2850982951556127 -0.9926054857626712
P 8.633614139698734 1.6744066935510786 8.008925010915783 -0.5031132094901077 1.4196906605529227 -0.3649148719090941
P 1.8685980135481493 3.0394539731715926 10.291931239794286 -0.0034211098664070115 0.5541591203233295 0.5585107124238059
P 4.0095212442462635 6.138810600827071 3.7117104014558584 1.1541198723618058 0.501612199464549 -0.4020153763058173
P 6.823212721091526 4.097265338505419 10.444898534867264 0.565899034468077 -0.4132446693627334 -0.3755669523063016
P 6.367232009100648 8.156688824382782 10.319357961904064 -1.6208316604047441 -0.39688139751336166 0.3336613132114512
P 2.3907157571825 8.603131937545822 5.7941076225246855 -0.19557379017668897 -0.8008019612616917 0.5755789807600024
P 7.043013083802356 4.029739864787105 1.6284093318206634 -0.41763508512094527 1.1836433357422194 -0.14985417665238707
Ni 5.520019174687519 2.9387057122898934 0.35650473593854504 -0.6266470030804111 -0.07448691546498139 0.263441657663256
Ni 1.4104756523437882 1.3241018505898687 6.777483065512796 0.14103812102265387 -0.026853629857734398 1.0488416825475808
Ni 6.874349133455819 0.8397524538266714 9.032319347406165 -0.06461182244311453 0.028333556837370554 1.366647259673698
Ni 2.6233569403894212 1.3052535225542634 9.124189746315194 1.3293683207175815 1.1152928721922792 -0.769932525376345
Ni 6.442389376838194 2.1807161620587925 2.6271129938193374 -0.323407753804243 -1.169106318468309 0.8493685573164855
Ni 3.9124936451337495 6.906074581126727 10.42834884982223 0.770038711936906 0.048728575553954795 0.655903071732051
Ni 8.222544537697363 7.364124344052665 0.2964568848978134 -0.8447819663870676 -1.1728508731124059 0.2665856026088764
Ni 7.567980309864814 3.839831843216999 8.26182474371668 0.2193153567680029 -0.06379164053466434 0.6092486050983056
Ni 3.0167397868099557 8.505777646180404 12.315078283406557 -0.04004955972271812 -1.0549668216087122 0.9447467144081795
Ni -0.1077730517976173 4.669267174201263 10.196022561647968 -0.06773879810787044 0.8046766137257497 1.381027182544454
Ni 8.519652992144024 2.3714136899067504 5.6887157942593465 0.35630964673858634 0.09630735377418252 0.6343199462446366
Ni 3.789820704168265 2.58088694751189 11.596449704779515 -1.7264024417587236 -0.20155931833616256 -0.6947470411824422
Ni 1.108031224433027 3.316724948039133 12.395140572330064 -1.1413304339066215 -0.5823152710425713 0.6289303997979491
Ni 3.056786812145115 8.201146195132146 7.970566803032442 0.48062582702086903 -0.016123130814107715 -0.617961302380955
Ni 5.6887012746036625 7.836630239169609 3.8168889722783295 -0.8388514598352458 0.479563961415258 -0.5511974665918443
Ni 3.1433239600254868 8.28398990559774 3.738911161424045 0.1981559490815684 0.37139456609616683 -0.5572364736970725
Ni 3.3895954700063506 4.2347664778388285 9.238002067399135 -0.340663198450581 0.5221992795872813 0.5096633519037996
Ni 7.217013007612994 6.463824018542622 11.425777504556098 1.1799622873462066 -0.8023891032431536 1.9756284700432296
Ni 0.68322330571856 -0.08578847813413285 0.21022827970074032 0.039753368638537984 1.2012656768096732 -0.45779391672801806
Ni 4.809200355861847 0.44606378715827927 1.796119522284417 -0.8689356808151358 -1.0163002582764498 0.19628238620793936
Ni 6.0657767327334025 5.805421156738451 0.5195822487604227 -0.5394950905532516 -0.3639262827435797 -0.17778869827912608
Ni 8.132649719439923 8.952002964508175 11.215910401290513 0.2617683837258911 1.3074180416987355 1.2295850925796565
Ni 0.18068985516732913 4.811859267809094 6.2264321854913875 0.019915765087320538 -0.41325443955474633 -0.9132206187754401
Ni 7.906079567266136 8.629603084815855 2.5800820140998733 0.5589737681031534 0.3614906767188935 0.2279270096964139
P 8.490532007711547 1.4783731922390206 3.5800071421330166 -0.2870346144918476 1.0744272443261689 0.00025916719865761817
P 1.6800512096984768 3.2034353345598383 1.3986865994063522 0.5955261133058904 0.3723970392187522 0.6411683366250377
P 4.748934709985845 1.1601023396320174 8.200010939553305 -1.2640623004209197 -2.369257936278197 -0.14716763095915944
P 8.49359021019012 1.6233973281740264 12.724424583773857 0.17801855490174504 -0.2447044862650689 -1.8307552915452021
P 6.269351380216662 7.783297728883016 1.4400331339252852 0.04481227121868411 -0.37894255364675383 0.3040787144583279
P 1.9451982720693546 3.357080516057591 6.062666803981451 -0.5056303194850066 -0.10838459665369075 -0.5602510921536803
P 7.092797353231018 4.124453393774882 6.096934098875648 0.2931911210115467 -0.3303546174357214 -0.4576975003594698
P 2.3050044147191913 8.387170208806616 10.128870061585054 0.07016874770560175 0.464644106880632 0.28554414598925015
