# total energy = -340870.97204446356 ev
CRYSTAL
PRIMVEC
9.19368797380739 0.00000000000000 0.00000000000000

0.00000000000000 9.19368797380739 0.00000000000000

0.00000000000000 0.00000000000000 13.45589166189124

PRIMCOORD
 96 1
Ni 2.007340588892907 6.293915888095046 0.21640194154695283 -1.1925946313982363 -0.044135813976949795 1.764968732067696
Ni 3.8172927018674914 6.292481672806585 9.96131562431164 0.7640678390654518 0.07959621166708872 1.3812153872958601
Ni 6.361333200340461 0.8194729217068735 11.680493861320713 -0.33274985714077526 0.1369706358214996 0.5703401009585661
Ni 4.364546964980588 2.679169320971689 2.7787222493663783 1.0669463625680915 -0.04391675598760824 -1.7655567433606818
Ni 9.0664471081329 6.838366076445445 9.82709329942473 -1.0429741680232103 -0.024565605154506082 0.08940034224170411
Ni 3.522138550452408 8.217741017498337 7.333810231631661 0.7272460422514121 -0.3184013017285871 1.599309212951936
Ni 3.3585552643781313 5.698532669628786 2.456682077505298 -0.09525808657406173 -0.8761188288271363 1.0185299189379167
Ni 7.521834017211353 6.146835271525817 3.6479863451709904 -0.373030559037693 1.1783268086253127 -0.2896124025213529
Ni 6.863014353293933 3.2968012637845883 2.7765828782277566 -0.15578545453515752 0.21761354358554783 1.0736065481970865
Ni 7.201176575987354 4.285950128435373 5.584060224759004 1.4877462185702635 -0.4723851842786317 -0.14287054624570233
Ni 6.145538961553555 0.8120876323400739 2.750370755093582 1.1994234813946119 -0.4885008588935717 -1.5766305404074976
Ni 0.7607399669068449 0.704447936203524 5.710451366423407 -0.2744930303814111 0.5913308442776204 0.08980117722454856
Ni 6.295892530960553 2.4039930530298483 0.524348190092579 -1.7526310364379494 -0.5197531320396339 -0.3819954815404647
Ni 0.16780778559381415 6.399882333061724 7.49345126440022 -2.752651840828085 1.9252919265722066 -1.5386864570635563
Ni 1.8264180077286465 2.468725808453272 2.516817069686675 -1.9058561864450987 1.7346960492260837 2.4669331169341837
Ni 8.058019080277608 7.377410376400877 12.401621905202793 2.014733920685124 -0.26307578968340495 -0.9296286278198185
Ni 5.018595104957551 4.6761945922129735 6.275625965692069 -1.5420414895787184 0.8534974918831947 0.8218577534907267
Ni 3.482118427691697 3.763353335858511 4.436312891530118 -1.7183363769211373 1.1504583643498187 0.6940741834851336
Ni 2.3220405204571453 1.5348126197837295 11.307322075688447 -0.5960153942374833 -0.17622546755706425 -0.7647800346411281
Ni 8.084542869426391 4.501440975526643 9.894735857019937 0.6264755104995533 -0.0735111818152734 -0.5196196917855631
Ni 1.9629074960138548 7.763692360759715 2.147466180681874 -0.35014568401971957 -0.4844135761980754 1.369526895214338
Ni 0.5492456158789978 2.903237878730486 10.881886933323397 -0.49632883957842266 0.9629205571037287 0.03925457462524852
Ni 8.947535950819086 5.814630558492158 1.9709519727920817 0.8080226473798472 -0.4867350252424004 -2.007496779506736
Ni 2.81496008898816 4.134162343739915 11.273682372223838 -0.25884221121803164 -0.07990500115675916 0.07090202632720047
P 4.083413187378985 1.3532924489159432 7.187370415098367 0.2647269521335828 0.028278278119402915 0.21545304559911926
P 8.872175292360657 5.937761618481636 5.296843903344287 -0.00014603865956103881 0.1610652148768581 0.4579525537930694
P 3.225936318634218 4.988062867951275 7.4845572908742115 2.0522188050044594 0.11310514205781165 2.8325329307254443
P 1.8020179604493158 9.04952152899151 3.8758620090256315 -0.41726330360382335 -0.7617857278994944 0.18778591870115402
P 8.930371335796286 7.749984572329617 0.873373674227318 1.278834830744404 -0.1608613263961681 -0.10460533211691662
P 0.3451632159124154 8.68740974971834 7.702784179438853 -0.24813073833779847 0.11342421596012724 -0.33529293527760323
P 5.3414038691142425 9.093209933163093 0.670120544895474 0.360709832688811 -0.5805167843812518 -0.585123687025644
P 1.5824726970618193 4.456391905568573 1.5197754241054802 -1.8814355915088887 0.8662550486591791 0.5740797705066565
Ni 7.345379568291913 8.0717452560832 8.379225384660078 1.1407061700590615 -0.5083718867858857 -0.0013901954793072832
Ni 8.257687590757076 8.386858903596034 5.28665821668989 -1.0269353693927927 -0.9230028949731847 0.6426577766863706
Ni 0.48623299943295245 0.05949878898931583 10.005437051176084 -0.852590406687893 0.06595625228615093 -0.25945104844662414
Ni 6.923233008033804 3.007383973523349 11.490914503774304 0.160843071563723 1.0342522147691802 0.6052299708572157
Ni 5.022971300324906 7.549442661514228 2.509712187796145 -0.12242281991431174 0.7834992083171861 1.5527059112711
Ni 7.0200885084436555 5.403691103597085 7.75834439259755 0.06390579751502543 -0.17314708574205664 0.223994250300911
Ni 4.6396956518591885 6.357094910289304 0.6531701427971688 0.06697389491738788 -0.5511000217820315 -1.8837475274715172
Ni 7.990804029162618 1.8366230011273115 9.615176038760541 -0.5469137516148258 0.08560487975501387 0.07404262883871118
Ni 1.387594097898303 2.7094349410333156 13.289253150387454 1.1704168097496166 -0.9184283882286247 0.49591977706546203
Ni 2.2211765721897994 6.635838329076805 8.415139606473181 -1.0056448354451324 -0.15351208511994852 0.4696171346151912
Ni 1.766318870929481 5.215523896488547 6.129387490920425 -1.2986081567165895 1.2149462596205591 -3.6235310185228373
Ni 3.0707284820970444 8.64442925950324 0.44266135509575133 0.8828551191097054 0.7339674201356456 0.09934639771082246
Ni 3.871397554255909 0.4005597814292227 2.9705494635668157 -2.163673041722409 -0.7478639756120797 -0.05184912346080747
Ni 5.8699581713508655 7.596155788954424 11.924099924909692 -1.8339817689022995 -0.6601662178837792 0.677363298488356
Ni 1.3318068006522674 7.0386045955651975 11.604414256480503 1.180199085947361 0.04968271193710798 -0.5512092936663862
Ni 5.714630816872986 8.881764308680303 6.981992624528297 0.06813089133996654 0.030675060486353625 0.15166706149140977
Ni 2.722535946072142 3.1988701019083896 6.551915589220016 0.04379000060175684 -3.2663009168525097 1.0882448669355518
Ni 5.559450561399052 1.7054750454228458 8.835595447554702 0.835577159959348 -0.862891531503585 1.49504120956978
Ni 0.814468797466429 1.7162592411495434 8.116701469795032 -2.041779097728374 -2.6266443888863087 -1.1668722869314678
Ni 5.07392271781626 8.690287373983008 9.782674916446073 0.6518204170222451 -1.2019380202863494 -0.22611489618833963
Ni 7.682374192641523 0.4828258187540828 0.4077198254462321 0.004184213284676664 -0.8004872582347504 0.5233251656616085
Ni 8.494222789100188 3.0840685230172813 1.0803263435083719 1.385396258146427 -1.321327452690976 0.5739051926020051
Ni 6.408735854361647 6.28296620598891 9.804823429596274 0.07001628128813747 0.4101215503527195 1.6249919624300206
Ni 5.084357553408589 4.16328794652097 8.982520690801014 0.2960309044531869 2.022076477093124 -1.4682919665003937
P 4.415608706724899 2.8136545853281505 10.283086421121746 -1.1003827878496661 -1.5137326153316963 2.519287462166184
P 7.740193294879545 3.3736145249069724 7.860030256549438 0.028286505649519025 -0.6551685075588717 1.0462975759694884
P 5.586259354867978 2.9289250422943325 4.741425645512259 -0.00579089565016422 0.22794809274233646 -1.1611664947959421
P 5.267973885082587 4.445561741403143 1.6590175025020042 -0.3149627083606834 0.2010067882668022 0.5002148048963901
P 1.2310531766378798 5.0718173633223005 10.0733223221278 -0.6460328638061905 -0.0606860050261471 -0.1016418786132185
P 6.241594611129457 8.211645602522378 4.217184102197541 0.9647211006475773 -1.477499858251907 0.09710182465101987
P 3.5020779237894466 5.9521497398049785 12.312665621304772 0.10932613463135364 0.7581874690252748 -1.2139067626124513
P 1.4101921823793109 2.576981481668841 4.791441145591015 1.2026520156342384 0.592056152479419 -1.2849820812927224
Ni 3.389887352218357 4.111233286500031 0.4300512929825901 0.8218325566797459 0.18337519122796805 -0.20478708124484085
Ni 0.8654487153897962 0.521780393104969 1.3196968751525182 0.09287081728880779 1.1145747630793321 0.8206794169119092
Ni 4.126173029088166 2.3330545583775066 12.524097455255943 1.160402362936408 0.612046736668733 0.14941091846738142
Ni 1.2947010769072116 6.070766699110903 3.713233947108221 0.24391104382949605 0.10990000485695267 1.2834679586410411
Ni 3.296479484713459 0.957090475478583 9.161685438868135 0.41125746372937555 -0.9909507237680677 -0.15480046491406887
Ni 7.672288717183563 1.0377558917667695 7.400686035668805 1.2237175780552858 -0.28627305373547474 -0.7553906230064281
Ni 7.694886801664572 1.9280726131421952 5.079168636044439 -0.20231882221000638 -1.1004180119629758 -1.8602682134026545
Ni 5.527061199467974 5.017712510933883 3.941957268973093 -1.467994232754317 0.6076743186326502 -1.2618817478298332
Ni 2.179988851085277 2.8075132019134585 9.135110165067973 2.5527943356743776 3.8664547587383997 1.7145098040861957
Ni 0.11198095549046844 3.0270216905499687 6.367718216480436 -0.5522878714425455 -0.06458328319802427 -0.8376813507865444
Ni 6.753076235220747 7.211464312575738 0.9851735140691795 1.0061770537995187 0.8273902532731815 -0.03735992870569695
Ni 6.60971906218887 6.500203853752025 5.79066169516814 -0.6508827356993242 2.51377347432649 0.3504447033173771
Ni 5.941898777967581 2.570637837123724 6.8161486106371445 0.09049100420272156 -0.06694741255482663 -0.6559447236032638
Ni 0.09000068682602845 4.6335266873812575 13.007971354413133 -0.18808750910197283 1.580284335110001 -1.2136005442259423
Ni 3.112421856027626 0.44073435814407547 5.60167441111261 -0.1673675029458021 0.5486890983476936 -1.5383164753186473
Ni 8.80811367614273 8.460849702580228 2.9372729107681956 -0.519339441540983 0.022394308534800143 0.7525518680060523
Ni 5.27075957246979 4.846066360705886 11.868567292814236 -1.3675795416799803 -0.7579326727019915 -0.4239031775178441
Ni 4.017558802050483 0.14866376959918332 11.98217553103584 0.702702548584093 -1.4864686374094207 -0.9466794126545179
Ni 0.802642956918048 0.13047221965509456 12.532076656851169 -0.17031604405116474 -0.8004633469753505 -0.6620999445713823
Ni 8.998303494555508 4.008714474438307 4.036229343126167 0.8253061170506432 -0.2823199826249977 -0.7912276873096954
Ni 6.901388805948013 4.686408779299384 0.32981067674445974 0.29353179218041703 0.9529055960698878 -0.004391701309792436
Ni 5.386839073957668 0.7485371851608555 4.976850246375588 -0.35975852451913526 1.2398142265068326 0.42591172330744065
Ni 1.723274024900157 7.684966812586049 6.029975225948258 -0.9659945680433623 -0.31832956795038725 -1.0254359020291306
Ni 0.780269198418056 4.340716926341543 7.981159850716493 0.12715647794455517 -0.37763360502734317 3.0494998418659285
P 8.642792783084357 1.8785646046270503 12.452754438342753 -0.5903939342856477 0.44186516131290354 0.22731920090908592
P 2.4560201319875468 8.607838382271993 10.403098982227597 1.1242045728596124 -0.9304511237211136 0.8760746058527621
P 5.209253801445403 6.962903770660144 8.206169842100536 -0.23182377364765883 0.5456775652148796 -1.476472188318341
P 7.250611035000527 5.397889886629016 11.712936546640721 1.6565571388308116 0.1621810736488562 0.2522113361650753
P 3.0421820816440217 1.6700517665354078 1.1797091886797495 1.638769475830087 -1.8294342587409331 -2.9324963931949752
P 7.27101182811011 8.569914420317494 10.467862996189359 0.990260125458946 -0.3669393585382906 -0.13784018291064648
P 8.267644354586585 1.4726816779925778 2.7065848978318865 0.2493910931074608 0.4361948504010036 -0.20272068563411538
P 3.4786799884744894 6.090459578264003 4.756483067303551 -0.4077445654801106 -0.1517843037955644 -0.6212080914530269
