# total energy = -340874.27829916915 ev
CRYSTAL
PRIMVEC
9.21801128890475 0.00000000000000 0.00000000000000
0.00000000000000 9.21801128890475 0.00000000000000
0.00000000000000 0.00000000000000 13.49149129216955
PRIMCOORD
 96 1
Ni 3.720011453261305 1.6782311512833394 11.747932393171329 -1.783080354066742 1.6893137644365421 -2.2006838146188037
Ni 2.4424780385216076 5.806618944565266 7.39761452338192 -0.17907399274945288 0.8723413640625751 -0.9071427880124764
Ni 3.9419719492063314 7.973340172746101 4.784258520761664 -0.5860251157939907 -0.6286609481866464 -1.8074564689182613
Ni 9.337937704940874 2.008171432497689 9.74861486060118 -1.4045887719144778 0.8343589712815307 -0.49125039661425074
Ni 3.8247188444918194 3.746817430345409 5.589849110826588 1.0502928131718106 0.8358152441120832 -1.4838088311890705
Ni 0.5310210595894991 7.535715082626489 7.101597445835798 -1.3894709424364327 -0.6725872172559514 0.16975991443737862
Ni 6.783940164781204 5.381659402077553 11.287346158512928 -0.17835022720955093 -0.5768838156143548 -0.007499650811154825
Ni 8.239805227618932 3.4346402570543972 2.00221844075047 0.7310939552425925 0.8460351220678786 0.6575321226950418
Ni 8.446436170644128 8.742426515957256 5.1170259660653175 1.1717589255998078 0.9466902112877955 0.2435814284042192
Ni 3.876155347975072 4.259016232504361 8.53768526526433 1.0299720993365873 0.5030522743451852 -0.02771546363739743
Ni 0.04869414509861716 3.171890060766468 7.598988434518855 1.9403681041790388 -0.6091321341250994 1.651249096354337
Ni 4.489752275280222 3.6125386586177126 0.4293427068974429 -0.5013399196397688 -2.378889031610058 0.12427118597696019
Ni 7.724868676081032 2.062686751780836 3.990796990066501 0.34885241912959275 1.1117465496019174 0.17008515898728127
Ni 3.296305560320853 1.053766188564793 8.026466337714746 -0.017513840514047255 1.1065868597778492 -0.81532252347537
Ni 5.882326472003968 5.427694150893926 5.479421021735553 -0.4668192601550799 -0.40083138330004514 -0.23538012354034946
Ni 5.968321300139321 7.750706761970559 5.900854674871592 1.080623602944868 0.3513049944351434 0.5840628498612973
Ni 6.331391114242346 4.223370182509783 9.01211418760746 0.4255828792131122 0.8310365917765171 0.3271906178854429
Ni 2.9026411664578062 4.117012767242799 12.150477419194907 0.075953729818495 -0.31999410013700375 -1.7152453967006396
Ni 6.746266152283702 4.228771937176663 13.79059762424148 0.6270455240704105 0.8869280036274984 -1.273251937339988
Ni 0.5222814630030346 4.817471015752733 12.045432648747997 -0.4545093324394754 -0.5662667022201409 0.5748130491282551
Ni 8.525204077859971 1.7465827056432535 0.444638153175178 -0.07872512191604507 -0.7946104877389992 -0.24058866432448242
Ni 0.25127561572592993 8.937166224306218 11.987203392681087 0.11382505094297171 -0.09111835337407534 -0.26403146872845495
Ni 0.046965767965443335 7.446281936247543 2.842522218058625 -1.1069956651804935 1.2053886978391113 -0.15945261897409957
Ni 7.169382092496031 6.098940521350378 7.624824676806106 -0.18171014482071932 0.8406106086181975 -1.6121315615275846
P 7.186868660078062 2.406970258697685 8.193153793841441 0.4493558132629938 -1.0918894056666741 0.21949867642340265
P 0.30926612529817804 5.10521124088351 1.1133965823609966 -0.36612714704964044 0.7523124983017365 -0.9917621639257693
P 3.080299899725321 5.608551534109235 4.377058398992737 -0.007219143456258535 -0.18733597564792898 0.20058204202455776
P 4.732462514834711 6.011581427531239 7.599783948900683 1.5445056348484947 0.2618385748421942 -0.3877087298751581
P 9.354069224850498 5.365260559837999 7.610105356239428 -0.18726269920783234 -0.2759349050342602 -0.6572734697170164
P 8.866408768976925 4.053638939026426 4.04949820831591 -1.4045921143485876 -0.2723371603806729 1.169774033959295
P 4.995876407941779 5.442774817506579 1.510115825194357 0.7814071016748478 0.7928032593269314 -0.7001057343911942
P 7.525418563918462 6.988128334791514 4.334128276408113 -0.7499956772431018 -0.5855288928838626 -1.0775465066814411
Ni 2.300511445305554 3.0974638369091596 9.57702987502992 -0.6659578848648917 -0.948371198534644 0.3739998649294978
Ni 3.7098347687011777 6.758019116789285 9.721280691465177 -1.1793663056334205 -0.35040587965964165 0.02130081836030525
Ni 0.21508201585556358 0.727173889082543 7.582150814937759 -0.47520517022592995 -0.9570525283587259 0.900367931182488
Ni 1.5021671339840326 4.187687260469699 5.519531354639975 -0.0909391474837337 1.567143941073301 -0.07423828978928505
Ni 3.6256466707957027 7.871508801065188 0.7144428935698689 -0.4989673056425342 -0.6055251335001314 -1.0898860020834005
Ni 5.6488711158719145 6.830740008541863 3.282426000590614 -1.0442067548787308 0.7953622783033593 0.2046760095882733
Ni 1.2931395080008348 7.251883294319528 0.14583723619322522 -0.5855373775242949 -0.046281399565042874 0.6125342178281128
Ni 5.191943509929017 7.714387797145466 11.735722215301452 0.07413595988346587 0.11835816292663487 0.027075001839921113
Ni 2.7241804662004983 5.3611401087525135 0.6604732805602365 0.601241675633429 0.06996383078364725 -2.164840322557633
Ni 5.810407547241184 -0.1317880650536507 8.040334835831331 0.46627290073330663 2.197710848033408 -0.6297148433724574
Ni 7.297788990976625 5.759478034383662 2.019433076996881 1.9150422238197404 0.9484084795304827 -0.1596120273700993
Ni 1.2853410703759547 5.299554574743263 9.393639382288232 1.515539843743764 -1.9543340794408275 -0.10523679505332843
Ni 3.820284981019517 7.991435129079009 7.375231348156464 0.30536940824529346 -1.8169605517539547 1.1692130192495025
Ni 6.785221468362597 1.2999055283514993 6.186483053595915 1.3958444500629443 -0.6941664860886239 -0.041110396887064686
Ni 9.295166132151934 8.218106028837646 9.487567231014568 -2.031907861361249 1.1558106298006676 -0.3105077579131233
Ni 4.9984758871500725 1.8816818803834965 2.7974737964595833 -0.1871858232233099 -0.23644995956576054 -0.7206622183863073
Ni 1.925734756753831 0.744158075044531 9.849396300786259 0.45678424451658106 -1.3875930086874295 1.0280707685488166
Ni 8.787945056136522 5.637357819662132 5.445328206657988 -0.10762020768384047 1.2508566003639232 -0.07512069239423837
Ni 1.1456144539244943 6.820203821538035 10.92285953606127 0.6838959574005512 0.8601931587358153 1.595434303377562
Ni 4.4122933256799035 0.9194708244166182 0.19914960499168283 1.2389220537098664 -0.43135886246494104 2.099405489992591
Ni 1.825120162574672 6.059266200384084 2.5086615166056685 -0.41837504861076336 -0.35747204247780373 2.045136187126065
Ni 5.913252900173559 2.644601373983487 11.975964793210338 0.2672342919364688 1.7641729756392779 0.9904146487589395
Ni 0.23150851212924756 0.9481554322193398 2.56745768037226 -0.15836144279244982 -0.760920808796038 -0.07533306551536058
Ni 5.8048583043922735 7.481881896185236 0.7668168688101554 1.0478736622073566 -0.9913597862810283 0.32162957885789767
P 8.952901369726632 8.748667109659436 0.7501212066042652 -0.06202040756685449 -0.29441496611631873 1.158310770514702
P 4.732490168868841 4.100254422559546 10.639713567800753 -0.535187207206517 -0.1434415882578239 0.585477727930953
P 2.8894778462115545 6.5441428168218225 12.144325318401947 0.8458284053737111 -0.4603141120467104 0.1678441854719045
P 1.464327197281747 1.5422562654622887 11.973442745297609 -0.17885519187042745 1.4143139696220415 -1.2684064363222285
P 5.580860627932946 0.6027897307668401 11.506231525862614 -0.23226266095729028 -0.24998218972424047 0.03470680735356603
P 8.244027076829564 3.7626447558795926 10.728353043400144 0.21105234542826232 1.010294675512318 0.10067437249362662
P 2.6051114132447317 2.9632127192155937 7.157789521388408 -0.8695463178159412 -0.10623592574180413 0.6262777926664505
P 2.98917063925302 2.153834448275891 1.529382390773272 0.8615851539873355 0.5897619571286037 1.1791624171527306
Ni 1.185205812788396 3.1400049594136776 3.1446913963977075 2.3787249952283678 -0.7427647067123014 -0.8706652619117329
Ni 4.921367221982076 5.547002872145493 12.562292077459123 -1.0387279911523466 -0.04068436509323961 0.751399499569164
Ni 3.4964193693025623 4.180985766198673 2.535320927308879 -0.17527750182149812 -0.6219616817895999 1.9796651020064486
Ni 1.814381179320552 0.7172488562330056 0.392832929236848 -0.4252818030329256 -1.1631359598174873 1.4379285237171882
Ni 0.9506258592683562 2.00370069697988 5.818205984866064 0.2843244146495362 -1.2326681023803545 -1.7284670375972362
Ni 4.237805588326052 9.150931908137157 9.821185498768312 0.08158598840360788 -0.7969136819508791 1.3304332716469862
Ni 1.5320980169249148 6.993557743492525 5.146963301614163 0.8433254364461992 -0.5251390789418957 -1.9919472618079113
Ni 6.4177270087986455 0.21665184319305422 4.0270892226586 -1.762351606159823 -1.7329674965707509 0.4045527980156904
Ni 7.214900632675297 0.32712141333528577 10.136521684558195 0.17624989303709646 -0.5392302669276391 -0.6855365783277677
Ni 5.301720807416841 2.113984985093435 9.699707779439755 0.16446061371165227 -0.17341910845652067 -0.7639048311250263
Ni 3.0941637888362195 1.6346299574704743 4.333305107992153 -0.06505688040033313 -0.4039956399606397 -0.04113533658772916
Ni 6.012641498839587 4.180441903527434 3.128947032965916 -0.16951180298231452 -0.6197245649289649 0.37338434283268596
Ni 7.255939219325376 9.042933686845078 12.91734775247105 -1.357285873063456 -0.688858186501833 -1.070244059482757
Ni 8.322057543135251 5.900052707881799 9.590143418014737 -0.0018401385325323145 -0.7948431725750957 0.13009859129201465
Ni 6.039770106321882 7.248592464257966 9.302154306576782 0.01776349463100812 -0.5747665121610359 1.2524604545159332
Ni 2.2838913707929547 -0.21299782348324037 6.122465808185432 -1.3733524396080157 1.8433809507290122 0.21783877222247644
Ni 2.790421095955096 8.742048577490802 12.06782872918938 0.27562714398585436 -0.7911343562649407 -0.9108649740590701
Ni 7.568706345344511 4.038880902811965 6.5690480399600055 -2.1937397792008024 -1.167258209515977 -0.8176298314523079
Ni 8.11232013027603 1.855687088300562 11.678491269866662 0.4542985019802498 0.22174119260067615 0.7475191906781513
Ni 8.13475676996747 6.547184760576209 13.080567392717745 0.011576134873373613 0.3834466121646945 0.30141325181102285
Ni 5.189362466743477 2.5665248176209148 7.181857749093565 -0.9626415924107293 0.09177475601115162 0.5527691819543383
Ni 2.335420054389977 8.432728987726637 2.4704676082665085 -0.6309104063424553 0.8075235962562415 1.4071735019225187
Ni 6.865740797740054 0.28360963423277696 1.7979436214332156 0.2768687297024393 -0.12266656049400164 -0.6216179252969358
Ni 1.3637679111708498 3.0810557766582294 0.4705850115989523 -0.5747958227370746 1.212420664985228 -0.5178816260485339
P 1.930767790965633 8.09456624036407 8.589425041321883 2.546682052129053 0.16112203625672253 0.22981831318185583
P 4.55319984758761 8.826089187214246 2.571558773633855 0.8657881363250894 -0.18482169386650749 0.2676040165710617
P 1.3443363431882875 9.386240084555974 4.269058334098385 -0.5611432649506465 -0.2804788156512008 -0.280483186526575
P 7.72346753835174 7.42670288008295 10.955833284557675 -0.19101008206540654 0.8043097173046342 1.0153677191598514
P 6.010926948723478 3.1342252662803447 5.08974618319644 -0.3886420403227049 0.43427346500857467 0.01651111028114576
P 4.515876119522433 0.45238496993634747 6.091745863470686 0.4865841014868329 0.6407939840047545 0.005513987839693729
P 6.4548571586249075 2.2893392155167183 1.1067098369081736 -0.3026008443612208 0.20845424568378293 -0.20990254809453526
P 7.690356441485818 8.434664770115793 7.21082442804442 0.4179528734716802 0.22231737681912034 0.5247433861653737
