# total energy = -381167.9892249463 ev
CRYSTAL
PRIMVEC
9.29220718095987 0.00000000000000 0.00000000000000
0.00000000000000 9.29220718095987 0.00000000000000
0.00000000000000 0.00000000000000 13.60008448002887
PRIMCOORD
 96 1
Ni 2.2820917784905044 5.924850766076351 0.3126818468721605 -0.30618881882279525 0.2910306230251181 -0.14884013356557593
Ni 3.497698339217759 3.2944498886537223 5.266306458457661 -0.32545100948651695 0.6528992519087207 0.6804043993075249
Ni 1.5443369788502328 5.38583769645316 8.375271809268202 1.1296799941518867 -2.9141849964802975 0.42617526138147244
Ni 1.4327561534320026 7.465322186684246 2.2803801539033928 -0.41151765936929774 0.30462893053484313 -0.22404001593718187
Ni 0.8580768044781328 3.142773188678558 7.0840935849032585 4.48157653478803 -1.631427176532403 -2.1982914031272274
Ni 2.565662069070795 1.313490672565665 9.798575000200374 1.0418739929804959 0.46112658064567685 -0.13451626074373607
Ni 4.000369586038593 8.93507990963785 12.902495611660518 0.2167632797701106 -0.9398829585579749 0.47955419122324505
Ni 8.299576559273245 2.3346113342253347 3.81989633559948 -0.36172361866530606 -0.030554218637773186 -0.48241968569649823
Ni 6.065869304263147 6.975353387260706 3.17870708357986 -0.2874403345706985 -0.9142593444525996 2.3455575073374635
Ni 5.32237192050325 4.050649719810915 7.155112996178158 0.18234726418408595 -0.040054959039356824 -0.4264071748866205
Ni 3.7556221376133125 6.723450939204178 11.952610869706149 -0.2121185819092476 -0.3115158874626635 0.46563218182551425
Ni 8.491888081829515 8.87057340646885 9.632613389922458 -0.19220384526319156 -1.3025013211234084 -0.016560732572158576
Ni 5.894809059832418 6.020867144244785 5.271596512081128 -0.7057433922929458 -1.9005028925529852 1.1241940313366512
Ni 2.1176475856668517 1.358743722181486 1.4285393497532224 0.7181865031523051 -0.8807635266879993 0.3192942458565017
Ni 4.786666876683597 6.528258832380781 7.802015097254 1.4565281410962463 0.3364229351169884 -1.0698599366704606
Ni 1.5726503345338894 2.5273224216960766 3.585852580778402 -0.6599566729761344 0.628840154076988 0.035923967590118774
Ni 2.5978874440333555 1.02900974566867 6.937009093782333 0.4880863970639723 1.3965260495110012 0.8141791538995461
Ni 7.564321363400254 7.4811189391168735 5.075442661800805 1.5724000472659176 0.6980647927017656 -0.20538229162667854
Ni 8.655644651311983 4.074642199093882 8.005268193921694 -2.3570207707820567 2.477075604684824 1.9102540584024779
Ni 8.287059956022215 2.799593388183382 11.958146237602689 0.2430039586341944 0.28451236229062615 0.01104443073961969
Ni 6.486416022848945 1.0105275453224958 13.142890590180246 1.3001122520659414 -0.5007812189228215 0.40592962375855896
Ni 4.6026440030508 0.05756522430595734 10.60057240432195 -0.4003246188669557 -0.22099480135295488 0.5307165730296731
Ni 4.790021363523702 3.9433061409275543 1.6867372682645192 2.1271633768321494 0.8656788644407349 -1.5485013862714494
Ni 6.025243773889354 2.9774741127820814 4.7227244104985155 -1.4482463607034284 0.6538911835083449 -0.3735087842256922
P 5.20773395887894 7.569971025446747 1.396537916986913 0.8891332388089331 0.5857852318690427 -2.0112845286839423
Ni 3.3868423059699664 8.494722205060075 1.643502486077149 -0.9080290472721717 1.0574633627783208 -0.5084623896171631
P 7.1305425416003025 5.290880629918441 7.124703318524618 -0.5064836686242374 0.7173534657280484 -1.224879202463555
Ni 9.190903669180596 6.934792902338107 11.347135287274508 0.029854107246955038 -0.5345115212957311 1.0028814137673825
P 5.725737347766738 3.6688607979289345 11.918081027329888 0.18437046526170184 0.8948133199128461 0.11575440675520064
P 8.797295059596085 2.4303582383816837 9.684620015813593 -0.2444831142828822 0.14594841384007767 0.16791514791915596
P 7.4933196073192505 1.4867624623369622 1.6923813549866238 0.9694966676593497 1.9275326429772677 -1.0391018295519976
Ni 0.11139033516830728 0.15625589973916343 0.8722437037480057 -0.9679048976921976 0.224272186552646 0.7891340380054603
Ni 6.657541312730868 7.502147204266895 12.881089153672846 -1.10944386961067 0.6056038092568666 0.011383559246593298
Ni 3.497531079486119 6.4951414055161445 9.646322183371785 -0.5520549294961332 -0.15966216388174437 -0.06639179716167276
Ni 8.715988245604619 6.46865861467321 3.109659478696846 -1.5063157540423349 -0.04216249230066287 -0.8230083221554019
Ni 1.135832960942485 6.525331787077088 4.544114247625721 0.13684362332533206 -1.2456470311385257 1.1603254869518855
Ni 4.448830095393575 8.641399697500677 3.8545228169317998 -0.32086724677057643 -1.8314872846152197 -0.5538706425486333
Ni 0.5884773475934043 7.113974535960669 9.188271186848736 -0.6880408328068602 0.041401445764922246 -0.48916291795760275
Ni 1.3170774645886028 3.3290633608958036 10.698357089542105 0.6050116841988226 -0.003898306613141673 0.5260834451330358
Ni 7.4109906505233205 5.376238846298509 12.118953460483912 -0.8344546163191306 -0.7255267455674602 0.029547888860445886
Ni 1.2841272974556044 -0.1552393322590873 8.476103409266395 0.20094225357745393 0.3992606963788156 0.044552589799394235
Ni 4.767645728313251 2.215661788407649 9.19420147355609 -1.1170551062990244 -0.43162754274529536 -1.093506372444807
Ni 5.852864036020135 7.060098317958096 10.116694646792284 -0.44683767482683046 0.7552744091435379 0.7969828446259177
Ni 1.1255836562759038 2.1075004952807173 12.934659658054812 -0.4962763890739324 0.973240708082814 0.855085662305921
Ni 0.35794233025383226 4.740679742690025 12.704559516017502 0.8783150651475067 -0.21545793069512573 0.42970358624970517
Ni 3.325820380543458 4.242236450196747 12.389894712104681 -0.26334729817723673 0.024017703070836054 0.9143884138312962
Ni 3.1837425307229434 5.093486269961791 6.7072220991314815 -1.3803769505549648 0.2283180744872455 0.5320730870575675
Ni 6.7766302416582525 4.503635534127479 2.862477471955478 0.6067988580062323 -0.7681340387150255 1.911534210666482
Ni 0.8298470786602962 1.3605649948148948 5.3321305966236885 -0.950038301824422 -0.817387890644831 1.2822132602983336
Ni 7.6385753920409165 6.235517133182253 8.964835415896532 -0.1103275793126745 0.611360766345302 -0.5814169275980181
Ni 4.053242245651329 1.0680834774211398 5.0776867298669695 -0.2311961673659889 0.46799142608631017 0.15341695430298097
Ni 2.169293673914231 8.363692789735087 5.359996997135575 0.5434193653083221 2.9157495127539397 -1.8065108171755404
Ni 8.530664462947959 8.85465585534115 12.334922942859869 -0.5248732268750186 0.8211751256014053 0.6517862213502
Ni 8.905986008539875 1.197849152551518 7.714294801774889 -0.7986574041148632 -0.2330802717625792 -0.17815842291371897
Ni 6.440791284940591 0.1668620251665758 8.97118663959518 -1.575359644114874 0.9967832712894447 -1.5426379855121368
Ni 6.9373389671419545 0.5290945675369635 5.067037860285916 0.40118465287440586 -0.47078261567820207 1.756789538691013
P 6.79402525374877 9.134565016239996 11.017197811421529 -0.47323801919723013 -1.3177777876665047 1.9843838476383566
Ni 7.570361298153905 8.109448705435604 7.487322416719239 -0.030044883101522445 0.27715103682954845 -1.2592854478575668
P 2.165799803964426 0.22026155293397615 3.423494488496588 0.16563766473888894 0.014365010472420423 -0.30246149056987914
Ni 5.4612625432153 1.551798621322821 6.961924289251511 -0.5393074000224777 -0.9279463550213889 -1.006397397340441
P 3.293269778324932 3.236615190335679 7.765743895227225 -0.4711705951452401 -1.3282182662735385 0.6674295843144118
P 1.5753915356913157 5.679713044943911 10.69276782684315 1.0044909243463473 -0.537870410465635 0.045545549840282855
P 8.931363026712527 5.1212978464505285 1.4196039632007433 0.32549266135772975 -1.5101749798874249 0.05661826271467668
Ni 5.887273079701323 1.0886750088274353 3.25443206863822 -1.5288201057924382 2.9089456024582288 -0.6346881282173328
Ni 4.517044189280586 1.2177158917873756 1.1820068683030553 0.7740784292239185 0.6383887169973715 0.5473765501838572
Ni 3.6008139637735628 6.702785070139376 5.238561785861579 1.2982962819031254 -0.43239013194293274 -0.9857313843506571
Ni 9.086161908344963 6.907102124544443 0.271158689271902 -0.6741679314795099 0.09478988868839158 0.0881934664177965
Ni 1.8301188147710912 4.959706361272063 2.8451103364869015 -1.6623495771428727 -0.12654609805406594 0.5979210959006283
Ni 4.164051817862553 8.937393669258865 8.196525980168634 -0.06214973405586716 -0.08207681199709736 0.38373560416002295
Ni 5.346931224432328 5.325103829453363 13.389161031384177 -1.4388914018510897 0.27560271850582213 -0.7182631220265113
Ni 3.6906324396640207 2.6893134717890153 3.0473710254135327 1.2464911243063759 -1.9143773365422323 0.7975459162182394
Ni 0.2620411754560819 2.7170878794485 1.6896475875950479 -1.781970151721699 1.3020691186819964 -1.1221258359537127
Ni 1.5665360621217312 8.059596013199693 13.01828673621241 1.0805824652942873 1.166882314233797 -0.12451158412254042
Ni 6.9013316638028765 3.575901555966578 0.542471629185205 0.8745957073143905 -0.8309933972434076 -0.27907653598703547
Ni 2.1302756954056408 8.159961144390758 10.597648146680449 0.5881961553033804 0.8050414532643361 0.7618399781761975
Ni 2.428509089126335 7.471194861706258 7.385498408979985 0.374526169746613 -1.1107625884220935 0.6184413273411672
Ni 7.0349814815902185 8.87576775035699 2.2869766918751115 1.441707531143646 -2.9014945454968224 -1.257993982739653
Ni 3.652079071521096 6.2181499977136765 2.186159030187889 0.9941913421925525 -0.6098168188969497 0.6058395794167566
Ni 4.490161833523179 1.9221767126240563 12.559637321538384 -1.093440295093562 1.5250362132699737 -1.1855711488925516
Ni 8.178434052529619 4.8723224436976915 5.086649063820657 0.5219174866808044 -0.08932423758813005 0.30373341530376724
Ni 6.870834639400593 6.111698470732393 1.3206986377785996 1.5642504215755897 0.2083118065686477 -2.2835676958982285
Ni 6.146897352035213 4.34703396427626 9.491771403674614 -0.5941058359195962 1.2227935235791199 1.6265513364973407
Ni 7.731683309320286 2.673470258319821 6.132740674193385 0.7615409588785401 -0.22185714935325018 0.19163100347885706
Ni 6.906107858361918 2.6055720994814626 8.30591198621946 1.4556447100500285 -1.3532695528152112 0.9618568917259047
Ni 2.7186489702771364 3.7050725298289047 1.208122616957114 -1.8390152175611487 -0.8299078774887126 -2.1199082379316327
Ni 6.494444489967646 1.978134385064811 10.702015431561357 -0.23609257622634178 0.2026183557282962 0.10756544318650507
Ni 0.0975588845824449 6.428144590787176 6.844759776458712 -0.7388728278570629 -0.021985503132155686 -0.48712223337849014
Ni 8.787398858807409 4.786434571500764 10.269124944780557 0.383799624628739 -0.7689138543038435 0.37958404388549466
P 2.5119809874218015 0.923905588747817 12.013322435408393 0.7124431729106246 -1.1663621800642685 -1.0885379726959383
Ni 3.6999525235992703 4.041320343668351 10.170075590145057 -0.2908946116678861 0.3068614194097876 -1.0601743339515806
P 1.2614543116111272 4.2051140819800725 5.1961159120751095 0.022947095714476607 0.6450057080932569 -0.9408216683221603
Ni 0.5028059838268772 0.7711268329852943 10.894945815124693 1.2674600132485592 1.9275838079301768 0.5235624784833951
P 4.565484466004873 4.743207223079245 3.6702955147381098 0.5619166527815612 0.22613366524141698 1.3284494084477378
P 0.3461904756646887 8.582812330390256 6.300714976575364 -1.8150936737485448 0.4157265552443227 0.9413981096509205
P 5.274024565852097 8.544547020674045 6.338631828517327 0.5691471090917296 0.05506145975051807 -0.5206157371502453
Ni 9.200000740140327 9.064418143231816 3.7394657767576605 0.07753932913806 -0.5135580589725155 -0.07603909044344968
