# total energy = -340864.1842149633 ev
CRYSTAL
PRIMVEC
9.27607111620593 0.00000000000000 0.00000000000000
0.00000000000000 9.27607111620593 0.00000000000000
0.00000000000000 0.00000000000000 13.57646771820709
PRIMCOORD
 96 1
Ni 2.173476222415795 4.580969166862685 7.16241534527885 -0.901531612473286 0.5955466821311807 0.958032375773492
Ni 1.458383900338062 4.597554782012185 4.748315055378388 -1.422616575950466 -0.5988520923553299 0.3177896362865172
Ni 2.49069002625666 2.9799842253091473 11.941657749354079 -1.147478198675572 0.28049707048364597 -0.791264968305534
Ni 6.694225135614857 8.312547054078024 6.421288802016225 0.4982242568289226 -0.18823354776153392 -2.0065246454014543
Ni 7.192869614348942 5.670017019777644 9.859326346477411 1.3677003835285606 -0.48057003408226917 -1.6188740224577407
Ni 0.811820408819593 1.2061211464282948 12.909061988518475 -1.1456128633320593 -1.05664189531829 -0.8364335944223724
Ni 3.105730645312854 3.5604807555416613 3.4636283694468917 1.0607754578706892 -1.216793083021311 -0.9380453911286039
Ni 3.123874640409287 8.63643962912003 9.436052728355314 0.4768123668120498 0.8173225846245342 0.7199793333866698
Ni 7.464120485826399 1.0955874830494097 5.128375168614879 0.3861295583134963 0.023958310587810352 -0.33277736794460105
Ni 4.104077074887872 1.4956273258555364 12.827997475457513 1.183924357317748 -2.456996574546762 0.4087843195985346
Ni 4.892274113404762 2.305150051860515 1.8332846628216715 -1.3466471624026872 1.2397664039880325 -0.575614461983628
Ni 0.4175864589229025 6.073572493535482 7.806644977305366 -0.11325400893085011 0.770564502533389 0.09156264000034553
Ni 5.044986072133075 4.597851616287791 9.7541078718461 0.7578840788522432 0.0024998836037182755 -0.81140750469168
Ni 4.560107282930232 8.472670593625383 0.8757817019629656 -0.977553476525555 2.308893062036894 0.04442969106828477
Ni 0.4531954407103199 5.236314314903543 2.02639669406711 0.6034865058035477 2.554177074954517 -0.250958951815213
Ni 5.3119050184009025 8.777565775028586 8.257588187949523 1.3422786010213463 1.3529620488771215 1.287520274333544
Ni 7.039972134198375 1.97100741823898 2.5336131901164376 1.355628282855375 -0.048422614277761775 0.8095236574054059
Ni 7.257848492493378 2.978008422162143 9.390544323476428 1.3466371351003583 1.373055991413519 -0.06448480994694701
Ni 5.452298354691556 2.5271449857295547 11.228377043964652 0.18752649439218028 0.8661079815583534 -0.7291527723558218
Ni 6.363561028660584 6.989129988429688 0.9125399889612459 0.5787224114849904 -0.912252598435216 -1.972057979083152
Ni 8.600364988562754 3.3966189593358873 5.966205680834472 1.290247700567036 -0.9362839283528069 -0.4604958890402133
Ni 4.516500472629447 5.310235325600617 4.704463356800228 0.5457364434772731 -2.0041281201448196 -2.602220708626305
Ni 3.000308097117064 1.5165541422857785 5.121478409742589 -0.5117513447810799 -3.485175072318037 -3.066591250130577
Ni 9.182735285160033 0.5203198741031219 9.750686856819739 0.8042842633833374 0.03603015415067988 -0.0178928211200208
P 3.6761904666014313 8.150187981392506 7.281181521770254 -2.4862385021310147 1.7414446808038269 0.8126678594613423
P 8.159621745714118 1.807433180237699 0.7425420717144231 0.029645333670258622 -0.20616005033296753 -0.20773485101925512
P 5.541710404146833 4.492827939149848 12.024609942886473 -0.15070521179877272 -0.6036410291035411 0.8197080541375753
P 1.5241512445270766 2.8258715798428162 6.082474738982337 -0.32943364828334876 -0.6653089384269832 0.35471093479289884
P 8.902978256472236 8.79371541483579 5.834812916344466 0.5103472653447018 -1.8575328167493623 -0.3541710031290287
P 7.998607703339942 4.702179588092283 7.930897022252817 -0.7121305267662121 -0.11829234268570595 -0.11451564925209311
P 4.834539846799342 7.112056482815135 10.255840354653602 -0.08179887574536235 1.744264666751125 -2.240115024031232
P 0.4998633544782934 2.6106945582416077 11.100608440458378 -1.0694156500441905 -0.3383859723806301 -0.6693206306895376
Ni 3.6938613820711175 3.208964040726048 6.072143050977015 3.632343217497828 4.471158938999132 0.34693694727443475
Ni 5.457669199865807 2.0947687590245696 8.51140004573511 -1.3994941310003899 -0.8635954995491449 0.6647561512473068
Ni 5.963725259418936 6.50503038920031 7.754159111735508 -0.26244484096762544 -1.1073134535312283 0.4645587462556774
Ni 2.705542385368924 4.161505231146573 9.685547502645052 1.0101172693941893 0.11018488308722314 0.16937064941875993
Ni 1.4900987874723697 2.352550775246391 8.619142539316185 -0.6153940558744112 -1.1907300673856718 0.30870490037642967
Ni 1.5346332048844231 7.372732633224118 0.7456198721096156 0.251326876677593 0.34405911150600743 1.7429323210929466
Ni 2.886806090982116 6.609868544916 8.565651147637713 -0.31731989573895025 -2.285490109731922 0.30863008127443625
Ni 5.12496435726674 0.7793179832478175 3.464579166735943 -0.1886518662458751 -1.544497664428695 -0.8624315611480307
Ni 2.18305840387521 0.555828674322522 11.207985456837616 0.39020475682413447 0.4313992287845732 -1.0553342322504597
Ni 0.47396734675298 4.187626647399925 9.24329411541927 -2.117968597706759 1.0740431215138728 1.7470018631766302
Ni 6.169514897054097 6.492693214620425 11.803177138926863 0.15796575001592794 0.3793094500678693 1.839931558727831
Ni 0.4594029874989361 6.6851716902088665 5.521793751860763 -0.707861209966897 0.35819169425264763 0.05417982847651315
Ni 6.246432078720572 3.3332633936361735 6.58982759327702 -0.8978407938852601 -1.224623120588691 0.6779698217241032
Ni 3.5554252967852427 6.4713118707056605 6.1800757040159 -0.6949288181759451 -1.23708217228765 1.1600174687931635
Ni 6.270818869675849 2.998610576103441 -0.005212224358223872 0.9373640487908631 -1.0087658975726175 -0.10631871526359754
Ni 7.882953648706848 4.060229086738158 1.4247006309136403 -1.5542562864773557 -0.5969885567840298 0.320546373096048
Ni 3.2625704556863178 1.550838501118303 7.444072113330528 0.5897321323319328 -2.678039455528833 0.8508770235412121
Ni 0.1495849951562241 0.1407643791351615 1.842951256528212 1.2464687557088727 1.6583306857914664 -0.6911161292980743
Ni 7.305091522670338 5.2030781521067535 5.904650600537732 0.23860402979428585 2.582934349592868 -0.5350576236071882
Ni 8.441493718615611 5.9279010727817045 13.37545449560083 0.25277672175024213 0.46027348861676215 -0.1405097593230096
Ni 0.3293506152847159 1.187049544220592 6.861981026473742 -1.2119390973631192 1.5825268512872745 0.42782488116975353
Ni 3.783180670815267 5.79693222474155 11.54464097812358 -0.6883971877050145 -0.8893109020373781 -0.9680517076827069
Ni 7.593382536781816 3.8193851763681193 11.54836068263977 0.843367088317412 0.9071672134925086 0.8250873161716178
Ni 7.021234470550729 8.151922606690581 9.949568604297273 -1.1256649594552226 0.5497062267582984 0.6749762863134181
P 4.319504550409123 4.883498950132151 7.600527894359926 0.2831872157212994 -0.8880677736588964 0.002711742504208233
P 6.068461378352386 0.09143516056495556 12.88203151729608 0.5489966022857836 0.7473109313220873 -0.026438396697186728
P 8.153443882353063 7.006160854992598 11.310772673230288 2.353782466350417 0.45908126808087385 1.1388277220894258
P 6.842530960564641 8.475388482461401 3.8938803758670693 -0.5755920933861248 1.6729620625513961 -0.5907155792911246
P 3.34932027273225 1.8603346137934043 9.66461233775081 1.1487838048608732 -0.054536440484983496 0.4092301488867017
P 2.537942332504733 8.984199535135001 13.172906844819554 0.038411509898662884 -0.3358369807065313 0.6870668989293651
P 2.463399825043108 6.367002451043393 4.148751560973727 0.06612491665353129 1.2780385600953539 1.562019475362542
P 1.5549385245501146 5.619814922915733 10.919892023040836 1.969092468696925 -2.30288567950055 1.3445740819237424
Ni 4.845986518552409 0.4467550645367751 10.674552001002475 0.7564558310461488 0.2281568663190329 -1.7408697821369632
Ni 2.4359426545495277 1.4953212155088176 0.9085410747045628 0.4470441344106817 0.889542815542526 1.102144250625463
Ni 7.174391680692452 8.942614908336786 1.7212111716380787 -1.388601909567918 0.8404715119371718 0.1768250488142761
Ni 1.5234740913358498 8.848054639413963 7.7384101982003735 0.12833121497894673 -1.6818786483147357 0.6006359237286301
Ni 8.285581515353417 8.059245380203635 8.064163553107585 1.0409080295228008 0.6986923989834355 -0.34697191427742824
Ni 0.6609339808862577 1.2602655735131014 4.463399603544819 -0.3657497091055636 -0.5035286997609716 -0.4454850174536779
Ni 0.8115022395804276 7.655940360365839 3.2272889192091783 -1.4906677630924328 -1.3434713357778671 1.1554005388464426
Ni 4.528763438640431 8.822833002058541 5.505352843420621 0.7959559460233002 0.30140168184679705 -0.7873201247251731
Ni 4.930092655331223 7.478739573900007 2.7492614361301713 1.2075060012924301 -1.4220491334827703 2.329116331062305
Ni 0.7914835505121184 7.156080716315991 10.007879842525904 -1.7511423677075648 2.3874744592862243 -2.9207037714354214
Ni 2.9433994008406743 5.733845665104105 2.257522064732377 1.2288685261286063 1.4610126592301613 -0.71947591138769
Ni 6.370026450226133 3.6561541529980084 4.158974718947029 0.15762302196452854 0.0011068599109335777 -0.748292578509066
Ni 4.283448461994074 6.103126056100531 0.20128239468150133 1.3756664324531729 0.3112752322067671 1.2637301138924815
Ni 2.2280195205584477 5.370817346037635 13.148048829451753 -2.6123835080919204 -0.3421513529603333 -0.5339021698465063
Ni 4.03467351082268 3.637917397190448 13.506196079898722 -0.11708726663401126 1.6654140750008093 0.9512210092786134
Ni 8.418934313669533 8.90553845209934 12.914710188218997 -2.5952681885678723 -0.660845503338991 0.9046344197683259
Ni 7.779896498644795 1.4562318518399164 11.42110875629447 -0.4507928028198366 -0.3082277036296949 0.5290214447154372
Ni 0.8851755791787929 7.696949870755067 12.214543992168702 0.8178110942251787 -0.47545688122541996 -0.7217531374576408
Ni 2.252721697931557 8.18705108799436 5.3930205498529835 -1.3557051588398974 1.6567648839662434 -0.00739140736806469
Ni 2.8305838239680656 8.43718962161932 3.0660819345558576 1.7067977801539185 1.0535221187423855 -0.7185279456521237
Ni 0.4156088005616758 3.205077366929828 0.17579638929936914 0.607537793054786 2.1244804306833474 -0.7989721071418047
Ni 7.291854569192521 6.0230179059712885 2.773862504328152 0.008787259274326801 -1.2516472145860187 1.2153200980202101
Ni 0.7737755307579817 3.0922246857727687 2.644886156363005 -0.1572334998355937 -2.3716565184173604 0.5394251565472645
Ni 4.410159593393501 8.200788949312262 12.228433053445743 -1.1164570677037093 -1.5711093534789524 -0.802835960972585
P 5.401261411429503 1.5855959395775747 5.329536974371915 -1.000261202535716 2.0264375822752974 1.8418259475370669
P 2.2571927642078764 4.042428306272894 1.2649258716401197 -0.3466253295712869 -1.7395083830130624 -0.23451494732657674
P 5.218717608002758 4.705249967630585 2.2238656959141823 -0.03801041780550228 -0.4677790529651879 -0.021193860468795754
P 2.3521982845441087 1.290236559278222 3.01236049631379 -0.3389657561435001 0.31363319091598246 0.635400323793009
P 6.208159009309588 6.558608975947242 4.627471038957741 -0.24154614314174527 0.265055282007279 1.1472033477476307
P 8.5865900229604 4.372303947182589 3.8216401892556155 -0.3363745983775561 -0.30479759490222347 0.1782476401934156
P 8.66025130366632 7.3152580966098535 1.6726212559355547 0.4008473241396452 -0.15557976628225464 -1.6485075290534579
P 7.774998733097291 1.2331887219351418 8.265285471758837 -0.5079872497529574 -1.0170888156160158 -0.09024649229208329
