# total energy = -340852.5967732763 ev
CRYSTAL
PRIMVEC
9.41483552820760 0.00000000000000 0.00000000000000
0.00000000000000 9.41483552820760 0.00000000000000
0.00000000000000 0.00000000000000 13.77956346168785
PRIMCOORD
 96 1
Ni 7.5203353579196985 3.087727163875654 5.700026780815536 2.6576711762851257 2.2738286142335937 -1.4790507476787949
Ni 8.083982739482638 5.107972015602069 10.141979199256607 -1.0606566729046378 0.13050765380497523 -4.021855319130313
Ni 0.6511535716467355 2.946834148156249 5.024221403464846 -0.6207234385071245 -1.7283976178118812 -0.6212574566337236
Ni 8.3467602177148 5.17012876065917 12.220544250506833 1.1332821096808483 1.5514350149784764 4.731490076057865
Ni 4.370442034151278 3.5439418556708593 0.3210101197842967 0.699055438749809 0.7772552842900033 0.6795376804318556
Ni 1.9313311437107736 5.892208996784499 8.126015273306846 0.40273399963939677 0.9063274912000326 0.8682265705632533
Ni 6.045586084595046 4.987076110834084 13.07777068666195 1.2785350401157982 -0.11844069533811215 1.0186065378121232
Ni 0.21887704101211597 4.451663821429014 6.435014756636909 -3.52466773109602 5.0227788378403755 -1.9556967641163092
Ni 5.332553505543312 2.06855237352102 12.762631658398044 -0.299036266938414 -1.2007267735870675 -0.10270554399104248
Ni 0.9736164005740663 0.1264365355565492 11.571099471533207 -2.358079293953558 0.5796307822318727 -0.43126758830271533
Ni 4.19475178581584 5.9965347907829445 8.23440545186166 0.7800891541943726 -0.16669155992470003 1.2281041371587558
Ni 5.995103735761938 2.7639133060304664 3.203417606004731 1.5096265635831225 0.05130199270808584 0.8470463369412122
Ni 6.374954695482295 1.2197766938583685 10.905036566128153 -0.3971678184055289 -0.778864280648336 -0.06842991063762408
Ni 2.966407591502767 1.0576155643728327 13.79499663351866 0.9623916811834522 -0.9411212018404501 -0.43408346048495566
Ni 6.922681589936547 8.501709583081322 12.483871555141807 -1.4082376815209747 0.5381951407949054 -1.1028150514402428
Ni 2.6706499439378217 3.4753924371975558 12.620357486286654 -1.0776863746934149 1.4483211798054219 0.2566462320079773
Ni 4.848819249100742 5.411656954796533 11.108753838753273 0.2406866233549274 -1.0234780069718115 -2.071899057042206
Ni 7.217657806141338 3.35249117243303 11.78340119131723 -0.432688637019958 -2.0634000184322594 -0.6113060018479665
Ni 5.064362496804054 9.135883498607111 8.089899022214215 -0.0244470772987708 0.10574613058957917 -0.6291911096585034
Ni 4.59312172728829 3.035945567720844 5.621193537345887 0.6739966960089683 -0.7963557525648801 0.8378317603214797
Ni 3.481596813900468 7.573773965151462 6.589800303862868 -0.15994678500169873 -2.4087986746852965 0.7746361014996014
Ni 6.73693629711141 7.2496117583866875 7.692358527763809 -0.9538036824041252 1.5413480630561196 0.20453357047313805
Ni 4.610492099089313 9.020598835895175 5.529270847851868 2.8055273486708776 2.462277363329727 -0.04513751576858678
Ni 3.811662122626892 5.156072411012055 4.466741680745728 0.00688824247940104 1.6241031320671642 1.357119779799237
P 1.1693790785462415 3.194227784912602 7.514767424107706 3.177060754337754 -4.374137846987376 2.0740279304597506
P 6.383051454153774 8.418708391862992 3.3593470557639273 -0.819681314664698 0.1663706862501715 -0.08327108941551464
P 8.386895662152611 2.192018528425416 3.806976358916664 -0.12382561379910932 1.6463197773735194 0.13876012362175458
P 6.9844994009097245 9.327899071984811 6.907956786957251 0.0636340319108775 -0.10268523227606832 -0.39505540004821643
P 1.8428034439573775 2.2863740114551443 1.2407039905734432 -1.0651087951387206 1.403705083757944 0.3369199293580649
P 6.752950932576743 3.176998635646547 9.292441859388697 0.4884738623103781 2.1307801476491304 1.532791174625044
P 3.864065097935559 1.5546153242666987 7.293096059870364 0.46458934238329663 0.12921978823148714 -1.0817019236107113
P 0.6415843326773266 8.143164396469752 3.443209704445558 0.6500800372923706 -0.24218583360827323 1.74259936323356
Ni 6.789988896080929 4.782454072501605 1.7009491735166251 1.1891735215318293 -1.1837448943170905 -0.6392243255247895
Ni 2.739971378935615 3.119210374337779 4.259166208465291 1.1486200255894992 -1.6846780654367437 -0.7338501778314909
Ni 5.928164254187266 6.315989579715463 3.1934548269045453 -2.198636959392104 0.2084059089443508 -0.6992341304195183
Ni 2.0266375251426174 8.99278741134221 1.9095442724995288 2.8372056536107655 1.5026455042795992 -0.17134937041168555
Ni 8.432444637097515 7.251965467302815 13.538834960307945 1.143553152589553 -0.4961838293601261 3.1544638428738447
Ni 6.256864411742335 6.995966670749099 0.8835418433209911 -1.3244955660063125 0.9940869554042042 -1.5241545819959688
Ni 1.5562346760009946 8.449532563828601 7.2566079227689855 0.5394246423266322 0.43784781262339434 0.7822766487639947
Ni 1.2663142265480458 4.108041149345695 2.8496965811876573 -2.1340662745995695 0.09240081963092475 0.18618643542451807
Ni 2.7278168260927314 1.559708750361199 11.46067003957346 0.44650317430554715 -1.1218101044855067 -0.7144923421301695
Ni 4.640967922135334 7.656116117873274 10.147986805894133 0.14423605913466128 -0.8160748282603623 -1.2059692529329296
Ni 7.945386943665372 7.079984664219194 2.4381421038506264 2.2384852017372934 -0.09601913310980238 0.1624232715666493
Ni 8.162615446952632 4.474221767681182 3.8798151765187194 1.4174165198067654 0.5048775004793821 -0.8354218653284063
Ni 1.2035831765154097 0.8752662027718859 9.308935709989353 1.3200953800560877 -0.7335236477300077 -1.3868170497533536
Ni 8.977102295125135 7.413354580263861 11.39889553684434 0.15163209448841627 0.5733742597991996 -2.1842202697461417
Ni 2.551655835974068 5.88081704563044 10.890981157964605 -0.8167821387400321 -0.3527561250593731 -0.6899935856578568
Ni 4.76522492323555 3.685380931858807 8.476278228984345 -0.10705636476057047 -0.36865068480244256 0.04962691899850808
Ni 4.4200205587605925 8.39432396749191 2.123982218495828 0.4172843866497458 0.07162399209488955 1.1947839257400714
Ni 2.5317811178862852 4.343120181052868 6.490188518081643 2.3747259013713036 0.17167384363063984 -0.9396021940927625
Ni 9.00639184887743 1.6617843986358263 0.7854562024009836 0.2886384686438577 0.24740671568758035 0.05456600817133828
Ni 0.01528969311916571 8.575597213376403 5.575666216523012 0.906048269396717 -3.365319756020585 -2.0470310901559325
Ni 9.284346042200784 9.025089712507146 1.743294279884896 -2.562288905428374 -0.23077167823406064 -2.432029877299095
Ni 6.985130194899247 0.5695909673179446 0.9048212548899185 -0.2919593054869746 -1.413636998159675 0.408938842898528
Ni 6.698100099995303 7.127840273901904 5.214999867436229 1.0623029502588093 1.072372161569353 0.9789657834920494
Ni 4.844535498873389 1.575440940756597 1.6028936600707442 -0.8600640893571188 -0.718768343797704 0.1603044254514336
P 4.300960546947188 6.1059257663688955 12.971488489812419 -1.5374356153755908 -0.2139463791466057 0.7846919430737067
P 4.066898317491782 1.1425185523953918 4.004754753204611 0.06312495348494289 0.5620153831429546 -0.37637350736799696
P 9.120452582952979 1.9884321220160321 12.346998674251145 -0.18636641264580805 -0.3592957259501038 -0.5466108756624264
P 4.385383378350857 9.387824500989423 11.243393520624311 0.49092052407865777 1.7846962924036103 0.06357541075880019
P 5.09601517430814 5.933445976995056 6.352103006357394 0.16331107348824134 0.28657592968787415 0.13620393285880414
P 8.013456205519786 9.20174968891603 10.296062399741993 1.1331517547505712 -0.062469579289131126 0.24098358577005596
P 3.3232016186807365 6.456684883885915 2.7121072313029284 0.8837498630098327 -0.1851112000824683 0.4464939183341665
P 6.788228321811666 2.719682408078594 0.6339978580988638 -0.4603416228505362 0.5302915696771126 0.13872747061160623
Ni 8.851950884636791 8.245381267279347 8.159430408047328 -0.9625842568102324 3.0140224748949254 1.1527574447966404
Ni 9.195799512776059 6.14790651859695 8.03318216920407 -1.8202189107902524 -0.9355838169619887 -0.3725137673022746
Ni 0.25368274698024634 3.5898485943710146 13.6125550065282 1.214090339378167 2.1489354784019183 0.21186250003438353
Ni 1.5644349978647836 6.041415312395667 4.600059519689468 -0.6495462762760879 0.20970791558522592 -0.34683358892735106
Ni 3.9111486910937785 1.470606745632268 9.405323856039049 0.38346383855587507 0.012033277015450244 0.4806790488563077
Ni 1.9491440127880282 0.7686949704674548 5.50308913135243 0.777832496949712 0.6247623844631885 0.334794655484946
Ni 6.626603837959007 1.2106913774421155 5.012853930883515 -2.284084230523331 -1.2720175507122544 0.738361178327967
Ni 1.4413171918799745 6.812518597826103 1.7316641333885254 -4.170822465192056 -2.207192819381915 2.2338772706516368
Ni 6.432997157354005 2.42630671393677 7.285710121291555 -3.6968802208389495 1.0280779676376681 -1.4871479228646325
Ni 7.135852299052401 1.2259528260542876 8.749306580288028 2.004846743478399 -4.851006006738026 1.4855484395879963
Ni 8.960626332712241 3.684109929044098 8.56275820198071 -1.6963583299881495 0.6756589142027395 -0.03978062233204762
Ni 8.142891366235482 0.11464068795248347 3.8172281734717504 1.1909907772462265 -1.4707805372502025 -1.4469410116284436
Ni 8.868577484420317 2.0462580426674584 10.064207007766349 -0.5453212103167253 -0.6011838258123001 2.7563076924131176
Ni 8.98663010881762 0.9319096200638494 6.4917457319005525 -0.9328610187141869 3.2449250222798955 2.0275225878093597
Ni 1.195797107420859 6.125969951498639 13.033166019734198 -0.3732177353478347 -0.5528874526997575 -0.39855184323724907
Ni 4.573520039434778 4.376702899868178 2.4945557991523755 -0.08175413855035597 0.021301589691253637 0.04394452390175013
Ni 6.893024857593337 5.097973460126359 7.737170321076182 -0.0980932420300117 -2.486236445248486 -0.24377966045795435
Ni 2.8838865569033287 8.214161672215829 4.4210072335382335 -1.6098342808529758 -0.5805756626436454 -2.096577276515176
Ni 1.0498389101139465 1.477404256982045 3.12344140148541 -0.5362737554024765 0.023914601834068492 -0.13481425160012914
Ni 2.6519991544864254 3.742321857957769 9.714592734266136 -2.211153603801876 0.474619472925789 -1.2384749388701186
Ni 2.9963279392445825 7.2078569622145805 0.3863500207795688 2.4813683185229074 1.2472277453620844 -1.3819489230277748
Ni 2.6667616168083783 4.662593799656716 1.2640913838476546 -0.3846390898108989 0.9148075036465857 -1.7619453718603397
Ni 6.1451573865829126 4.835845605555046 4.878475039960385 -0.25684729227518993 -1.3535428610812559 0.6465159740901962
Ni 2.7476538848378564 7.968039038274185 11.704981259133254 -0.19266458694969402 0.6015656346317511 0.4530417467550133
P 1.2589894844010563 8.673323207574025 13.44946086682831 -0.11188541071809763 -1.2770108901617878 1.4034045217983895
P 6.7965604513747575 6.452551771029194 11.269175106608008 -0.31776649635806564 0.8513807026505079 0.6025742784019236
P 0.6119426640711805 4.750509535091919 11.015438695064475 2.001057965859928 -0.05552168721638825 0.09795594512119904
P 9.118833231218682 5.303857086437883 1.3884566555580116 -0.09143665594544254 -0.13295740089704844 -0.41577643464565167
P 5.093181308773122 9.123258203981003 0.2006979348275119 0.08977957995799377 0.11590558762108426 -0.6154092253830626
P 8.973119819639047 6.452928364455774 5.482226797003441 -0.7607562581937157 -0.8911903784482781 0.6818465310706902
P 2.06778035699653 8.093491723503792 9.368119249943602 0.21260117797262093 -0.36642565212666567 0.37831031937939363
P 4.142791307783404 3.2116923050702697 10.99270186693468 1.880292479043381 -0.35643537368317324 0.9401976615849162
