# total energy = -340859.9377287124 ev
CRYSTAL
PRIMVEC
9.29320463244619 0.00000000000000 0.00000000000000

0.00000000000000 9.29320463244619 0.00000000000000

0.00000000000000 0.00000000000000 13.60154435110049

PRIMCOORD
 96 1
Ni 6.487958007692669 1.1555356727769814 1.0120913392164643 -0.3551878744293173 -0.6490253707756112 0.4445817889131182
Ni 1.5327096832909393 0.36355296022049943 6.345229250902702 2.092620348749957 -4.603556353627652 -2.3311197346455788
Ni 0.43301873687231995 8.011309433737573 8.842418397195003 -1.8102934241464244 -0.5110931423717908 -0.5608308759165503
Ni 4.243797736787612 5.7551237558053385 13.151210949799216 0.6474623971638657 0.6689218525892221 0.19471761282398078
Ni 7.386657379070787 7.428421041497479 11.93955825976287 -2.9264121346741083 1.0656330430733065 0.18174999691971924
Ni 2.872780524026716 3.220188399526723 9.081860607146593 -1.5566620677053706 0.6713569443932761 1.4287890233097649
Ni 9.103335344826968 1.9995259474248066 9.937574259665196 -1.7555677504687701 -0.29625818997264464 1.1001678436253828
Ni 7.32326842904576 6.131433498271748 5.685813175673884 1.2497479406807765 0.20625852358404478 1.3063888291032726
Ni 4.85896142934099 4.889759110089113 1.959275218741565 -0.5185298011554941 0.5751917726239126 -1.6204663066455252
Ni 7.6199632858847846 8.890279331299077 7.875797779804876 0.47801744286374453 1.3126504937422683 -0.20627729263712213
Ni 7.460110869907586 7.959657801390543 3.9061458676996073 0.34499602149798003 -3.283983421733938 -1.6996778812796856
Ni 2.7050846431878957 1.2510791114527315 10.648010029313806 -0.22735853878745357 -0.7416794440679226 1.0282360904820873
Ni 9.085269354671762 6.020704962932621 2.6510223535125417 -0.7044861228470771 -0.0354727389853131 -0.7904224177995806
Ni 5.1586115253103415 8.452383520541236 12.432682657400013 -0.21504012643141676 -1.042169669844044 1.2423110247867573
Ni 4.842252247088389 0.9153081870187467 8.739577004780116 0.2663693728330122 -0.909633415644814 0.4176715947858355
Ni 4.613026057187012 5.938590205210713 6.258424212712002 -2.0164596451269787 -2.153000135389595 0.8966884254483718
Ni 4.3562269286073985 7.814423596583168 9.326620388891811 -0.011481261166722162 -0.35357502141624264 0.6240699863818542
Ni 1.2314332764794278 4.335205699321867 4.2191856131625896 1.1657353451135473 2.5573940392299184 -1.1193415883403561
Ni 3.1834523609035115 7.920979482961551 0.47296371911723556 -2.2014479464783374 1.3010918423703914 -1.611349946166554
Ni 2.717807040576 4.134268024869278 6.0342981336116415 1.9189631561407015 0.9163298538283832 1.094227823991864
Ni 0.39888479559656553 1.3534716420751824 7.848771281569606 -2.9003928277922113 -0.08012560180799749 1.6553464063521621
Ni 7.991013074427405 2.711450488484354 0.36034401659879567 0.7433329205109457 0.09252860345804065 1.2557111002427472
Ni 6.645775211815963 9.167449164827358 5.451988708031357 -0.791882547284875 1.6178239839266715 2.263461669176973
Ni 5.155098693891274 7.4818383827588555 1.1430177258947485 0.9534907791493965 0.04624900366521067 1.3290142798122726
P 7.650472877283724 6.715148985740141 8.27434987866916 0.46477600447280604 0.1090983348912637 -0.8835755422154976
P 0.3303037320428806 3.853957088114423 2.3130786777934302 0.06331932888393613 0.3843552400218929 -1.1190543961172406
P 1.2091481713394174 5.409379363966742 9.952971241398295 -0.04944797021848258 0.06558987008566769 0.04818684411787185
P 6.994790811748506 1.219370696633 3.6072791888959377 1.065510144342197 -0.5288450670385731 -0.894375461044479
P 6.908791494415038 0.2519257719760184 12.386436882292326 1.5340913814937065 1.7221920032218017 -0.3050701318373198
P 0.1809823757590346 6.323384643670797 4.757997264298198 -1.0002300921874645 -0.6136277080026077 1.3959642634702605
P 5.445288307361654 3.048171178450161 0.43598791580986507 0.23665050561234083 0.47743868754213903 0.613482440673995
P 0.4765035008302589 0.14054857094098946 10.503493259917944 0.5822941879966488 -0.7069662089564535 -0.07471522942570359
Ni 8.292651916226598 3.8792067255895732 4.34995122739762 -1.0941445202494382 1.7148666732049822 2.2687859096033636
Ni 5.616943093450535 2.8508206810551373 2.8579838833244953 -0.562463783534283 -2.112027292521659 -1.3741278843214593
Ni 0.052516829715060075 7.557029702895563 6.58215486099111 -1.3947393899242237 1.4553968557052805 -0.8600987992497962
Ni 2.020184741722656 1.185617776754552 1.7399908993484376 -1.6959610945497308 0.5738756249156505 0.700986851444567
Ni 0.02668915490058237 5.910747763592918 13.303684561155409 0.11008589561551362 -0.0169062888370354 2.6194761532726436
Ni 5.068857753232684 3.835630888224473 11.940224582547915 0.3930949338877359 0.29045341036540945 0.18496696119512016
Ni 0.20587236620794638 0.6617514575981612 0.5152329318857194 -1.0154736486100961 0.7664767056172606 2.02556006476635
Ni 7.260557882972035 4.08516273064083 2.016388467556812 2.16647425861663 1.0176719418129956 -2.0388287568507986
Ni 6.091212507843906 4.095478187982536 6.180949552152901 0.7491515840752517 0.8409340533958872 0.22444162225097475
Ni 3.5343266017985244 5.946666000192644 3.8271619906789804 0.4213564998365904 -0.8471242413669992 0.3214786551023302
Ni 1.3487692804401343 3.3647906664068588 11.108313615515181 -1.0344748723029475 1.0024996049479316 -1.6187544661607411
Ni 5.946266392385713 5.1150635675596785 8.737918167721112 -0.8788987055651186 1.2463623120379954 0.014977190135122592
Ni 2.2122102327602042 6.257551580780124 1.8386429150339185 -0.553780139717356 0.7408001267867629 0.22487691001618046
Ni 2.8064735076906127 2.657512727753486 12.588963694767827 0.03380203615110953 2.499194548071051 1.2598768015846626
Ni 4.7813817555675096 1.4513755547732694 12.314104151955895 1.7844643788984622 0.5914249466533233 -0.42259268623653673
Ni 1.9702895250851598 7.737921934567919 10.381378690042727 1.1973092632650864 -0.7864531487391875 0.801802120391432
Ni 6.915872916482047 5.918619108068977 13.512182257722843 -0.6111501929963926 -1.3136799634480472 0.2566122934462484
Ni 5.770559768998649 7.723712624409838 7.2271943483752255 -0.46883346237163126 -0.10578109759257266 1.308087042741302
Ni 8.223538352037165 1.5883202208880303 5.964794254820092 -0.4022496038038104 0.3476519710635884 -0.04072858806761372
Ni 2.1082099777052172 5.483167410176785 12.202884006082195 -0.7795448516551284 0.4730685834989014 -0.9787984046762497
Ni 3.6592086880668577 8.17847560190209 4.948663159471699 -0.479796132030722 -0.12442673771821795 1.424039938660554
Ni 2.112819407292142 6.558939506049383 5.90983052427794 0.47337068812035255 -0.1360650932880947 0.34257095699625517
Ni 5.727606576355976 2.180557577169347 5.102837427308553 1.9921773755408465 -1.5602505563875775 -0.8095501397679671
Ni 2.459641810888971 0.15448744883903032 8.65331654839142 0.02400253356218447 -0.23892670324102724 -0.7014241960923017
P 6.6017718870294955 5.269590977179402 11.12560083510711 0.3712734671372702 0.09064989837808904 -0.4032716173104216
P 0.6656862005157095 3.6360871944937356 13.173367808712815 1.8400801684905534 0.02389686122225562 1.1661572631423143
P 5.581201427742244 7.272062870529723 5.118737171422 1.7032519717841894 0.935094536030396 -2.3608265176813923
P 3.2880380878616764 7.893880497728743 7.395295412943865 0.18693308378255546 0.10395510012742742 -0.7965758389954862
P 2.3041850807880127 1.969759812410856 7.373818816622528 2.6233533768398627 2.2999893317893614 -0.05312927572481173
P 6.029459161865853 1.5598086685237462 7.062697188632815 2.813013372635278 -0.21978381176398926 1.6432403671172475
P 9.024594020451943 3.637062980999032 6.558542686203896 -0.9258856158376182 -0.6883097701975308 -0.2552115564439798
P 6.7524147370376575 6.441956643871546 2.026099866585716 0.5803000403847555 -0.8223493484151644 0.9263615270327724
Ni 4.124909767623243 0.9146158432602268 1.4049578553765532 1.9502969332569768 -0.20705813666720466 -0.5592668738635401
Ni 0.5034974728486863 5.445279014156841 7.332143439641553 -0.29964973215269686 0.5541832886930456 0.4238052184873991
Ni 9.039676891862385 2.10667659891118 3.4658505514592193 0.539617989284361 -1.787741506987837 -1.7300559793509107
Ni 9.191341994399904 6.727481068526127 11.303590798916568 2.5603073562219714 -0.759311298217073 -3.030490647753278
Ni 2.5557707214678995 4.446222324010177 0.6156441512421778 -0.5453014128223835 -1.4958822174138366 0.4124689675389735
Ni 7.307191184720399 3.2410516443304442 8.135954543283193 -0.09669790434438184 -2.477814539733378 -1.5247220244636643
Ni 1.476569433019545 7.6447389699145045 3.6879497825900067 -0.7060843205721323 1.255973095654882 0.021089987901079806
Ni 5.344921695388295 9.134988000417826 3.396156161969015 0.11261688956748346 -0.42712142734482567 -0.6647736347488035
Ni 8.812300049718663 1.4837252007250528 12.235010615118483 -0.31436672664789733 -0.4302802846887815 -1.9899945089569147
Ni 6.7297671969099655 9.227808530083559 10.04516262109823 -0.1523329772101828 -0.6334977074536574 0.5973253712981584
Ni 0.5739185909552161 3.5692504654833286 8.652363994898154 1.9145025492661867 -0.1161578128412064 -0.8077863629993249
Ni 3.4265254259752873 1.1675239069849104 3.750109241618359 -0.25553191589787605 -1.1224240839204218 1.0286160995293254
Ni 6.766168680159932 2.168039630287114 10.84375001431485 -0.43035510379077496 0.5321443066151351 -0.02531611016728543
Ni 8.922182903419868 9.114654468288407 2.71652736627334 0.5862020076914872 0.37058106905593596 -1.0099570896672414
Ni 4.540836442204693 3.088169131962507 7.693333137878273 0.8813278838319015 0.32588398325887746 -1.1362751308709012
Ni 7.4607428078348255 8.34969360736479 0.8535529823997314 0.2296933575682173 -0.9703775276024063 -0.62612506913867
Ni 3.0901857574067866 3.205951209754206 2.939960172294699 -1.6487870079670894 1.39761928257518 -1.8543212517905998
Ni 6.429912650434742 4.9815759736351115 3.7759108954593623 -2.674061958938324 2.0353405411918817 1.764198943781207
Ni 8.240870179012195 4.74560291703997 9.389391340796816 -1.0663583512751056 3.228521898331523 2.84572474682537
Ni 8.25415016868904 3.8595608906162693 12.078498176950841 -1.7111725121828465 1.9125803925428095 -2.6634864974153225
Ni 4.3161639226613655 0.7491447556534824 6.1714426036298695 -2.4161597430360584 -0.8403265017188754 1.2406567770127859
Ni 1.1059006658742303 8.736829933437587 12.505259799023008 1.208907509625647 -1.1069452715585324 -0.656900916868946
Ni 1.3127581117922857 2.497344342812667 5.431477675690023 -0.8260512227467839 -1.5690439863094914 -0.11857233581996997
Ni 3.826709411604619 5.457369473617707 10.60090742072242 0.422391368859008 -0.13312452260253202 -1.7078912703284135
P 0.3730887176784498 7.890981017827291 0.9942019199526942 0.8525253577779124 -1.541032845808546 -0.08823563250964159
P 3.4306609021167818 8.065823373166808 2.8952245429690175 0.5063491999289021 0.10874892197164496 -2.9331527958320516
P 4.49507670170869 2.4629408985973544 10.228715497308361 1.3734002621268155 0.017003476536532006 0.9637942179579337
P 3.6115903066083863 7.392084610681199 11.62940219575316 -0.5001955216226806 -1.5382689099101639 0.06136220515756528
P 0.5067250028800148 0.3877766278843659 4.52905637578456 0.5579658956639293 -0.23621727472966414 0.6097075470125951
P 4.374060588642294 3.4797011439115426 4.462598809530497 -1.790174284799046 3.1771674551189477 1.3824068365007998
P 3.5368264738930457 5.195189579451743 8.175643962395768 0.999753152551046 -0.0639271376712641 0.10460481789628437
P 3.000710781473499 0.735081348810956 13.100260025095034 -1.5951735935170077 -2.7824663530863565 1.3666922539790205
