# total energy = -381163.36824529036 ev
CRYSTAL
PRIMVEC
9.34357054096106 0.00000000000000 0.00000000000000

0.00000000000000 9.34357054096106 0.00000000000000

0.00000000000000 0.00000000000000 13.67525994929093

PRIMCOORD
 96 1
Ni 3.7640479564204914 3.991479801372896 9.78979026451715 0.5955399972629614 0.41278572744844394 0.5914689125173813
Ni 6.590421914229647 4.670252810222671 1.5588700584875403 0.047673137706246926 -1.1398870165918755 -0.13722028993846044
Ni 0.6304013453471007 7.710538466743478 4.77995473489305 1.7917318590941531 -0.7322458094588485 0.6955466542656021
Ni 5.807804464937776 7.457000686340723 0.5158239456881774 1.2484042821686887 -1.3691702832058679 0.09819711459772766
Ni 1.122555224365136 2.5771809376012493 13.087401584844999 -0.6809402172063369 0.1575327762435674 0.3488321074146186
Ni 6.240785513173035 0.8690351967459715 12.140703566026808 0.0729653366141324 0.6672709472493604 1.3764557611236874
Ni 1.6430294649973507 6.428292282184368 6.868672503749309 0.5159815808123437 0.4334471124525374 1.0780848956834144
Ni 6.61566824121134 8.813210573485726 5.774146121604634 -0.40089129000370316 -1.3383561260384886 -0.37431662483896827
Ni 6.395122607578516 1.3066983080643262 9.68004629378037 1.5169056137430392 0.6294127387510063 -0.11591458648214877
Ni 0.4158869863503553 7.928598710673442 9.247538964559904 -0.14592321702909708 1.0456455442077863 -1.4764662747810702
Ni 0.21408642347647827 0.3283452073877791 0.7048060644516974 0.4630127419247961 2.8464994202078655 -0.9309509461756676
Ni 3.2897216095568123 2.7088692175716362 0.2851732407634586 -0.25711494411427976 -0.784662632497668 0.4901653910801881
Ni 7.235371198551764 2.1750897328158345 0.7583372474803861 0.5071896935523266 0.34188832910693373 -2.3046337725399084
Ni 5.235996649014139 1.294336764542202 1.1312354011845265 -0.957810489570673 -0.4542123700243468 -0.49624065073999046
Ni 4.204102087381561 5.093497858193339 0.20433173607126442 1.2790081230974746 -0.5457068757909183 0.25548615026160515
Ni 7.065122003905786 5.61060841351341 9.659834282482517 0.6847099686614143 0.5941778268081122 -0.40569411070898515
Ni 8.32055214167087 2.6790725718482387 9.41936815694556 0.34174743265369534 0.3207710875123443 0.0017596630035840663
Ni 1.5618899004122195 4.685024994885165 2.348698875345831 -0.3176387125309497 -0.49974660701072 -0.8789336725681121
Ni 8.598626137711644 7.76167582705836 6.777854869035518 1.830041810417945 0.7121138145956639 1.8822228632968747
Ni 4.921305200922566 9.26097314995379 10.479050496684561 -2.3049101661297464 -1.4820280851395637 0.6498949178647582
Ni 3.091600544671607 1.3458665548101658 6.5876459394900975 1.2630135474414312 0.5369993207145913 0.31900756785401835
Ni 4.607099618487192 2.1626721278718413 4.851572266973723 0.7978364508754646 -0.07875417538176759 0.6170351910222598
Ni 2.9530447405222624 4.376509646769497 12.020197671005233 -0.7571423155902122 -0.035854290694447934 0.1857827722281962
Ni 8.847725722216435 7.140403149905602 2.951613305550539 -0.9564735159268044 0.7865662772782841 -0.4667626958855316
P 7.550417702315174 6.494781128521056 1.4854613639781502 0.26405897953228075 0.8379472028534214 -1.1479767355785453
Ni 2.931208816704269 9.45046075587116 1.6516974951753363 -1.8067203620831853 1.3941410942185926 -2.8315219729624266
P 7.909612575800458 8.808875156861188 10.531235271231361 -0.8620618365134379 1.8743198063997137 -1.0105924092583949
Ni 0.24053620231429373 4.497845250834734 6.680938685979406 -2.0193266822621285 0.7827772425494971 -1.3673409433066128
P 4.717250968889554 7.877096951116411 4.467365590121566 0.8270449541186209 0.5861133046324228 0.19176110129881813
P 1.5491639576479463 5.165097637490421 0.08526661959172414 0.23270771891450892 -0.26164625632573 -0.1393383647227278
P 7.764918045956453 3.4833203864112483 12.707762045161106 0.7043585961302773 0.026006194255774565 -0.026036019052445483
Ni 1.301998492197638 2.91336259740929 10.86761968651516 -2.1573252451275104 2.633899784897141 -2.434254909974872
Ni 5.076716805913871 8.326971174474876 8.34322151196065 -0.307807842483457 3.604775849402521 -1.8008646746333565
Ni 5.44190090796883 3.2479465066940625 12.941404561299569 -0.2593482043201727 -0.5918967440834193 1.9442908362722127
Ni 5.2049946827205575 6.758484713422732 6.354045469418035 2.085419974346776 0.8028444456130174 0.4578026584787664
Ni 9.546792965782805 5.619867891692115 9.075586437046137 -1.2196012418940674 0.5468201634597549 -0.8183739087071841
Ni 0.185158729792051 1.0643167506135096 3.022752446831264 1.0283888140098676 -0.6905533148160687 -0.0919418777166352
Ni 7.114680300838022 7.654626541999417 8.540240969906128 1.500537713907977 0.42570937748864746 0.5531995846235376
Ni 1.7860888700368422 1.6197920056326316 4.811148244378018 0.7590179353463703 1.3153272692434832 -1.069713126679951
Ni 8.325765853904691 0.6455902532454872 7.502507611185888 -0.5057097665726904 -0.8054284042901096 0.6154264517742434
Ni 4.581685107239891 3.4836474113721505 2.105333439941213 0.8745417141480035 -0.8613455271727036 -0.9408430084783991
Ni 4.575948155068626 8.998680444169151 13.162861193037765 -1.7604862708163098 0.38984711637439956 -0.5564612860939449
Ni 7.151886397818444 4.430711698146553 5.443422975572575 -1.1585151732160242 0.45673256534303924 -2.6601551190492447
Ni 2.443577225717003 5.994274097644532 9.979630123035268 -0.03465152863559838 -0.08753680667040409 -1.3614623730386488
Ni 3.2846387073073524 1.9799866411412461 8.945793967491957 -0.1018190276210311 -1.043565521750306 -0.10359386013326675
Ni 6.004626773549682 6.361728687285188 3.3596423492689165 0.44785917411280934 -0.5242553907853615 0.2777765862286894
Ni 8.63900904859798 5.7311685012427915 13.023606489829119 -0.2816234707786053 -0.1843591524077922 1.470949715838215
Ni 2.627477376588094 1.4216615971771147 11.353214379174519 2.4154341777239434 -2.51230177487697 1.1813457979572946
Ni 1.5555549597410172 9.26129083134438 7.397126153427551 -0.889226826964004 -1.0517177185437951 -0.07696083092677068
Ni 7.578513818241877 2.355626198374783 2.9399889697259924 -1.044743344108491 0.9883760210623559 1.0702471448065505
Ni 3.3171449884210866 0.14712666119609083 3.7953087396117025 0.3634298027231354 0.3249509299216468 1.9126161308767513
Ni 6.2997714725495815 3.824874599148405 10.944350954627323 0.8139372130920691 -0.6123588685925131 -0.1581801800195792
Ni 1.6923261419608644 4.221686686707818 8.317005322380622 2.4008578225716652 -1.2466289354358207 1.4585716538888363
Ni 8.816303295258836 4.7349663782001725 3.369720324206909 -0.7216893740992409 -0.2553840774661021 0.6566623184955788
Ni 8.66602131036855 6.959436880112324 10.959517437956963 0.18456741176385633 -1.3834622743485077 1.0649784402084432
Ni 8.979442032897758 2.73504990158448 5.082533178432784 0.669495465704505 0.7473692953638483 -0.48702993077499995
P 7.469109953464436 5.169339618411845 7.4727632894562355 0.42095489352279764 1.1542455993063927 0.8112270132497577
Ni 0.0492163222588347 2.7287616787648354 1.521085594504835 1.3587205486274534 1.3319713055580673 -0.22472110116460653
P 5.657372982922506 4.15959866198785 3.8702488452951482 -0.2848247513247224 0.00790202845589607 -0.5761744482521561
Ni 3.124555317160294 3.5074267978149374 3.8374286202189465 -0.6893978610553869 1.565672241623781 0.9917058567665373
P 1.4726401167966996 5.673229021741134 4.797226324613871 -0.43064795244084547 -1.0943422380825412 -0.7507916907818359
P 5.581643345547737 5.521171758491661 12.071384552242765 -0.47341619664630724 -0.36429523604722425 0.43595265248321047
P 2.281214004413937 2.2998544271853945 2.416364077184738 -0.9831412550259777 -1.2906475071086159 -1.1584714644622822
Ni 6.07793642621377 3.7808944136921396 8.696808374544966 -0.9119301820987906 -0.8421864377457496 -1.521071829305587
Ni 1.8607720275367219 7.040866095377112 2.767230092094343 0.365766421276112 0.9162969437079187 -0.15966293521269276
Ni 3.1435601391739003 8.128803391738114 5.94951746149538 -0.05117549443255058 0.39898558834055803 0.45197165361928615
Ni 1.5173491007372633 6.540957053000525 12.010283208547692 -0.11587936236883914 0.107337386336099 0.007301932978051941
Ni 7.986958650839117 6.501555216996898 5.2207769073337245 -0.781883269980318 -0.4827842681247685 -1.5214335835203796
Ni 3.6321447743329403 5.6173170969970725 2.5667236137086102 1.5189319001444486 -0.09568951768452552 -0.675845576292249
Ni 6.0458412621937425 1.1933140823341823 7.425748312362792 -1.5294145448433272 0.152687275225808 -0.614539935404232
Ni 0.6650239451363917 9.063328607154471 11.611608013068166 0.32402379012168714 -0.31848614813290954 0.5037030205553067
Ni 4.363512740466191 7.882151822654937 2.3181612844967314 0.5975768251873321 -0.10758395512926633 0.2703031606697796
Ni 4.334323426813041 5.049396206323022 7.546117791257818 -1.1830609808761883 -0.5711235160918099 0.2654797711392073
Ni 8.384097763359433 1.397938272156197 11.600162139436568 0.7941281487859421 1.5691635426064912 -0.03721826092151009
Ni 7.502644027312436 3.013572389000208 6.975654515102008 1.2197297970521317 -1.7295438156011826 1.8199669426804463
Ni 7.559088535564253 9.26457042452372 1.7510897243639973 -0.3471634614629441 -1.010556413814137 -0.12208086319386072
Ni 6.922548464522492 1.6365263400605414 5.090574255042867 0.08280623396395416 0.8098265333578054 0.7502931538788628
Ni 4.8850521481139175 6.469618893672165 9.435847411903964 -0.46518069611039237 -1.7230530656705163 1.2021421658773555
Ni 3.6543637845337047 5.902697765021447 4.896207436708826 -0.2547436156686258 -0.49369808682379496 -0.22603133533559783
Ni 2.464684351050699 8.456445028281436 10.23907677730302 1.5349362459925049 -0.08906558461010468 -0.5922633833942187
Ni 9.370292922598429 0.3885392904056039 5.27345315367891 -0.332479377088208 0.5312397925229948 3.107471019064074
Ni 7.784801163579341 8.540154074702231 12.77410139437281 1.5383972079579118 0.3123029021403331 2.039277671462759
Ni 5.830275751536952 0.537297338978084 3.2127558178298314 -0.9422257477585385 -0.5300953945059064 1.2458290652423447
Ni 2.611434466363236 4.00935405137881 6.118543582787582 -0.24068430936208227 -0.6512331770602074 0.09057225106261821
Ni 0.6993783844577425 7.676415747965853 0.29980153444315477 0.036916927631007394 -2.61139928980178 0.501248388367227
Ni 6.24894245005498 7.525526431005319 11.5381311104955 -0.3889873394772656 -0.7821666055486918 -0.9448133059800566
Ni 0.9261926194125564 0.9597061374058715 9.330014659699582 -0.1482734624288285 0.07472242851455518 1.9282201559625956
Ni 0.43749492705274756 2.309543709598428 7.649817406360085 1.530049607324165 0.8188328506214736 -1.7639942839695684
P 7.888383984052712 9.284117173615394 3.9635957844922642 -1.2789847260587068 -0.8471036725417088 -1.333820442951664
Ni 3.227941922657125 7.072531455162811 0.3048573403387115 -1.482518137402105 1.2308624166301834 0.7009621688542186
P 2.2712911327431162 9.001847914504753 13.112988017786032 0.4036770802789564 0.16140151517035428 0.02377267693956551
Ni 4.003990842020005 6.848229706264761 11.658500589390528 -1.1798134204731683 0.4551937601010096 0.25853445016962573
P 3.2444706985381817 7.427278789179816 8.24615396306549 -2.0410905563017816 -0.5767678588617808 -0.3299046743824964
P 4.789018932452243 2.086568747684612 11.160734962043401 -1.2742968336647342 0.482665226048401 -1.1267530503130787
P 4.718325479475377 2.953203581217558 6.995702079562378 -0.7981755793824382 -0.5900062119289258 0.2346198483355572
Ni 8.751206640898562 4.617302797267358 10.918819648751128 0.26485550729164703 -1.9294846244973156 1.2632434040640501
