# total energy = -340860.66278406285 ev
CRYSTAL
PRIMVEC
9.32424160744257 0.00000000000000 0.00000000000000

0.00000000000000 9.32424160744257 0.00000000000000

0.00000000000000 0.00000000000000 13.64697010128103

PRIMCOORD
 96 1
Ni 7.9139686935780915 6.101718423398883 10.705337991669317 0.675929908475939 0.20454925420242193 0.14641661172574783
Ni 4.294736349715082 1.6838088423486557 4.609373557752411 0.03705756697392972 2.4227340538194664 0.639325369879028
Ni 7.095785142995483 5.14420273081468 12.67463739528539 1.1529047690077823 0.06895827233726834 2.410462435540965
Ni 2.942767941127703 5.371136122505424 1.780752049681613 -0.016967481092274004 1.7765888328051274 0.6623143745750335
Ni 5.351098327339701 6.6474569591153605 3.8035604784803505 -3.7581976888015083 -2.5307972625779964 -0.8007849919808272
Ni 2.048880873118142 3.510176014287245 5.301015028515289 0.8256478166607781 1.1070648278555322 0.9646707070256161
Ni 3.6126960505120684 1.0763438273408334 11.444199286665913 -0.32885000786573687 -1.260115657068346 -0.9423473609380674
Ni 8.557602441693335 5.742306207271367 1.2348652585239366 1.9116617373832823 -0.2403644641288183 0.7482897502955886
Ni 2.085982030384042 1.1877964870038904 7.8084956700433645 -0.15663211880616895 0.15412220790012165 0.32273592454819905
Ni 2.780684649659208 9.455899875972504 -0.087823166638869 -0.3905305155946694 -0.2308588386312282 0.1747257430830862
Ni 7.139375972404401 4.376463327205812 4.082272316115622 -1.8071919024029652 0.8443487355043909 -1.9002792065779532
Ni 4.6986251982020715 4.446637569372981 0.2793216430349173 -1.3717619551924438 0.7463231134875212 -0.25802511463337496
Ni 6.29262294560598 7.037406066433081 1.5478669945872927 -0.2043052565124159 -1.5484016274687913 -0.43628535323228085
Ni 5.993118981660773 1.0016753007297934 11.111690304783007 0.09734633656165816 -1.2778040754870443 0.2543304393906072
Ni 0.8030325904314751 4.306475569870339 11.755268107448742 -0.42369131861735415 1.3113479728807607 -0.5827503016974609
Ni 1.5965805623228966 8.625231165907854 1.871846160268428 -1.0469035849846036 0.8303735042712215 0.19861437677522567
Ni 6.536284026699848 9.386714003413323 1.7442467114529812 -1.3879041121699451 -0.22101408462666455 0.5408775727230749
Ni 6.383263898051774 8.24455035472542 7.570547551768501 0.5655753325800712 -0.4277032679902246 -0.8484249624562935
Ni 7.973625191237612 4.745852481829059 6.080025575351857 1.420042901686019 0.4280922758985273 1.327167713521837
Ni 7.540047957544635 0.8567281004458353 13.148746174723314 -3.3802262408187724 0.9429780525435308 -0.9596035769153537
Ni 5.8261777603266 1.2445344970473693 7.99822999993157 -1.067236897225317 0.45448259296659793 0.5222707562551651
Ni 4.214324090287809 7.068138766696566 6.132102397027096 0.5703246743395984 1.3101714360741565 -0.7386517129851924
Ni 1.4624979683335415 4.21582529318296 0.7995938101350027 -2.689488577906039 -1.5888214260467346 -0.9585813062984265
Ni 5.680486485564175 2.4105588799507625 2.419020629188964 -0.4590964375895254 0.4027016037395645 0.08474073198250567
P 0.37006516213814417 9.225814890626097 6.864685680164651 1.3289345756142723 -1.9492528082631788 -1.2310745326409895
P 4.067383367153021 3.521169295115719 6.83406114110355 0.6585816470054787 -0.9225982033355983 -0.45755043325864425
P 0.48075696368788184 5.774838486160718 7.308265960229797 1.7211921012023776 -0.821376957199566 -0.22907217904445068
P 2.468126747495288 4.401554861310497 9.905052322808723 -0.5910295109871176 4.3524714177575365 0.09833852527159838
P 7.640600578795067 8.268746761637964 10.026196599175016 -0.9430407874606662 0.3083071507173787 -0.48654939159415567
P 3.836384606131305 6.37296993534216 13.40762908020436 0.5305509939860863 0.7107434166106985 0.8005181114726858
P 9.302031241340213 2.535531689911773 7.884250470799033 0.4560203697673631 -0.6319704721758534 0.4454397660380393
P 2.7434622772527057 7.681114408481002 4.440314801154331 1.4655902512985146 0.5477254488828438 0.057126055589030646
Ni 3.6893226678559152 7.57902328736908 1.6999481721077776 1.1474738278001981 0.6757005660739523 0.2846388605661614
Ni 1.721310942002702 6.893924636926252 0.3248808198423851 -1.043523869879093 -0.27856694334046866 -0.6475019921525493
Ni 4.399363664538069 4.7456566727557785 8.794230247359792 -1.63664008819191 0.35626079577852193 -0.45413600826045664
Ni 5.217370054530567 0.8350016851291039 13.506051112252665 1.000047286752697 -1.1670172971497643 0.2998510495302255
Ni 5.390614463176062 5.190189890310889 11.171778514827905 -1.243491932468736 0.0667250121313754 1.0625353779845896
Ni 2.37949983123181 3.250803586122997 3.1604199827449433 0.17766759932022952 -0.04495111078939355 -1.9864060202747083
Ni 7.138443548245921 7.624786665067254 3.637135820129975 2.8229023496142154 1.7812335306659905 0.033734159027651575
Ni 1.1309838830277332 6.603194784312338 9.390971452120942 1.1135321807474308 -0.9808018082595237 1.7674418761985367
Ni 7.2532902318458445 3.2520903314616985 8.054932577857027 0.05068544217000948 -0.6951710160937382 -0.7455227290734129
Ni 1.989093836076435 2.502626441359031 9.94648459029076 -2.3585456920670156 -3.7868071250080844 0.37991005976634573
Ni 0.9134334756437673 1.077956921135003 3.4072662247641774 0.02524309083750491 1.6259126744720775 -0.5447884777417069
Ni 4.901287589047595 9.02539964200251 3.8860016928764756 -0.27520265485392603 -1.6594907675378388 -0.7506672493888297
Ni 7.370122978903328 2.188921657480181 4.274490623962016 -0.21871217596636525 -1.9948289542310806 -1.7509132824158944
Ni 2.9003985873663938 5.254834857218275 6.772663807540149 0.24258821125301447 2.0095302649969975 -0.10478145268346471
Ni 2.5892952668897022 6.2131337860956 11.773309582491162 -0.5731197205862324 -0.23594473779456784 -2.037630622777639
Ni 6.236164662810045 2.984829594916714 5.972951579537019 -2.117615071022082 0.22946427227654675 0.9676148772556044
Ni 6.64201160202984 4.625392604795089 1.4946983042224735 -0.5647137559107243 -0.6916012964646089 1.0506990474712938
Ni 5.706370580203567 3.1587546731978993 12.497445102752895 0.9023247977985427 -1.874660220458268 -0.36049874511926944
Ni 0.13549708143776834 9.176955864721771 8.973333076993015 -1.0876244597427334 -0.15101760083286894 0.48186535585492496
Ni 2.2796558523418233 8.788349448192262 9.589261706087354 1.194355322843085 0.41066328178880235 1.5870689621320022
Ni 2.2423495617610576 7.481202668902993 7.533960160213923 -0.4817892512013509 0.9722752588457513 -1.5719763294649378
Ni 3.5443400354539345 3.454445022334924 11.37248374736478 1.123908381775432 1.2665426436406122 1.599387117377723
Ni 8.786559193807982 5.971300256352353 3.933971186133613 -1.8412371649131323 -0.24599852248614407 -0.12695361790512974
Ni 8.409141867180226 6.820384343546973 8.477388788611817 -2.510805392837102 1.03373619436471 -0.4603174544808201
P 6.141784689488747 0.6798407106131611 5.389461054492023 0.06881326211897182 0.39434628979633374 1.2989010053666599
P 6.229050266480846 8.250508545098105 13.474813970519442 0.6440353737601876 -0.0662951236828084 -1.0483488020715623
P 8.426391714112096 3.614933868492419 0.7796921488964158 0.04732269634536366 0.30239618454958245 -0.36431811886535964
P 4.597690283046663 4.554798771756605 2.5020763111055278 2.6174292980459435 -1.5494537228823895 2.307114372869917
P 1.1123540483413126 5.648849333866965 2.9198918468235666 1.5689851080470978 -0.6728733810378025 -1.9027184121470653
P 9.142008607261959 3.212695410765939 4.419830374816695 1.554011003235769 0.916577451062815 0.28604114023032673
P 1.891804699380682 8.994732211430119 11.788853093213017 -1.2405174232214442 -1.1621522557479793 -1.3114659865158638
P 6.590774894521391 4.5985667617556345 9.433890936135754 1.32202319320642 2.3306427950091604 0.19214291011826912
Ni 7.605019272907488 3.421353288950486 11.128858098388934 0.26477271776985367 0.6858643939808317 0.25382958849478865
Ni 2.435100283801944 0.4068437006452103 5.195701449511662 0.423111020633852 -1.7056760078446493 -1.2456030652744678
Ni 0.16566286781289777 0.9198644050648005 0.24016169322709444 3.6209892259375898 -1.1742238422005327 -0.8899194821556545
Ni 1.354355414433087 6.127742381662046 5.245949787412123 1.36410418153687 -0.6898760862433861 -0.09182746362595798
Ni 0.8675404909875637 1.7445283035488421 5.799212053663372 -3.306001834986558 0.7549640769919708 0.8811247666821598
Ni 1.7186162361846962 3.8729263089021173 7.93840193622689 0.0012729531751526464 -1.6532707547700558 -0.47845890127653723
Ni 8.70012347431693 7.198687473125283 6.04863738090496 -0.46532184967394696 1.665773515222757 0.38371863487915847
Ni 1.811905273240572 2.4459350525234758 12.773045440971318 -0.22005352048560814 -0.8821681203450098 0.2650887063483757
Ni 4.760510189600357 8.651301745378943 9.284060630533839 -0.09311430075818157 1.9547099747230077 0.07663944303160995
Ni 8.531093622867763 7.813481342018755 0.3712558677885225 -0.868668286086362 2.138831042978065 0.2905732237727254
Ni 4.746169506042942 8.004758833889243 11.73658512458529 -0.025421011176265898 -0.5323476808751929 0.8004798020355827
Ni 4.658260556381492 4.896401686457162 5.202442876177468 0.38420097383221574 -1.4284635216495463 -0.6878533993864024
Ni 7.9342395947834365 0.9848916658771621 7.014693146356678 -1.1904408182800272 0.6337044241478248 -0.4629402368156479
Ni 7.728276422416896 1.5676754134100315 9.775215056012925 1.5802665944981882 -0.9929816381551673 -0.8707393096827779
Ni 5.804610789540969 6.647121286418308 9.464051127965933 1.031490849973959 1.0444137286832142 -0.18390381003792847
Ni 8.133610528349527 1.7207421632660294 1.817367413960945 -0.29986107683255453 1.5458027563933636 1.0781214053483044
Ni 3.7786768749630073 0.8171970458229376 1.809983547049946 0.027766885700623148 0.9023530799333169 1.8552998136537855
Ni 8.808573728189682 8.91497264891378 11.802090718990952 1.4407544232017573 -0.5482846638204235 -1.5376009373088615
Ni 9.084095742778796 4.502900043095636 9.013278127942277 -0.689372150023774 -0.08222259354634227 0.9182237284169862
Ni 8.425766989925917 0.13133007787352338 4.590254200382789 -2.3534664777718954 1.4841158209065277 3.0739070670657
Ni 5.417915842536343 2.9965501665888015 9.984901398044274 -0.2207438616844134 -2.1535182126765946 -0.005040133527068739
Ni 5.999123793241381 5.591673084469001 7.251590422604935 0.3777228223070398 -0.3398257901509502 -0.07026696384636287
Ni 0.6094659972519192 8.086392568964126 4.028749304570581 2.297257534680495 -1.8542508035639806 -0.45169834535324144
Ni 3.9611709312606194 0.11848500266630951 6.784809564628504 1.7413703759224652 -0.41882010656798196 0.47639430543802463
P 3.847890720246942 2.2509092155358994 13.284219945557119 -0.5863089655829967 2.311647227743264 0.9784106823195278
P 3.522866307084151 6.923519779716392 9.15901415906431 0.0003180454610510652 -0.6687339049481322 0.24503410169034576
P 8.492080996076979 8.955868772504692 2.5515600611960356 1.2665323592279671 -0.3408938264041484 -1.4071879001002217
P 9.319682030660232 2.204390574269356 11.631803959776153 -0.9705189382762769 -1.0289146046063504 -0.3154031383322116
P 6.585870343447788 6.856422537272206 5.623643111590788 -0.5983604974308921 -0.3915507293290676 0.3016469650883837
P 9.192890993590186 6.395888921157587 12.5611082270214 0.530532482043325 -0.6625285474683686 -0.13491478173373536
P 3.886092138019848 1.4046317250583027 9.26273049548446 0.09783073239724442 -0.511091599709894 -0.7686158634474506
P 1.5861933571974347 1.8572210873426767 1.4589426350172592 1.6132443349757895 0.5500831504817429 0.7250960857879448
