# total energy = -340865.42431827175 ev
CRYSTAL
PRIMVEC
9.35922064061971 0.00000000000000 0.00000000000000
0.00000000000000 9.35922064061971 0.00000000000000
0.00000000000000 0.00000000000000 13.69816545206999
PRIMCOORD
 96 1
Ni 4.75720766277353 2.725601619467136 5.446157683040107 -0.3924321034927564 0.7257180356426599 -0.24219714646218285
Ni 0.42610379351287825 4.867346972294097 1.8049116784565948 -1.4829850497361943 0.3727829618032612 -0.8697782313210892
Ni 4.765724553635504 6.964944880949702 0.05768181326531365 3.1800704876983557 -2.9454889487999014 0.12621339730499553
Ni 3.236250061577239 6.149625726499096 6.480314136539822 1.9635993067928377 3.3081723602753157 -1.639512010423067
Ni 4.197835117556349 4.752911780459632 8.197105944081308 0.9164039015994282 -0.19176058707818588 0.7781392295568534
Ni 5.549971095270995 6.8475615345860925 6.247583074320822 0.207484682681662 -0.3306248403779725 -0.4742770019847058
Ni 0.49499701728759776 2.7658462685951473 6.848301848945633 -0.6858908763433931 0.2807945471194067 1.4389826760133153
Ni 3.9824232932934853 2.99174042007275 9.986264182209467 -0.07206827872115976 -0.2600681132053328 -0.12582258962448006
Ni 1.7969048651242658 3.703780573796005 11.051365027200331 -2.4788537796311694 -2.0417202194659803 -0.23814020278398987
Ni 2.2539904870112037 8.454530374267597 9.84773461253427 1.2705422517183085 1.0685479027272564 0.7820676180769821
Ni 5.197839774621619 6.331091657183519 11.295562070732524 1.5102896510884183 1.6874114052075069 -0.18486514550993324
Ni 9.22346523079299 5.216183847247411 10.817578244883277 -1.2708962926236178 -1.8913608210424007 0.754354725542746
Ni 6.419555011499325 4.1793038605160095 6.952284663071688 0.3020290310181508 0.7123945790608763 0.18472090662258508
Ni 4.0644568629695375 0.5989264838555061 8.467219605729866 0.3380309030340566 1.5152981600466033 0.8259725469900485
Ni 4.757123429786982 7.575446849000911 8.664226522432212 0.049734134000333705 -0.7908049979499799 0.5382360213351698
Ni 1.3563195493798126 3.440121966683164 13.618990488164787 -0.30100958861470095 1.7191017943322524 -0.35319269837615946
Ni 6.39118721347444 5.675861973275851 2.70518260760607 1.4613569299434572 -0.6995280075108533 -0.4149331128087499
Ni 5.863561144964752 8.66471975336455 12.48527532417688 0.40940601234293367 -0.3967728969599553 -2.1350875167752323
Ni 3.0114883758076583 7.270617029908042 12.325267278854268 -1.1377874537503696 1.2255901124876507 -0.6308440718808942
Ni 0.523589436609941 6.329856240047496 6.233144604504593 0.15760425291145114 -1.1119607224952526 -0.18440517515437918
Ni 6.507756307634763 9.208687021264355 7.053500891550709 -1.378196397963878 -0.16378261380802114 0.5780932625414238
Ni 3.3159438260714293 5.165849958175214 11.438174132489035 0.9406344920120187 -0.7058989440342036 0.21698336620071662
Ni 3.6610463719544937 0.20913646676511272 12.74082791021768 -0.9043526268618489 -0.624019592759893 1.6788519456732702
Ni 5.4709418354484525 -0.1572938713116517 0.9860556744930868 -0.01756963345264716 1.1547423364371534 1.603394438764903
P 5.482116744997021 9.077377154458308 5.212919351057678 -0.287179367599828 -0.3841482662174094 -0.7136667609050805
P 4.3976731985287465 1.4262516466552784 2.533421252893935 -0.8999663248686952 -0.6169002081062924 0.23668830082881173
P 3.85667280359954 4.866588875415174 13.560211774230217 -0.7119240671823609 -1.0115010371155935 -0.19619908246551374
P 4.670728463251941 5.121300067512578 4.868616082624738 1.9534156813916168 -0.2896810509757592 0.11113207749184087
P 1.2785725027969306 5.932707067699113 12.181833477517891 0.07405728412673053 0.6377395134491468 0.46694601554093135
P 2.224349834967387 4.532960734143957 2.8110419454879776 0.6864711743268952 1.1359475723281531 0.06662859576282719
P 8.305887230674323 8.665524646347109 9.893568588280711 2.2039234046020235 0.27722457037996123 0.5620770896188255
P 0.13969198488954673 0.8981052054731448 5.674766008528667 0.04942097363528908 -0.2452693576296034 0.7540564775760368
Ni 8.327469593671811 2.6014047604139465 9.367887365838186 -0.4269399074616389 -0.005760299522544919 0.17052918850323534
Ni 1.5450482353487325 0.7584927739597813 7.632425784789594 1.4692234771757278 -1.114806419474164 -0.47401140702814487
Ni 8.043744817319329 0.9771494400488506 11.691028455194115 -0.7368308577263697 -1.22734077663017 -1.222005737570502
Ni 6.143570310688439 1.5555586402256525 3.9688383844075994 -0.9050853912628154 -0.4209960311733782 0.4337026801067692
Ni 2.667349829659521 4.320113336360413 4.979242071623133 -0.19429800878805895 -0.7710771805037494 -0.3634567993063289
Ni 7.775593784257313 6.405993500665257 4.901354636729339 0.32138943782263363 -0.2710428670492816 -1.8814839282483211
Ni 3.4750880153208974 2.9113166363618186 1.0731263767646493 0.46871570584684435 0.8400637349757919 0.7391924159800107
Ni 3.1577449181154345 2.532595769625774 12.534698561072297 1.2697382677597744 -0.1340748023309433 -0.8890021125477077
Ni 3.3492252149782225 6.623894877641622 4.117490887221601 0.2763552804011305 0.1779699610519967 -0.07188624461734071
Ni 7.858357373150106 8.70173547134159 13.689097602867855 -0.36310892904860687 -0.03571133735868043 -0.2024733455099997
Ni 7.334390759944849 2.128314871083078 6.035247625911068 0.40591342580864287 -0.38141749754980764 0.7746849524596658
Ni 0.7207329979349062 7.55585800001837 13.71816453468108 0.8749602897426608 -0.22411457792885917 -0.34864570243542536
Ni 3.3809810509064424 9.299920704915484 4.4436297800667175 1.216121767985899 0.7553350871781442 -1.2850386455622707
Ni 2.4523778887708465 2.5115188045475687 3.2718749993541842 0.34126895035538 -1.239291521234143 -0.23755733369732634
Ni 8.681098389637576 7.248510550549818 1.7654747300773614 -0.6362904397074461 -0.26770326115308735 1.3178289526194142
Ni 1.6972291643769812 5.711913691517968 9.640741407315742 1.9643788652713396 0.8360818675099084 -0.6765618856329831
Ni 7.136106309613209 3.657583460285339 11.333944234935776 -0.2573705117685116 0.2540375907405367 0.3482206990828648
Ni 7.428450928255667 0.5493890644672146 2.4582732619070637 1.8311167886496786 -0.9812964885077552 -1.4705049149913128
Ni 1.072987860297883 0.3068008709780696 3.5945902892572006 -1.2553483175866895 1.9251921677695487 0.15281120239818197
Ni 7.834669185488944 7.062430524046765 7.0029133675968 -0.5909634336358726 0.827157311326769 1.8558500297303004
Ni 1.9489547650623305 7.748742179990276 2.6434716498175916 0.218487718660385 0.4977560589432525 -0.7114121605429491
Ni 7.9645564507444195 3.0326495738724097 -0.0946273370869011 -0.5847953571519476 -0.6550988306632008 2.731349736916199
Ni 8.711646886091955 5.118997699213626 13.209373897885376 1.0835361486059727 0.7674305848900976 0.8643449761206599
Ni 8.54615714518928 0.5960316768845074 7.872417730448945 0.20739932205670736 -0.3878349710403772 0.6527544988007403
P 8.728119114572257 4.372824467497381 6.188160446000204 -1.7922946735761585 0.9580498592749888 -1.0014457097621203
P 7.7913359935208755 3.643245134130894 2.5279142874179064 -0.45886915207006773 1.5070197220878947 -2.196244290790211
P 5.582578620285411 4.549919642102087 10.167147969364644 -1.1631485582229775 -0.5254391266808176 -0.3880519721471897
P 6.501298445332825 1.7699690278706803 8.333607370624868 -0.02838986399660272 1.8269811692147502 -2.7275697010484765
P 0.072861533363156 9.652538705042685 1.0182542015617144 0.38596577904212237 -0.12441233954051477 1.4626486521716875
P 9.065724924652638 2.837762520664832 11.917130381371866 2.086967007118922 1.9959538118641431 -2.6792848979001596
P 6.541814511861933 1.547940234553513 13.153074441521504 -1.242210237542835 -1.122697906407099 1.7126362412125666
P 9.45075390615898 7.704192289327639 3.727709293429863 -1.1992177931417087 -0.7935599349872978 1.5530625232795705
Ni 4.268160302102368 5.313398072943377 2.0565053141296867 -0.007603523378870777 -0.9243478390368534 0.6451748866812695
Ni 7.606875112203671 6.7080155535398935 12.127205577975943 -0.8430166469565288 1.318688472406232 0.14507501009618887
Ni 9.016345676094641 5.229576892108384 8.268966040826626 -1.2392989774333107 -0.8636430649576289 -1.1908527090064651
Ni 7.838356718455557 6.564800757968537 9.781873776275242 -1.5913387931519498 1.4002636621765627 0.018013148747968978
Ni 5.99479613800498 2.5156181432261895 1.6313552252089354 0.9791377902935396 0.32539958742329117 -0.9739220504205551
Ni 5.3057422303883275 1.4355640712790858 11.487884697460785 -0.30449549028077233 1.3250779208723438 -0.7634574591749627
Ni 0.6615303113013827 1.3269971108407286 12.936300850642798 1.8874817977029685 -1.868235547878847 0.2524257661687266
Ni 9.635972884355109 4.5910253395370235 4.188981294748187 0.015434589387515352 0.4031086093699961 0.569917925819483
Ni 2.315733266150156 0.7422985143350839 1.4046103205672085 0.07308823534524186 -0.382423827327135 -0.26823933616221546
Ni 2.119386174509096 1.8127968219194668 5.496539304138013 1.0339012591876646 -0.20928162668108471 -0.7103022153082218
Ni 6.616856743654583 4.001703287992021 4.445629845536172 0.056555270687225184 0.3712927504109799 0.18297641312765262
Ni 8.601470139688479 2.4826362493826752 3.925812174879391 0.8307769103572272 -2.330290039655432 2.1839423334944064
Ni 1.033594900256069 1.3713317394266338 9.819393020327421 0.09161689027704867 0.2996996115540258 1.3986742062022557
Ni 2.4090259783613233 6.150449337923111 1.0769159252371916 -0.4329200363044738 -0.8447678253196806 -1.5107971868524561
Ni 6.488588623584955 0.36982211966839035 9.767134875473662 -0.5872451042440209 -1.6517913420110522 0.5111422504421712
Ni 7.854061490836209 9.033613438336776 4.8915049928357766 0.3618442034035704 -0.06467815690467571 0.06692247285416217
Ni 5.930947534202352 4.414894164667245 13.47251587601406 0.3234566047643075 0.7437067589105966 0.3343881640751467
Ni 6.235094130182119 7.85226452045654 3.434924791413214 -0.5218100145686626 0.8445217707471455 0.4674391531272659
Ni 3.6751787952529344 8.525248646084169 6.651212571100888 -0.00091505561510165 0.12727294891776145 -0.2619807568470133
Ni 1.5566723874922186 8.07212197456494 5.377516222302955 0.2957275142801552 0.9007091165719908 -0.2926144225724703
Ni 0.3682890793132349 7.457661056146022 8.511191096551547 -0.34381717069853046 1.7752017226496137 -0.016834812169151656
Ni 0.3365781676445072 2.3809295977375347 1.7660082056588258 -0.2226472493547133 -0.5585305099181478 0.43776348043970414
Ni 0.6510311374893354 8.423963159371764 11.549799686261123 -1.2778765805961927 0.2104890167256246 -0.9585401686478459
Ni 2.025073307238637 4.7512458391701475 7.214755585074216 -3.123298215904318 -4.346142904436347 2.7515010150530936
P 6.976943401922286 6.425713378737983 0.6520503566265542 0.040677937335336395 -0.13979653530606892 -0.7319357344175975
P 3.3987542110678595 2.633553683612719 7.046240944032432 -0.7829698181762773 0.26038204490132577 1.8953203199107806
P 0.8394182119017035 3.7419661943639793 9.096774139415935 0.9099512039955491 -1.7131082957529786 -0.13714649927773157
P 2.4584426638022308 7.267650156937441 8.173134172032103 0.8338087552050156 -0.5649374418857561 -1.7227072522953233
P 6.368528540093297 5.96043843871453 8.407125921283091 -1.0226927920663547 -0.32933620347353604 -1.5796297322451374
P 4.4908910369740935 8.530040567096622 10.673857115470566 0.7300367176226717 -0.7975438593357103 0.22524329221666373
P 3.126054596732307 1.0123401099840421 10.835852123353613 -1.6161738499177585 1.6424158143334229 -1.3418975635328438
P 3.5177567026173175 8.181980507463685 0.959348202225251 -2.785117160445642 2.035097571943141 1.1313404125734452
