# total energy = -381166.75353341957 ev
CRYSTAL
PRIMVEC
9.31943485460360 0.00000000000000 0.00000000000000
0.00000000000000 9.31943485460360 0.00000000000000
0.00000000000000 0.00000000000000 13.63993493262026
PRIMCOORD
 96 1
Ni 6.094556396077874 5.453509735475862 13.369891738902721 1.406272587374804 -1.4047101279836904 0.625593365004916
Ni 8.290336450804443 4.627472288769848 0.9026059252264416 -0.9369503582922122 -1.0558271127264784 -0.10797939079547209
Ni 6.21490758054876 6.717560630387827 4.104215831881978 0.21902507922109377 -2.9573530472273393 2.0265070020606517
Ni 3.8307724236585643 5.276636177316272 1.4264914439814156 -1.736126611025023 0.7288228998202286 -0.7089873531515403
Ni 2.6455173522483295 0.8095737327145113 1.366653215295442 -0.36413479920995995 1.952023943250412 -0.19951863375704992
Ni 8.27486618859121 5.321854076267235 12.170423597069956 0.19684057270425454 0.10740732034208599 0.5236059301268209
Ni 6.170258167136958 4.65706149511142 6.737691542078672 -0.13732004874111836 0.7213350760836158 0.467365362466537
Ni 7.201211352122811 7.843329747757666 12.49401674928243 0.2010409839388473 -0.49860400876584454 -2.1167043862823545
Ni 5.05787175852507 0.4956867721255791 1.3607829031459753 -1.3114441321389931 0.9151201497909981 0.26720189603663663
Ni 3.9864722253431775 8.51042422937533 5.1412462204758125 0.027932464744209958 -0.9575389810768412 -1.5676784734205322
Ni 0.4276828544328382 8.771433647330735 8.62054826580236 0.19727868868293766 2.2547731402640396 -0.6012077370717
Ni 0.5545483240164044 0.8549733606493047 11.317491192700588 -1.484963513618804 -2.220297732194989 -3.2825767711943983
Ni 5.506928737286851 1.2595775660792234 3.888254699159294 -1.0012639327686175 -0.9056541192820919 -0.7431745405562104
Ni 5.51423517438033 2.0386077823011775 6.1154104959300115 0.15880932896314587 0.6648304561286679 1.0654402103362102
Ni 5.40500207594582 1.0472062797448147 8.873814165159589 2.1695205016421215 -0.9404077207131932 0.4308708670849289
Ni 8.700307718890144 3.7202905209249146 10.107792175049942 0.036235842403582755 0.41237255117042526 0.06784241356527025
Ni 3.43300961551222 5.274203804763468 10.258772614816012 -0.5390482328238201 -0.22483448681401924 0.44598946789392224
Ni 7.327573572212693 9.156186524121857 7.695706168503166 0.10998742236443639 0.18839578437101104 0.6850478116168073
Ni 7.690956984392405 1.632746385080557 4.683135410545263 -0.1908704711637487 1.232798714420948 -1.623316374499811
Ni 2.9129758192709376 6.5396712538058015 12.890652837729027 -0.0702422812560145 0.3474763647176725 0.29521766452327225
Ni 0.6514592654037245 6.219800283959571 0.7342307599055536 1.1820276545156674 0.5350763926602655 -0.9875416980865186
Ni 8.020892944112305 2.1278227342091682 6.921107343656145 -1.2376935806194038 -0.6004667451406175 -0.6539690879341318
Ni 2.732169459512562 8.924719715332682 8.95221670850144 1.1588062220938817 0.5118840137042022 -1.854390928686271
Ni 6.534405772992262 0.6104090178152655 13.279567774221613 -0.6744278700091159 -1.4105689007573126 -1.102805538358546
P 1.5858416683822476 0.3041239204114735 6.475764159769047 0.45655953010028466 -1.1903590571994984 0.5717822327217313
Ni 1.4721166022448597 8.589956288247448 3.8054189005554946 0.3699768598130338 -0.09588543574541551 0.7182579798201888
P 7.110896706876771 6.19973554025771 10.53515816869046 -0.43994300458952623 1.5067209599005535 2.2612176103378023
Ni 5.829176163075476 5.089175740919193 9.33664433700868 -1.7677331821867106 1.265896268305865 -0.6835773977188679
P 6.086634876269894 1.5843505587713336 10.93729085994029 0.6507030155883503 1.6035152806134836 0.3121519783847656
P 3.398527705759837 0.5036101558205728 3.464570814314226 0.3350111423711263 -0.3128682877254999 -1.841268789482016
P 9.053644780066323 0.549031218456023 2.9580930683231643 0.1234728584453809 -0.42229649515235657 -0.25219642376673984
Ni 2.58980576941056 3.1539670906998243 2.0787670918971157 0.7388098358296116 -1.2159780433191831 -0.42635112483770443
Ni 2.302329155861433 3.8270446496312798 4.562189646117025 0.24241054802456966 0.8853421471976172 0.2526949606697132
Ni 0.8138243270491227 8.638212323030649 1.4367493461609964 0.011627299826283202 -0.7351352151915016 0.46542340824881784
Ni 5.938968427614079 7.636922899866914 6.686650860097089 0.33390556801177335 -0.8597252179604613 -0.6194749108120041
Ni 8.287680411810001 1.5243054386268455 9.163990619047977 0.07099510026163902 0.043650646810415146 0.5496841152711114
Ni 1.064121054393619 6.356469799234895 9.007417586297471 2.3236403955493983 -1.244461495470857 -0.26951768865400677
Ni 2.11134597300857 7.316306375215225 6.677416231887999 0.3144669996711874 1.340058710551892 0.05272355564596081
Ni 5.9614655438687425 5.139230426670558 2.1655310323821664 1.995009702783319 0.04381956828811163 0.08506700497367285
Ni 1.3370407103661992 1.6517300743145045 9.239514388897257 -1.458114768857076 -0.21484703658400414 -0.17355357715185593
Ni 5.746354343624279 7.643437184979594 9.274528438392036 -0.8726681512743745 -0.5975171755939902 -0.8345561748940014
Ni 4.306790528072683 4.329287644327346 12.328960234789331 0.221924769366392 0.8529081950386278 -0.5559288106292426
Ni 3.503828002595561 3.711800515577773 6.852894670617877 0.6140120879252199 -0.868228370335466 -0.2171198917785809
Ni 0.7503981158618873 5.981101593557464 4.574316095027782 1.6086217486021135 1.1591278670993588 -0.47629943173137324
Ni 3.3047928278437633 8.061479083834366 1.8698989812048474 -0.071252981908716 -1.0160158942668116 0.8781582278546682
Ni 2.0955961277432924 3.733626632507525 8.722288538442028 -0.27028542005796674 1.4696248263792044 -0.06302288068943986
Ni 5.002290647778255 9.164443543592292 10.980270230587868 -1.4101490396110745 -1.103463740767835 1.1474871975366367
Ni 4.116403789064186 6.102999804249674 7.190741898767182 1.2425743057504728 -0.9857699508980765 -1.5703845594977859
Ni 1.4611755854747794 4.85582640624624 6.655319851341268 0.3766964379250545 1.4046623054648906 -0.1851741921099198
Ni 0.8497610006156538 2.104952840551777 3.8667985638017504 -0.018462063359929493 0.004711546543056402 0.02825976617664165
Ni 4.958796844314911 7.305579705451715 0.5238799270939332 0.5603076564232286 0.6203786535731961 -0.40086994984746444
Ni 6.564162729165062 2.734545915454956 0.14470566413464386 -0.6878436291943896 2.563431246562933 0.6704801982152775
Ni 6.248112727696798 8.173480054484136 2.500554471705803 0.3195171605005852 1.0653692478889587 -1.5152408244461066
Ni 4.609318029256971 3.111190883736733 9.49947816623801 -0.14880259545942115 1.8096730169536062 2.441516476633292
Ni 1.0227614015608952 2.3806683270448206 6.532546545696153 0.709252690997785 -0.03791502987821858 -0.22500469384329636
Ni 3.232613803240463 1.5210902335283125 10.730605360940995 0.03724680016660037 -0.6793947270960881 0.03012433018920618
P 0.1530139404979546 3.3701593454122 12.815183120603143 0.6315256713289511 0.9170039970772724 0.2539005509420401
Ni 8.05316614775352 1.9811255068004476 11.998751215621935 -1.102283604416805 0.40583577849317204 -0.6301467887035535
P 1.0159395750909643 7.949170571827348 12.506647379630376 -1.0554643300704212 -0.6619086544961826 1.6839391303881903
Ni 7.3177602070858665 8.977542273299306 10.30520297226935 -0.5040100102727644 1.7477842498686094 0.04236895188451413
P 6.342499966067646 8.674194661829015 4.813682988924279 -1.4739939019811774 2.411436112308144 0.9638849778995271
P 7.184352494084416 7.119778128496776 0.7167064942032884 0.5387553841737496 -1.3551875957735304 3.022419954930001
P 4.5733916070690155 3.2446451939135246 1.179428560605589 0.7364647326362026 -0.09755151059392876 -0.9164437536984282
Ni 0.22296375623293815 2.0154955833320125 1.1206462239128436 0.3881136786230606 0.6007493093780427 0.2649220988635244
Ni 2.2549957451499854 4.288105060760918 13.2808231021253 -1.4738956858404166 -0.7625143785354029 0.6140321425298779
Ni 9.181134651799459 7.1569160772436 7.279251369440509 -1.95086386150404 -0.6163733890685449 -3.0402217589981126
Ni 3.3910255605299264 1.8421820493684793 8.342866378509925 -1.2387284496418214 -1.0523599801134844 -2.910943092504232
Ni 2.281192677126729 8.34037249768567 10.974146429804547 0.9784752170088762 -0.2994512429886456 0.6480655779655032
Ni 0.7901026370264965 4.262085198050471 2.4356967952920905 -1.4782292802187638 1.2525707548415523 1.3504110003204937
Ni 1.5583306960608865 3.417380922902829 10.963602420968373 0.24569616075437686 0.007348984165903473 1.0953603949344104
Ni 7.248665915490145 1.34615511786291 1.9841738940112597 0.16101816368900657 -0.36843085548215254 0.1970902268212154
Ni 6.608057268336339 3.1843391295871264 8.5016080438008 1.4577100772194895 -0.8820020270807908 -0.41868306676948536
Ni 3.011053553928798 1.5255635623610542 5.236030466780566 0.17836565382851863 0.4244559646975206 0.9428101595070988
Ni 8.53793520169669 6.430102655708836 2.743973455969959 -0.7384892192653991 -0.6369157319962707 -1.7128231604123922
Ni 3.83032509077529 6.445964334194933 3.7171685101770633 -0.40018012286929144 -0.9907136680565969 0.5789471259012868
Ni 9.025630558251278 3.9389337870602295 7.680565814291349 -0.5309196901794146 0.4773024190745909 1.3016441153294358
Ni 8.256646693032856 8.135559273191582 4.187391789865767 0.5224394206225454 -0.5423639274606143 -1.4717364734055685
Ni 4.555358500212026 3.608392064060896 3.3632806703883533 -0.35984208537187706 -0.44437018712294435 0.4874587907823025
Ni 1.0447366294517386 5.914961562878365 11.376633259586967 0.9505237261012727 -0.2506581327453425 0.4874135393666639
Ni 9.073746801508456 7.678795121628388 10.374507883097612 -0.07317976661778364 -1.2620123598704265 2.237189108633689
Ni 8.793203847650078 0.08986451653224517 5.824933956232426 2.168797507433168 0.2908881839099829 2.330146314988716
Ni 6.543864999586496 3.9372935664882247 11.360974744785358 -0.6157426974630814 -1.0041271132490255 -0.37542836984590827
Ni 1.859432323679739 1.5984415445944697 12.662565256095588 1.977468608575762 1.3568894089559855 3.242955814368667
Ni 8.79860911998964 4.194882751773597 5.188003690100044 1.1667943825056808 -1.5985705350136985 0.5146019268559976
Ni 4.391038221089317 0.04874250929376094 7.102955616255147 -0.380144544374655 0.09405429607394769 0.8156961047647049
Ni 5.06406918284543 6.550136979387403 11.727671216131819 -0.25870825674332865 1.0530197251846702 -1.8670507835421264
Ni 6.654635804807262 4.22717459428495 4.5597488860726605 -1.2887340921359869 -0.7653549333079915 -1.664738131979707
Ni 4.205581463231903 2.2122568159271667 12.871693379026258 0.28953655497809494 -1.6891283878986136 0.8437656093074114
P 7.706567038131659 3.374343771757827 2.694746336052651 0.3470523898063765 0.9357668795070722 0.3607946790931335
Ni 3.58679893300785 8.947580289555006 13.095333726245148 -0.15129707974650072 0.457475871266967 -0.5037418442130421
P 4.326827313469338 4.76243634742769 5.196515130147842 1.0464451572909463 0.641106887259483 -0.11701373308359846
Ni 8.8918500678471 0.15921043287480857 13.357261108554772 -0.14060103348523528 -0.6805558372837247 -0.6877328146481382
P 8.087303238408381 6.265782376586127 5.452468754578742 -0.599096090045336 -0.7297148155068787 0.4089804947697408
P 3.2983996953869696 6.847697221680336 8.853218213658842 -0.6232140661394622 1.1320088993953794 1.2779976795550891
P 1.8458073096100136 6.5719910546223606 2.6149934065694156 -1.0205968287692744 -0.49205695167594615 -0.15775157712259283
Ni 8.105299067525099 5.808142198126523 8.806978904624401 -0.21774698383961857 -0.47845890127653723 -0.9986599194868672
