# total energy = -381171.5277753447 ev
CRYSTAL
PRIMVEC
9.20532297296901 0.00000000000000 0.00000000000000
0.00000000000000 9.20532297296901 0.00000000000000
0.00000000000000 0.00000000000000 13.47292065924498
PRIMCOORD
 96 1
Ni 1.7185140911836003 6.146688581069961 3.1363611685929897 1.2981769827164416 -0.20525785023367232 0.24242880285701476
Ni 2.8014558773235687 0.854792464050375 5.216876418607217 -0.17369473071541056 -0.6736969053803623 -1.0728809828849715
Ni 7.328127320804259 0.5078355642159357 11.48041000260835 0.19118414574942558 -0.699983349880717 -1.5769406154487486
Ni 8.44146508271698 0.11740192495850425 2.7441103986215842 -1.4043810267790457 0.968249682626126 0.9213499327507939
Ni 2.7000776577035364 3.3309828641048953 6.788546280498099 0.11421508729253878 1.773968621573461 -0.8009492854728335
Ni 1.387334194037509 6.363446316236846 11.793224360304345 0.04884633207874168 0.16425004036274293 -0.2139792892670702
Ni 7.515768620062839 4.068191137806003 8.223964478002895 0.7208450238210746 0.016916059029048285 -0.07573132939504376
Ni 6.196793152884347 7.078874796274011 4.878234686827148 -0.29890488356687234 -1.909634165430292 -1.5871723204790857
Ni 6.374538730169665 7.230016990766095 9.742484647308455 0.03661379456829178 -0.7903673961919291 0.08221308046464551
Ni 4.937265660127554 5.005357432626363 5.343171605889785 0.017379371818712006 -1.6253177212005558 0.9086029174977707
Ni 4.69010274386515 5.525421347604422 8.942057898980766 -1.5187362391938746 -0.9905671151764038 1.0968035551388402
Ni 0.568766516135209 4.156378129902607 12.233398040594635 -0.6980995025944429 -0.3926809862787689 -1.287074702155693
Ni 7.9169457915202655 5.268666485020026 0.06117765456939738 0.9418197705693715 -0.3495990674876302 0.2085450056253763
Ni 7.475071888115126 8.55617260970193 5.705862243395573 1.4642319374984074 2.088712786165435 0.20048099767031924
Ni 6.474839927026096 3.7157653557163863 1.431227934581793 1.3498504998313332 -0.3948396844929845 0.7661563461633645
Ni 3.692926949934374 3.287009037252548 8.831014090456618 0.07764705836051788 -1.006713385918963 2.0902631613716904
Ni 3.7081157324979857 7.669994597681473 13.198436211685364 0.6218076727102387 0.46220721530436526 0.12755499893455452
Ni 5.3062702285184224 3.446813440467273 7.311120486994397 0.9177254486243291 1.122532584473828 -0.4161263617859027
Ni 4.746430113869234 1.6551630599091915 5.967587980273514 0.4325451694635583 0.7153022396259745 0.4043813054348326
Ni 1.2266368745144993 4.914813877901707 0.9560574582003878 0.4828014945159492 1.2151694313749588 -0.45206292778151175
Ni 2.061697729216328 1.39917223911436 7.475678518885394 0.46762093012076883 -2.431465005934561 0.6995480621155113
Ni 1.4151066528220033 8.713859788680514 11.959440270825466 -0.14751730098909435 0.8453213838303054 0.8515043727125658
Ni 5.462530582468304 8.683141626610956 6.8791248154492655 0.10233607646676571 0.6025148859188978 -0.1187386861945052
Ni 2.4538997109770744 5.581205603565322 5.496776224221727 0.04993725115007529 0.8890303946824819 0.7099569161536612
P 4.2716840028673335 3.758634543836834 11.263751684927337 0.9458980544038033 0.308525694486088 -1.7940471374908908
Ni 0.1013110207638419 0.9815359505516387 9.836215084774638 -0.9082787013891325 0.31917648933171483 -0.22736419521440843
P 6.50517146553949 6.989260979148703 12.483549925159105 -1.079050087810161 -0.4108820826678278 -0.14629782675969644
Ni 4.757559349093117 8.110266774925359 1.8869899084437325 -1.1343699434283885 -0.46297186138453167 1.8176879168382825
P 3.539142827808499 3.9429987481907807 2.3079520801217464 0.5935409645550617 0.13928899954203106 0.14403191354365516
P 1.8504631877089381 7.246126305606288 0.2902834096943601 -2.125302412364011 -0.834945182802304 0.8012336494824718
P 7.390382918669535 1.2859927957085397 4.4445139377957 -0.4133236022297849 -1.2527191074939585 -0.71629674232876
Ni 1.6798793515354324 2.6560117776235317 0.30211777264210493 0.12804813652088914 -0.8882045563470767 1.1974074794058474
Ni 0.10118766943877983 5.574780288274776 9.115319563546851 -0.551868781627256 -0.4915357890651535 1.1574628206921098
Ni 7.256988586469962 3.012174920756072 5.576185941061118 0.3194024892995918 1.7600844073922013 0.07229427868903679
Ni 5.640451060886173 4.87930894799392 12.8762453122201 -0.5731359185361484 -0.20412245107764843 -1.0069566122780207
Ni 1.2524762155181703 2.925442369656468 8.951435361282313 0.891848066636935 0.9855182398985866 0.19899952802878632
Ni 5.1587641365188395 0.24149888116459314 0.03786333360039202 -0.2871698545181312 -1.4315053937996638 -0.7883159129795391
Ni 0.195166650619642 7.398658503836011 1.632998483753638 0.2684133998462345 0.26806424403693185 -0.505023282028627
Ni 7.227034466189967 2.989833602403415 12.0764518900987 0.9527186768700624 1.4293536375639835 -0.7141781533238604
Ni 5.851345005451227 0.3224523306318127 9.32886556160074 -0.7169994248227394 -0.6895593263339157 0.3919816462188991
Ni 0.6297526999910772 4.532093378589761 7.041891491530032 -1.1355166554383218 -0.3395792213577829 -0.9293002979461221
Ni 5.361502165113373 0.04944547070435323 4.318703871022891 0.21571786922473168 0.8688552052861874 -0.635874178105634
Ni 7.214220656899938 1.2209663956907508 0.12494200483599163 0.9527914390895267 1.3390613796356294 0.8083766882851562
Ni 4.14430995175661 6.409187565060231 11.372114903462077 -0.11496816340847943 -1.6877315075510868 -1.5126854050141043
Ni 0.7872944348699621 1.9130041505799542 4.782967880991348 -0.7365961160077443 1.1680007441089562 0.400865064751458
Ni 5.440603503640109 3.0755075413849493 3.89983130761272 0.3525141842518961 -0.9939008075353271 -0.6611730618817387
Ni 5.064740969788702 8.534503279911178 11.340156784415962 0.63770608910805 -0.31280041060204195 -0.4711536258643757
Ni 4.9728994645540645 2.2866574069675627 0.5213250441969759 -2.1100372586748244 3.1612145313341165 -0.35686011992541766
Ni 9.106577268516146 2.311732706181671 7.140014709020068 -0.3163133088513069 0.2486912388269588 -0.13817288365971686
Ni 6.970390067478762 8.364057523579158 1.1023852688859443 0.7584913734189389 -1.1592849615025131 -0.5166055875495877
Ni 0.2769706719104238 7.819995332150595 4.1364697783569575 0.7387638130830244 0.09997554665438911 0.6451651164892566
Ni 3.2267233784591594 3.4554020066077875 4.594279016002017 -0.21445082958685005 0.2916608004099493 0.11653833610907671
Ni 6.013192990319965 1.1047676064177399 2.12978581958603 0.46477189070774794 0.11561582429480732 1.9843257407069117
Ni 6.108468080946254 4.627073898887545 10.33356854795713 0.6851406284409297 -0.40641376248382916 0.8667798108143975
Ni 6.933568776415461 1.4654873843193645 7.297310661781106 -0.042129839290514545 -0.3645379481856496 0.024454019277306272
Ni 6.059366889313344 6.093122807895624 1.3896916771978367 0.5114412697398288 0.2860578524008751 0.6580327164805442
P 8.619670926140591 2.9608552463365974 0.600354581206138 0.061927333632415926 0.5117978817482992 0.023606069454714183
Ni 4.3334333079804885 5.791105373271667 3.3907300115164833 -0.27950333911180897 0.26844759551827957 -1.2288746967761932
P 3.414530373527524 0.60182743284867 12.084064692026036 -0.10397001252576288 0.07872435058509668 0.8282256046902833
Ni 8.452041998574915 2.7226583144481054 3.051171429588938 -0.8984951396398074 0.2616825088803042 -0.6700215134113041
P 4.15200560158884 0.9756905705953397 8.121624302153835 -0.20975908053813552 0.4443192792803509 -0.7299223035319945
P 1.063693456236628 7.230744211264595 6.385221507239406 0.025484260314033527 -0.3952438619099387 -0.2786186225140105
P 7.471693534660068 7.047935706458073 2.805506219340532 -0.06311852572703969 -0.15253917968371794 1.2766169971574788
Ni 1.56606474085877 3.398678807724773 2.9116601604114747 0.22372454157929209 0.6481900193585095 -2.1634213307229193
Ni 3.0593890212219894 8.339543749053766 6.976722409009373 -2.290712534473126 0.8188986708624025 -0.607579959146631
Ni 0.6854844856122124 4.288796697889002 4.6590034814330865 -0.8079100330613828 0.14245634152641917 1.0001732708075999
Ni 6.334523192106624 2.4432399472142485 9.40981072627747 0.2150550388297522 1.2992871850614849 0.8779900777079201
Ni 5.289801906090361 1.7984347034364943 11.518201534691169 -0.9290555289251677 0.30806212458610815 0.09390260098743182
Ni 0.15835548541138378 1.6984648981996333 12.153436004389295 -0.3437914596669176 0.35613018373792865 -1.0694699003208938
Ni 3.874253397775598 5.5467224644845405 0.980313483688337 -0.7894929640067757 1.060871102908289 0.9950678312602347
Ni 6.7284189532562815 4.942512694104076 3.7622052885376975 0.7386805093405988 0.844828503354287 -0.3004280050796181
Ni 2.08960826784231 5.774139963414251 8.116369903919102 2.3741517740353886 1.8594601156790622 -0.541409533967145
Ni 0.19949683444868616 0.5517339074216028 0.6355327221557387 0.6271938767228166 -0.8766657024695419 0.24433887539553403
Ni 8.822123589729383 5.295177814585603 2.6038709884133446 -1.0861499320797359 -0.8062059058860827 0.49327308347123433
Ni 2.41876299397992 2.449453540081181 11.411388492510193 0.2513104216173608 -0.062384218664176434 -0.28754420713841444
Ni 1.3311725198432094 1.1841727205957477 2.675641207889377 -0.8820958723461777 -1.2866964928806677 0.6373001119188831
Ni 8.124571846503452 5.907414626417868 11.12211122459414 -0.8347767755452398 -2.1055959350740188 1.3019444201786738
Ni 4.184813371926241 7.782870265436022 8.687029034414964 0.0657922159044609 0.21558674296350613 3.509039023419827
Ni 1.0331962219134494 8.46118288408138 8.33647745604047 -0.5112471514511517 -1.0391990172514942 0.2581621544318715
Ni 0.38480826651523575 0.21972921335569323 6.158499010178515 0.39341555045194826 -1.4019302512457081 0.2139558922283025
Ni 5.038211229577594 6.413606119987827 7.0482910319168335 0.31207227418676575 0.6747083773640122 -0.6981239280744751
Ni 8.453192663920644 7.774741965433798 12.62649754132505 0.8428181577924776 0.2831900439347768 0.7758422059925606
Ni 2.4769590445054663 0.3264483612444574 10.08456180554473 0.9550046446907617 1.1106067795705197 -1.7141133399787254
Ni 3.947757900060712 7.531905550871331 5.172779240429809 -0.6944657624965975 -0.38309617080381114 -2.2880861525938725
Ni 3.6253690861559837 1.8425005835164994 2.9558917363012647 1.0441825865090146 -0.23278768022282487 -0.06495300783261718
Ni 2.236902637418278 4.788618108105011 10.199580472439163 0.8540104269638711 -0.4224083381398725 1.0055327353473005
Ni 8.517068398592704 6.0490937491066825 5.307562655834744 -0.5584405213075028 -0.04558025973296021 0.8000332014164673
Ni 3.0819328566754955 4.3964253316670305 12.778512400415334 -1.3020238672663578 0.16120791110230945 -0.39285710684531694
P 8.824857570590833 3.4363930150963586 10.094814694041306 -1.525439105135347 0.6555176633681743 1.3585153745951828
Ni 8.640346081072634 7.82145897847036 10.23033913792889 0.9672536372614439 1.6322499295440147 -1.1313159870934129
P 7.61066629245573 8.9222130641622 8.32179220463215 1.0159019943967664 0.6717372105508302 0.9146689211861925
Ni 2.8831070902564377 0.4945900252881899 1.277372931470621 0.8068311981749071 -1.170005947464443 -3.121245704250663
P 2.398732211641484 7.421009027511435 9.942543926978132 -0.4896375436011761 -1.9565233737826628 0.15419522722990217
P 6.839895411950424 5.300029019683192 6.6132907430209364 -0.005600119795596807 0.01235132247650131 -0.9198365814300611
P 3.0485083297127846 8.899890156455076 3.3130582596152807 0.3740078353492978 -0.7175159594478417 0.632755172860678
Ni 8.045203553616506 7.035830707021012 7.7113476691423894 0.40491866599554127 -1.518436962785901 -1.0607813714079601
