# total energy = -340892.5740136579 ev
CRYSTAL
PRIMVEC
9.10788328486955 0.00000000000000 0.00000000000000
0.00000000000000 9.10788328486955 0.00000000000000
0.00000000000000 0.00000000000000 13.33030782635837
PRIMCOORD
 96 1
Ni 6.199107684155271 1.9874312039262414 11.245287591623654 1.037978771691148 0.29791423751882884 1.1894920812135126
Ni 4.932110045283636 0.11985974356660711 6.0267655849386745 -0.24068688046524356 0.45955332262128595 -0.2518495819502824
Ni 2.84982023731133 1.2883009777927819 5.128462346323203 0.028324043755673798 0.19752037238009854 -1.0823925219198327
Ni 3.5709915409091653 4.250066208126693 4.873587341462417 0.5086976455564207 0.17613573605673535 0.5479085114279273
Ni 5.203679800141199 4.6248373880870846 2.8683757278560296 -0.3181043393134586 -0.8395510570054316 -0.47631460124002484
Ni 7.155708661875693 6.1226834358066835 2.6132466130525764 0.5745178864853396 0.8055343337403547 -0.8144110674046942
Ni 5.219627703711497 4.543185214753145 11.756438393789033 -0.1361558532296881 -0.051100675330557156 -0.6783922539735027
Ni 5.583059569025959 7.912628407228766 12.661272895482895 -1.3327133259304145 -0.5630145138314304 -0.6653421056577637
Ni 1.8887746125650342 6.182422042041743 0.6181347311818274 -0.006779227705362518 0.05650410573431559 -1.315607262377747
Ni 2.406676177795124 1.5881324943742945 0.30349470722455896 1.3788954809134315 0.1514678009964101 -0.3811935544644596
Ni 0.8422096072569594 9.033681324906532 4.423316363303289 0.4951787851343795 -0.7924391911192934 0.49292109944845436
Ni 8.57978085527238 2.3560818863428064 1.3608507326069283 0.6615648980035187 0.1480510620053773 0.6142409161065744
Ni 7.090186549777047 0.7826731960300447 4.919643174691388 -0.5232398050366538 -1.3737265351179824 -2.0644945370480188
Ni 0.6813671214314874 7.369124582183651 2.2843882725541356 0.6595869483415414 -0.4462303802601347 0.564979093756969
Ni 7.933039173591438 3.991721099747756 3.667381180129512 -0.08580696846349094 -0.7883457377762101 0.07836285348061987
Ni 7.526736501820439 3.7285488132464555 12.822556202857655 0.22514353341400578 0.9308514444833258 -1.3173810664487182
Ni 8.503393038456792 -0.05632041765143073 6.602408397607155 0.40887739353297325 -1.1469822328757602 0.8795558795331433
Ni 6.7554445166992725 0.6646523340915605 0.3945088737509076 0.5253712495573597 0.5802177650835942 0.09274611878548544
Ni 1.6227242349568152 6.902363781400863 9.17646378903609 0.73307653289026 -1.2997456127551423 -0.027928608089468027
Ni -0.07931782285702974 4.865285505880277 1.4882754840007713 0.44370787094859715 0.05507534370758902 -0.20763123556185534
Ni 6.597459173849245 1.812441443048945 6.934892586427319 -0.2656774889723102 0.9970473235841087 0.3713706548367669
Ni 3.3421013269598947 4.110651839222889 0.36024592775370246 0.15860312648961072 0.554947934773212 -0.01273390262690065
Ni 6.156191338282486 5.819809886219758 4.7890598093865355 0.5086109993798853 -0.2024612613251416 0.8750415366025575
Ni 5.209590816370281 3.098438126379542 9.072847044457074 0.45355365339442527 0.10797630547167857 0.5855805720574044
P 0.17522110111183997 5.642962117159514 12.510214097844296 -0.29697707041654015 0.7541598359231205 1.266752445658573
P 3.9442872437830983 6.056086593484569 12.671017419771793 0.08731774868106251 0.36568183198210563 0.5625743409702182
P 2.250557951011293 8.54588131381684 1.1185382311125123 0.13006259584775662 -0.12036079517896046 1.31212573158705
P 6.74988870791693 7.832214906016792 5.846712751762846 -0.7988484370797468 -0.30632123063560146 0.44620055546346377
P 4.790172792719654 0.9989799584814717 12.715087734452322 -0.6785814871661733 0.8353107936718388 -1.0974872114694258
P 4.097736860774755 6.183014054452976 8.227333097157107 0.06095879907155952 0.45081877096176554 0.1434379887133981
P 4.543567745849635 0.8760900221576754 3.75806746285887 0.6390430627519188 -0.1462806003685158 0.07793425058363353
P 0.4370354022206038 5.567439549252652 3.6256306433126935 -0.05042087565471317 -0.09859563558772698 -0.4998363385110488
Ni 1.5956920374715804 1.169388454084148 2.4458318786740905 -0.6006613776499268 0.06427577925993447 0.9418321118645457
Ni 1.9632315581316764 6.539041210685398 4.915217654220339 -0.04947111014693416 0.0329869964489819 -0.07563774123997295
Ni 5.904622495041357 5.657534730359101 9.447709303249962 0.19921935734907625 -0.01600563139963695 -0.6167384857174476
Ni 8.86911098246694 2.250339361813299 10.023965076461149 -0.33013581655669594 0.6503703148392799 1.0015673229416493
Ni 2.389526033635859 5.306243673416545 7.169212920370085 0.24322635905764564 -0.24473251128952692 -0.022718010422806034
Ni 0.7740616924174135 9.183023286552556 9.098187908022831 -0.8654914310202771 0.2801502286671885 -0.3977386033073344
Ni 1.317227614993963 1.117637461459113 11.522531557745806 -0.31663726784962887 -0.04843546979356819 0.10867975929660638
Ni 3.9996085266420325 7.060567713448886 1.5447562003973974 1.0820119986519625 -0.34492685882294144 -1.005477970849965
Ni 5.733476260895452 8.21022849241409 8.19948574412102 0.06707519638194255 -1.3359146064765315 -0.12271669700564672
Ni 5.433899765044932 2.6297464543478095 4.813414289196346 -0.27175840505906745 0.35096972258291165 -0.10625700878772669
Ni 0.6465640779575725 6.975272386815051 6.857656825681179 -0.3633333863545872 1.5191077636006807 -0.1663413756741329
Ni 5.203725339557447 4.586720896686913 7.022739031159406 0.18492376666201057 0.35317470065403045 -0.07153760302867035
Ni 8.096826238071552 7.436714183779987 9.38545601044965 0.034977801626765566 0.07712923818383491 -0.6858448535968059
Ni 4.712300390934359 0.26641833609150845 10.48989888144486 -0.2790081446429453 -0.2550737453145349 -0.030035112909509568
Ni 8.403989600669107 7.253864319658163 4.447377569272457 -0.5385592090025434 0.1198892548591806 0.818397562856268
Ni 7.082736301278758 5.954779608097687 7.115825241125072 1.3410164464794712 0.9893401847478381 0.23079430394187997
Ni 2.661022925427424 5.287399462972829 2.788780114559883 -1.1478227264991845 -0.34582520226749475 -0.41456673060826665
Ni 2.1334761118358574 5.493146545584505 11.488605603428839 0.12445501985299211 -0.14027347494248746 0.4591139210910223
Ni 1.4414409267539467 3.3239310998766594 4.145059600563765 -1.087847631497133 -0.12407783901923147 -1.1011921711248391
Ni 3.597714070363909 2.610929567553842 2.786687122989092 0.18485511820760422 0.4849311392644423 -0.08464482983458971
Ni 1.2188351522469982 3.670067094899861 8.562976810676606 -0.5370170613264041 0.22279148824206146 -0.28369526570596953
Ni 3.937492762878791 2.721544809621961 6.93323950561749 -0.19956002851794663 -0.947133212362485 0.02164174663949176
Ni 4.137210426779138 6.9197416226413715 6.054039141330028 0.11504529650331799 0.35704703912524316 1.1702432602862298
Ni 0.6047716448778057 7.544988699852922 11.22078647489352 -0.2105682067029922 0.21896285852459063 1.2871243244467059
P -0.0663682344525463 5.754451716019608 8.392135690619568 -0.6198006695825391 -1.9429998853749313 0.10745848529499559
P 8.644027863716062 1.6500478847060418 7.9272939208375 0.3550109825318209 0.42398930947374724 0.7631067607037632
P 1.8567330792924412 3.139760592683622 10.725965196606603 -0.9412227604153209 1.3313861224785586 -0.21428627898452773
P 4.145443953236905 6.219636853000189 4.046281874355336 -0.31263894532351316 0.36065146864704983 -1.1373277405051316
P 6.956091184691092 3.8563050915905888 10.517679746933226 -0.05624416720470958 1.0664475685548023 -1.0409059726402718
P 6.256970066440883 7.739423791468419 10.422341157439899 -1.4769221313715661 -0.6622099877866853 -0.8520862133579648
P 2.0929095998415055 8.58124722447559 6.1975529684845405 0.4998198834508167 -0.15097440629975933 -0.00034864158867036735
P 6.920798137098342 3.995837862976639 1.547062316436232 0.6185143466709476 -0.1637856991318147 2.096010605378429
Ni 5.3757003910790795 2.9550709361453507 0.5342547696050018 -0.5996252230759286 -1.0866646669326254 -0.10363011268784088
Ni 1.7132110550430037 1.5257526019968104 7.248581747373313 -0.5183508523754685 -0.7411811642752655 0.6123714669980034
Ni 7.052853336336353 0.8882854778290802 9.2000049348717 -0.5077324534296739 -0.5860600827969843 0.09115974813497205
Ni 3.0381621550327482 1.8322237654673847 9.450015419288796 -0.37673217625899635 -0.9140821954447871 -0.9810710027605104
Ni 6.618625894521646 1.775773105085483 2.6728331176373645 -0.8387177624708587 0.6988749473078867 0.24328549443035521
Ni 3.9745891713549906 6.960708881498713 10.395760710963852 0.12427555685233435 0.16526665455271536 0.20020203297731973
Ni 8.068218376784111 7.361118752807128 0.16847671356540592 -0.06682631359593007 -1.0254351306981824 0.3063333148204595
Ni 7.56066336692573 3.709422258421997 8.261085090904002 0.732298774183971 0.5475889233049794 0.14692106216599213
Ni 2.896352412834262 8.054228668112508 12.445521713909702 0.260372531819629 0.24359145570654822 -0.2712472697506038
Ni -0.05049046158327076 4.779525677200706 10.541074255848512 0.2901307369186681 -0.808542267328743 -1.1431404905321667
Ni 8.831367914280008 2.1645522094839778 5.770890534497068 0.7287262263413643 2.3362377725984347 0.2331959714048371
Ni 3.7851907391766018 2.713985266524675 11.58329115769316 -0.28352531578700846 -0.7319071951725074 0.5710281281645262
Ni 0.9072581094266181 3.3995720702657675 12.822289341878436 0.142336013898471 0.3735211255208664 -0.6641833094629722
Ni 3.1833509219168885 8.455257875481905 8.173544671049106 0.6079393993685788 0.4399743720480939 -0.42354348018558025
Ni 5.563459404272515 7.937401849668065 3.5441824865635496 0.3799393703423844 0.8058966021757797 0.36588932000722146
Ni 3.044646967906565 8.146591712148144 3.417477257946436 -0.26390265646007455 1.1485745170635446 0.22642651389148744
Ni 3.2640558753928537 4.620802595807449 9.628001673755257 0.8090426040039292 -0.505349297909478 -0.496483619988732
Ni 7.270231185857951 6.046614394904838 11.471556556773647 -0.09064578461303098 0.2092744275922331 0.668127638822701
Ni 0.31794618557692483 0.1733867734253419 0.3624482139234901 0.1398268743233721 0.02971501056592947 -0.3159638959316881
Ni 4.538294281448034 0.5072371447329665 1.4268628488244097 -0.52911888952525 -0.6278651917582283 1.2465224917649433
Ni 6.016731429962434 5.622032201451606 0.4603543157049187 -0.6648880488394807 0.8547753301543537 -0.1676230706000339
Ni 7.586019713893011 8.864985111354807 11.549138417083277 1.5543730145608778 1.1252792939810297 0.18836467402275944
Ni 0.06931190231886297 4.991766680569447 5.7506810523542145 -0.2921058583671679 -1.3263009946461677 0.08753629244977183
Ni 8.09971343706172 8.90017797223181 2.3798061006317344 -0.6941736851774755 0.6414465299870888 0.6870491583175522
P 8.835648619407388 1.5720570804384997 3.724034946307883 -1.0745264889081945 0.5847783878710832 -1.9300754640037794
P 1.7636778361298253 3.456478124810157 1.6883902516108065 -0.02192071133249128 -1.0164599237827656 -0.2657996163724713
P 4.8602852779761685 1.1411722317764466 8.172184864079918 -0.052267441945148686 -0.6736925345049881 0.29537244493358167
P 8.282226309503304 1.741818916330444 12.520411283930708 0.911502864753385 -0.8985938700012007 -0.8057076260934253
P 6.267507887360835 7.8703587210667125 1.4286753175911084 0.33854923743137183 -0.8775370493309017 0.6327685425971167
P 2.000027406460635 3.3929050997269568 6.22721370107565 -0.7356275814468879 -0.008561516416765901 -0.0009615925823209246
P 7.028817632440284 3.867416709155274 5.740723403597271 0.11347255269955941 0.3618598871328542 1.005807586275242
P 2.4479804283327047 8.777130469527794 10.359155217394813 0.6473713801119562 -0.6692686944056796 -0.023033999001328073
