# total energy = -381166.5490232709 ev
CRYSTAL
PRIMVEC
9.28615142874343 0.00000000000000 0.00000000000000

0.00000000000000 9.28615142874343 0.00000000000000

0.00000000000000 0.00000000000000 13.59122127453641

PRIMCOORD
 96 1
Ni 8.515112971669172 2.843289555419537 10.118691099175548 -0.8452126261665831 -0.9787960906834047 -0.2156152822085964
Ni 7.729615996256097 7.337303957665799 3.525508740703378 0.14126977741748573 0.9330736489456254 -0.5206525039254517
Ni 4.524324400446341 0.30573910623132317 10.1669540138953 -0.824999898664134 -0.45498704340684215 1.3550497846440857
Ni 0.9068465448000209 2.6162617257640433 12.684387873285464 0.5360233299545671 0.36869387933555214 -1.9933423423832253
Ni 3.438587577666553 2.465761069872904 10.45171663270807 0.4762284692841218 1.7989846840018244 -1.742553340486973
Ni 6.559876647827438 8.653188756974618 13.441173925771148 -0.15949247107309952 -2.3952055093818942 -0.4907857982730064
Ni 0.8697687994528164 6.555762882753102 3.1252607571186592 0.19481994272979997 0.18347520714094206 0.5188491321681258
Ni 9.354776068252916 3.2137884243493007 5.989719023290923 0.7523641774752785 -0.2435228072521419 -2.223310293769068
Ni 5.440858258396583 5.683356816300034 3.10373174369125 0.8190328824474217 -1.6507009371603505 -0.3701969462436399
Ni 0.9788067893012622 3.1395456438316436 3.502701952842044 -1.7123698749250573 -0.4754761644991295 2.6904164890369473
Ni 2.7473171806040293 4.2836087836134835 3.5073775300766457 2.6299395146978126 1.483390255594413 0.5310413033589435
Ni 9.141278161200827 7.221422074228671 12.243773918139496 -0.6819414047773417 0.7914233482602693 0.5560753635094359
Ni 8.990684643795595 7.833908762734372 0.9717325991576287 -0.33553796140887376 0.7921802810309518 0.5597289011016231
Ni 0.2454961275783844 4.394847591345942 7.828352858346164 0.022185792068419852 0.30370950404436725 1.720712590462798
Ni 8.748780399582342 4.929989924763267 11.437216879945183 0.24899642877220338 -1.6129630562899449 0.6135803997044401
Ni 5.368045545195964 1.799944013823376 3.380884361424068 0.22084156360454227 -0.2360480961416515 -0.7178172927383444
Ni 2.1772124871305474 0.8031044471003205 11.207633501421839 0.8044930369600338 -0.3381825981205724 0.8048226523853108
Ni 2.207791783721497 6.726089471903178 7.617485717988342 0.2123132144185569 -0.2668190587759211 0.7082162793134706
Ni 7.009465668310533 6.702883379531242 1.3024495954497888 -1.6832400474386366 0.5284820272721995 0.5452232512862804
Ni 3.72222378631337 -0.1460414459843754 13.04912189942031 0.40198143774408834 0.04758906263287288 -0.37639716151708075
Ni 1.850924985060641 2.3641148565462915 7.659047745851115 -1.8926540859325274 1.8346206880378793 0.29747817842267477
Ni 6.896341771841978 6.343769332229326 11.283554289499163 -1.065945689217719 -1.162765463851946 1.3033089046263682
Ni 2.9314151322941533 3.692842403254225 5.990222332697309 0.22972163970299148 -0.0818639246553429 0.46516424105016013
Ni 6.429759094279795 3.5580724878505037 1.6859639341948807 -0.9725125716675379 -0.28393617807218197 -0.2854590424746116
P 4.109892749198999 2.4118271024874693 1.429728372511597 1.4289839129293904 0.4491704367250652 -0.1896869923786088
Ni 2.0187907440872426 8.212867315598041 9.906818268620093 -0.33329235990780665 0.05363424038568828 -0.5885280847215025
P 7.013542288779232 7.63686591597963 5.4892901810719845 -0.47265232189708917 0.9313574375854669 -2.5797862908821894
Ni 5.190568619460698 3.8754174261132173 4.7028070163792375 0.5290939498245856 -0.7712908391764524 0.36492232810826186
P 8.510757766658193 0.23969135433240726 3.044297588826065 0.025027375282273025 -0.24609288197216325 -1.4642859306647944
P 3.8085292775117563 7.70122823139775 8.97183654228006 1.145120754186989 -0.09897615885559728 -0.31949222079992073
P 3.129683751034927 6.4231380683249375 3.1611415175492 -0.7459508177497669 0.4929162143524478 -1.2967772741554375
Ni 5.599131423017338 6.03430833651314 5.3147653228697465 1.0458396624964634 0.4196937674221869 0.3418803586871338
Ni 3.4503995622592303 6.410973209978705 5.201428773533919 -1.5493382803504478 0.3266825679007729 0.2630107407734245
Ni 7.999109396306492 2.5828594391446553 3.138403447208295 -0.649794644841468 -1.1307410884265494 0.7922977804454225
Ni 9.216960295186931 0.7290576043774011 11.502930330393362 -1.1095544270466051 -0.655931096756509 0.3718704772913208
Ni 2.768721759602553 0.541915652255296 8.267770757190611 2.0819430715417693 -1.5674360183924232 1.8891306461603015
Ni 3.831085339285038 0.2777032865113911 1.923239031930578 -0.23237244706227722 1.470205895693655 -0.06037181621983796
Ni 7.7275823290974515 0.09680905705748862 9.018794752726802 1.8880672378927936 1.4998669130931974 0.33626944025825956
Ni 3.4706526584829964 6.86770328089558 -0.0115696160408941 1.8631103108371396 -1.0862967420702452 1.2166827826956916
Ni -0.011664334785269346 8.202791841318911 5.570416785629384 1.7125416246162313 -1.5389741635073044 -1.6522322862032126
Ni 6.198385345764732 7.822440365743839 9.63839091875149 -2.9887806696090014 -1.2863442517475716 -2.006773013966834
Ni 5.099443615680865 4.508361506173689 9.370712032686479 -0.690837678825707 1.0039450791452063 -0.8584952022081022
Ni 7.687967607185216 8.921967123366494 6.892094286187348 -1.1525836382229375 1.1389647618879222 1.540282855016399
Ni 9.106724391806681 6.709179390186773 7.892191434824799 -0.37673371892089313 0.29742289970470714 -0.22896753514578633
Ni 4.719955752186863 7.44822703625034 11.541746443284396 0.04417643740689812 -0.3044337838049015 0.04526427115443817
Ni 4.292309907484033 5.45829765074332 7.19565486129804 0.20390647841210047 0.26528051064420766 0.06688390630674287
Ni 8.273654462723567 0.9307788142121666 0.2456967084488261 0.47802078529785413 -0.7964616820151251 0.9093747626667887
Ni 2.5352957716260263 8.962380454299932 3.914122105187338 0.33832760833886893 -0.7612619941855406 -0.6302365202038823
Ni 5.738702278699687 1.3858559501781802 0.20124483026746648 -0.5865712181054478 1.624824069393589 -0.1640556649637497
Ni 1.2961981583210227 5.384064156377072 5.665215390906751 -0.6569112012815912 0.5314632213877105 0.1441668964596227
Ni 7.814454275531808 2.768257452032086 12.610356817019941 -1.0613123042107657 0.47693577976379153 -0.9351860673029379
Ni 3.8267951373339235 5.049196250404939 11.235223585874124 -0.4021441885741977 -0.5704244331422563 0.8067484086531138
Ni 5.442464762590399 3.9178737103567096 13.087829364339855 -0.10375969628716969 -0.17415521529159683 0.11069781816789967
Ni 8.084346980092805 5.608826165088686 5.416006659994913 0.6320892571419049 -0.7613301284193147 -0.2667514387627793
Ni 6.9446483314733545 0.19980919125958282 11.24948061413288 -1.5239206116082915 1.4883080046110047 1.2141129650859865
Ni 2.1271508448828063 3.2838152921271178 1.316712195399391 0.48716105703622553 0.04224528182245628 -0.898100218194234
P 5.3324795852982 2.000367019691116 11.307936937254661 0.8296060299775777 0.11600303243089699 1.255419022923625
Ni 4.347553222218184 2.5825158515425097 8.179346166240615 -0.6098556425546852 -0.3062230144948403 -0.8089934959335486
P 1.5037343561683154 8.63365069440937 12.817514139889733 -0.6925477195382782 -1.734027048183517 -1.208675339010183
Ni 3.795129361028082 1.0753363332013297 6.331661119406691 0.8606019641384599 1.0670165536843945 -1.2761305444393634
P 3.619296084092268 2.266898137441933 4.496302509953523 -0.7266251208379615 -0.06205177502542216 0.21836276304674654
P 0.5885061311062262 4.673032829115478 2.196667902948251 -0.16201600882590161 1.2538586204150406 -1.051853729901027
P 7.297067063609137 3.465842432052959 5.590435870837633 -0.09695295777798142 -0.09848404971052717 -1.1006514681300203
Ni 9.107300133194059 3.0934213297814623 0.9440942267180162 -1.2177883570550447 -0.16316117817393835 1.951106059421833
Ni 7.8765879146116875 4.98928200151189 2.889819674286306 0.2016153683850786 0.16675840860689345 0.33158411896744827
Ni 2.287216236725564 6.8513132236580985 11.776235695597292 -1.0139723814742214 -0.2334008883267916 -0.7195054790740447
Ni 0.5948931460455689 6.426713236617532 10.198335633968016 -0.23337106353012066 -0.4684794214663222 -1.8903645185674023
Ni 4.659252180424021 7.50937634328083 2.222083170740468 -0.12629387283394378 0.3768738440431832 -1.2510111236639165
Ni 2.5451112336656965 8.50070086468188 6.127670374167483 0.11828565781748661 -1.46613712494092 0.054633885294796236
Ni 5.506836364159929 0.32113275942258257 8.176152658770942 0.18264576926111123 0.8409008861651066 -1.1796447561057877
Ni 5.211945340004994 8.699322357176209 4.601389242377295 0.10370673156204721 -0.013075345126719417 -0.28653479203729365
Ni 1.7367331811800129 0.8927185940458541 0.4686386314842106 -0.24864984406606208 1.3946290895986047 1.0304824633141028
Ni 3.394673367651794 2.261317160444921 12.76914257719849 0.8253873639105397 1.0366780506018534 1.07810443606744
Ni 6.352349736131554 3.9146607019690793 11.007244854314314 1.909309177990705 -0.31130248590027676 0.30745842956383823
Ni 7.96730432772951 0.8472480250548902 4.969467211634644 -0.010212421756627574 1.0554350194943822 -0.11797738254844843
Ni 6.479142847474654 2.224469711652668 9.174862456387839 -0.735200006991166 0.20245791889103196 0.4766002508012437
Ni 6.815468679218055 6.640749740451362 7.223720396702483 -0.7993981389356297 -1.1530024709279112 3.061796656955411
Ni 1.9775880902840104 7.926714559919294 1.3575889052881553 0.6544712243815309 0.09933302797438377 1.225350999893651
Ni 7.966552149465354 5.031849719572294 13.77782848727444 -0.4809582706596232 -0.520057293543614 -0.8731571750956512
Ni 0.8379210145793512 8.916636872457534 7.645809408401964 -1.6855015897793035 0.42165860445804154 1.0596063772632525
Ni 1.0695696331761309 5.571913713236569 0.03454634047301888 -0.8828569188819183 0.9747550878448115 1.7459127438775093
Ni 6.123139660894867 4.054825871341626 7.381731691853494 1.4841986104283214 0.08831559381795759 -0.7366480522916022
Ni 1.2508910255948629 3.63525897836492 10.24837870391294 1.6606490495119979 0.6180404923583227 0.19255454373439096
Ni 1.2967088966485363 1.0447198920047427 5.638916081500365 -0.41195423268608405 0.9893440414025799 -0.7176514565844415
Ni 1.1954248432268877 1.187327319197945 2.69306005514955 -0.6303126248574564 -2.009869393503971 -0.26395716384709383
Ni 4.741806066453035 7.892467233521655 6.952140398430409 -0.5678456166714866 -0.7478009835846282 -0.32033579974713866
Ni 8.363154390006766 1.9148044206054766 7.590438873393505 0.4896555413233051 0.007430231025800106 0.41441554974238304
Ni 6.118998037366302 1.8092951682925793 6.34644838691092 -0.11335068240971446 -0.08826057221030606 -0.1389951224506961
P 7.208653616040831 5.387100727887926 8.964987077000533 0.3878041178024418 -0.6367804919699871 0.8116880120465764
Ni 6.372918561503238 -0.15454570344504706 2.1758047065768915 1.1432068249937277 0.5087868628361173 0.2698709582283675
P 0.8167123733755643 1.2376954044421937 9.559385271175984 -0.19973614908449472 0.5503094075599361 -1.5465656027013173
Ni 2.7755192224341885 4.480456621188628 8.529782305050503 -0.9463832215703379 -0.3321397343606021 0.6511748130184463
P 8.084356266244214 7.857477015011271 10.386017111487005 3.35168159641186 -0.46252603209636467 0.999227619064879
P 2.3138767774217732 4.31409521869034 12.70120045041207 1.5406381814732886 -1.092178654772319 -1.7507729001832881
P 5.565524841066944 6.102255106375266 13.3326485314805 -0.06508439120415889 0.36904483491706763 -0.19707248620940254
Ni 4.066145689909608 4.824313521725002 1.2768560335505126 0.13019989275656932 0.1142063455417904 0.2937413370880618
