# total energy = -340884.4713585252 ev
CRYSTAL
PRIMVEC
9.14012835338539 0.00000000000000 0.00000000000000
0.00000000000000 9.14012835338539 0.00000000000000
0.00000000000000 0.00000000000000 13.37750174351587
PRIMCOORD
 96 1
Ni 6.373840933690344 2.1700675017726163 11.802113675636107 0.9674205018566114 1.0943712915482637 -0.6115556559649274
Ni 4.64823044267788 0.27557760527118347 6.547804992460121 1.2485258953482177 0.9802914442820085 -2.1639134398679896
Ni 2.511140523211855 1.6770489902378178 4.9249002932610475 -0.8925448355936434 1.20751397171223 -0.20029716379428728
Ni 3.313817435790173 4.606167573006335 4.79505837503135 0.12427015753569566 -0.3901361083697281 0.2928021131032441
Ni 3.3785661034897005 2.5642355275408435 2.6436349066259686 0.9369822399714122 0.21744050834279327 1.8237742322416783
Ni 5.081618758268054 4.892582628205713 2.726468231850946 0.12372868320992886 0.4190353079025816 0.5710669518222617
Ni 5.446355571445587 3.523519395562937 0.6522605659195356 -0.8433555183531863 0.2043847036000996 -1.4808320079489334
Ni 5.964737938551558 8.780043645798546 12.4292242649828 -1.532037070067839 -0.2542759320035879 -0.1762007849667159
Ni 2.6059236519589044 5.6785605266836585 12.040058631342177 -0.24976853105153757 0.004014520476031796 -0.29350839514164934
Ni 0.8838988332133138 7.702038653447096 11.68413747174965 0.11193863255353625 0.22997052248900393 -0.19801428129738155
Ni 0.49748346412813826 0.03483211430493073 5.117831031921182 0.838266276755737 1.36599959878737 -0.45832356397924295
Ni -0.32161734469372577 2.755008281948599 1.7211491944703772 0.5180842289776433 0.05806785067700968 0.9202456439430216
Ni 1.34500641539473 0.9110678640909035 2.6037035148352152 0.5016376533858458 -0.20747491248964914 0.4237311707163541
Ni 1.7654248891631046 6.704238285469355 0.6937576616596012 1.1247182792712371 0.41828737399296356 -1.0896386619592848
Ni 7.757391269425122 4.26756238616321 3.8382990103998 0.7823789786698139 -1.2878041241225497 -0.29848090865557625
Ni 7.645845145680764 3.6175438936748847 13.24440852889935 1.1930707997037064 1.1995947168651533 -1.7758524688597352
Ni 8.295443192274936 9.177237053979047 7.317987835510123 -0.6364490767724975 0.29373953731584895 -0.2528780232147967
Ni 6.966377160345478 1.4752441011726192 0.7201634918380223 0.08485051808749257 -2.3642165171995475 -0.6890363639509101
Ni 1.816244001586788 6.80078545894622 9.684575404261 -0.07753521537300195 1.344319542710775 -0.508234589877073
Ni 0.16334231586554004 5.167901567850711 1.3998480982100792 -0.6293345772149033 0.04721342446100901 0.8989713079452777
Ni 6.61761729114575 2.0717745638222045 7.026265107903474 -0.6988296958922481 0.42729754791137375 0.5859973478798488
Ni 4.065026286847311 5.254677944352591 0.6297365481595207 -2.4989456652850386 0.18905450100093246 -0.19325619778710587
Ni 6.452126131155963 5.828860793715142 5.224797037457716 -0.7133980806247262 0.9557302100028767 -1.0222058251276074
Ni 5.231626541199257 3.309695238001849 9.736881615532045 0.22224949969566238 1.56353848311023 0.6244836768805051
P -0.22037580140736412 6.127679002792027 12.785493663457222 0.8798201889381235 -0.14093656244778308 0.29243290268928346
P 4.498058137440269 6.964448593309254 12.58283782846277 -1.0187836868199358 -0.15933974754531913 -0.7358502389806553
P 2.6499150886666722 8.551430760917041 1.658168227551918 0.24753424240438013 -0.41928419068859396 0.6414395880085534
P 6.679614780277017 8.219324205177017 5.982766841295392 -1.0465973665980943 0.36246023972101443 1.169109918012735
P 4.8211616669685435 1.6883461886111402 13.185132969926315 -0.8200237856057813 -2.2586192534830065 0.513313032841245
P 4.410843034787969 6.141782220502413 8.36299879332434 0.023144813547579492 0.21892609174938427 1.0760979471603727
P 4.700155510605748 1.6699928113185583 4.2447751327129435 -0.0334456812529553 -0.43654297776904166 -0.16508873421395437
P 0.35847034132903 5.703878681614163 4.1777405189671635 0.5557565467174365 0.7166785511482109 -1.8674480189805451
Ni 0.49027007500497805 7.483361087846984 2.4769381637353405 0.5725499641256914 -0.053366074325966156 0.8598735706128675
Ni 2.207249543020736 6.88204119805531 4.983266409484773 -0.6128705181216091 -0.37098293248004494 0.4216704315325835
Ni 6.239152005511315 5.859681305782168 9.53520194622228 -0.5613456107694398 -0.8814374128265723 -1.5199757680279307
Ni 8.893554897091661 2.741636274488914 10.416177766458418 0.8425816163016392 1.139839708293708 1.0367179027008533
Ni 2.703951526193438 5.490767454047508 7.204573469575225 -0.5252948877934696 -0.11569835670628462 0.226285617438249
Ni 0.937749726138964 0.31193063689757117 9.128151823862337 0.002572645823182666 -0.8447405716261709 1.0656029611663198
Ni 1.6239631260369631 1.512298180626866 11.844988188685932 -0.32141771995740775 -0.8414403036083443 -0.7984673995912442
Ni 4.586031870727671 7.232336608781509 1.8048389497014872 -1.0866366419081672 0.7391366230414109 1.38521808069735
Ni 5.718356644578032 7.88708968764312 8.183780074890466 1.1295216141971514 1.1055435061149992 0.8402521968375142
Ni 6.816378517542407 1.4494963602198285 4.726030299339598 0.1219492227120029 -0.4923564851942359 -0.13732544805775704
Ni 0.9247707441890306 7.488406438576818 6.96983852686973 -0.8757015387840595 -0.5531910999831054 1.102341968458566
Ni 5.463904617462399 4.49426498426476 7.302724735539564 -0.01262437363222987 0.2276660427255434 0.41955158541736776
Ni 8.427938489701864 7.645854285808898 9.493544898239874 0.23888145182538859 0.30758184251557996 -0.46849664785750283
Ni 4.684434490215687 0.8730915457079607 10.762922237404654 -0.5801717423370073 -0.35911266340502024 -1.1051290442854
Ni 8.36782386696615 7.331123113651144 5.0024634206041005 -0.04342079018779619 -0.518623389310565 -0.2568112968309319
Ni 7.553904596783313 6.456613934069638 7.341613238710256 0.36126596230259717 -0.33270511994576896 0.0656798586963127
Ni 2.369011530731949 5.771917795441842 2.8700093741275166 0.13426763506803974 -0.46004903131078184 -0.6094285823195955
Ni 3.284724407940428 5.158752299588821 9.858549517171726 0.8561393003814157 -1.953113062549533 -0.08068430252494492
Ni 1.1530363042014529 3.6585739288673156 4.043657581283403 -0.03622067289493117 -0.2818718393439856 -0.37112794269834154
Ni 0.9118968737126352 -0.14677948967436083 0.38758347746066957 0.34723545235146 0.5928508804665725 0.04670768846918407
Ni 1.3449424344977938 3.8239462671913627 8.507341524838242 -0.5134783547745156 0.6494773707113654 0.10253970783713955
Ni 5.514074780788586 3.6890653963215256 4.692947605559468 0.22638074825521656 -1.1986315816209356 0.9749391788311595
Ni 4.573144290059075 6.850983042656808 6.398031196809142 -0.21201136690742198 0.826397807452925 -1.767710299368575
Ni 8.012611067303991 8.141294931299141 13.048348210366216 0.4764205306902698 -0.435857778776559 1.9496564714595002
P 0.25654054639419643 5.954217651069606 8.479449509825272 0.30462404543883664 -0.8562943379020415 -1.4053698730548763
P 8.956731462752183 1.9568100321558215 8.377847845490441 -0.07261283837072009 -0.8284639459533344 -0.9682519966189711
P 1.8619629225118355 3.5342590461201002 10.99201223697474 -0.7552708095991121 1.6750495412080442 -0.4583287061855655
P 4.2989404460463945 6.506774957267691 4.1570856574105015 0.0012634400934558886 0.42099911649717175 -0.8216209548895721
P 7.162981316502568 4.251128435778717 10.735137161890847 -1.6004021889057984 -1.4064049991876102 0.5402864761062953
P 6.635029235240554 8.62946917492305 10.208639275014914 -0.897642561831525 0.3113392526754832 0.3178593131821881
P 2.380692614486889 8.761544026455823 6.143135873479022 1.2202049369163375 1.0870027669983344 1.0919570256798163
P 7.034818439811042 4.776640102829018 1.5900093780456863 0.5130836904392583 -1.7995999489883199 1.331318759575733
Ni 2.5572890301591893 1.965813058367571 0.6098238650073199 0.546652013313007 -0.8853778855315592 -0.3661055497830856
Ni 1.808776516901509 1.5242260478414176 7.3186166763257265 -0.1237464238217417 0.17348261470460444 -0.5905214610024475
Ni 6.99699658959356 1.6634941802154577 9.47832110082029 -0.6961902013868719 -1.1280278032604443 -0.7429513688018108
Ni 2.7754638887119447 2.252273814207618 9.549742976070272 0.8147077727095066 -1.3461272853434754 -0.17593339023794216
Ni 6.065864316223435 2.4754574629776718 2.4732592621615033 0.16915159142941835 0.31193960526364345 3.1934186268704874
Ni 4.262041748770422 7.631074698616615 10.264717617166761 1.0303184269324126 -1.521328425401083 0.5649130164057239
Ni 7.305631296286099 6.629024171056677 11.315400024487975 -1.242934003082737 0.8914878550840388 2.423887193587303
Ni 8.036128616992146 3.8593277031971325 8.268352766499296 -1.1072075240809833 1.3150881566494834 0.3811670721018984
Ni 3.3381941575229 8.882550182818619 12.919883709446276 0.3757456439760109 -0.14834571042766062 -0.653507317806365
Ni -0.17811550496812986 5.311026834297196 10.515170838223876 2.2879141457923824 -0.685792917312948 0.3657538228706217
Ni 8.811266323503457 2.2583154389040305 5.926941680692852 0.6616823974179895 0.8931313042247329 0.20819096472006723
Ni 3.7708786832467758 2.8691684823392114 11.764388710776844 0.029622193741807044 0.9536499304350801 0.3169296022790671
Ni 1.1472323228365175 3.772322823491909 13.13009751639453 -0.551498799882347 -0.12172862206076455 -1.1620188154939086
Ni 3.513977101791296 9.11648262227397 8.418889762849446 -1.4023184878230623 -0.03247329003735698 1.0022296391159966
Ni 5.975441028596187 8.2312063717509 3.791866245467506 -1.0701972654052214 -0.33348982063059335 0.8541263837164452
Ni 3.4910079597911667 8.864736073085929 4.344812007111275 1.5313143329692014 -1.2840161178350273 -1.9753878147873334
Ni 3.9493305449302274 2.848658034807063 6.517893009129591 2.2823358803736564 -1.0111068870009685 0.005570037888609762
Ni 5.075586273699775 4.9383655300276965 11.80544433832805 1.0936174441013746 0.31046662026254274 -0.6353216480362736
Ni 8.071299830050839 -0.0761125890082263 3.1912830500034133 0.025644697151297767 0.6278047708339382 -0.9366935050863996
Ni 4.738681150689529 0.47942896902553006 1.7846118461414853 -0.6205951404593764 0.9157377287703391 -0.22277117652708733
Ni 6.144076392663985 6.299705354397448 0.39689544000334015 2.534069762681681 1.1800700165686644 -0.8129383395139095
Ni 8.39167046126712 0.5535161056393161 11.25541519157176 -0.11831573972447365 -0.3262963882059477 0.18969367724682812
Ni 0.3432236935891116 4.928210847671093 6.239935314492378 -0.2105224410667213 0.09589212061363485 0.6056506033344021
Ni 7.4379255108940825 6.434970110648903 2.8131815414687025 -0.23311241055209528 0.9500439582513767 -0.05121997451724082
P 8.905519324818748 1.8940721926457202 3.677929978216171 -0.8214738877887465 0.15329097024807792 1.514416014551966
P 2.445331600648812 4.039397367560259 1.4655052946461022 -0.5522320785039457 1.0037116229781615 -0.0946245667551209
P 4.716516339965171 1.8871348353921995 8.337421058754838 0.39057885233410156 -1.35045907994961 -0.5759697884405177
P 8.981821114479343 1.6493178414800023 13.202697554160954 -0.04212084042945004 0.2852708377232055 -0.8048126250829817
P 6.627982196449429 8.458365976259136 1.5288610068180453 0.3544849348250218 -0.7247798400991066 0.1244838162083985
P 2.068292175003243 3.4865658575181615 6.327437417168078 -2.455478595240339 0.7808579140395971 -0.6349244125978548
P 7.299955276715036 4.134454700151322 6.213353993853789 0.12952163574262207 -0.6702050901770199 -0.764365829921845
P 2.550507055083942 8.890730597498331 10.48113848513065 -0.44456687651478277 0.6293867706090774 0.7870563295408252
