# total energy = -340863.7606142622 ev
CRYSTAL
PRIMVEC
9.26923905884171 0.00000000000000 0.00000000000000

0.00000000000000 9.26923905884171 0.00000000000000

0.00000000000000 0.00000000000000 13.56646831165971

PRIMCOORD
 96 1
Ni 2.4806893313926386 9.12699316551115 1.728924394571091 -2.833048179798966 0.20932816364830403 2.6442932123163234
Ni 1.6370032061904611 8.294393050040261 5.0211800845096715 0.5602310375490223 -0.4287754180084809 0.3152740689535151
Ni 5.58992575298479 8.11620120131595 7.35047493685455 -0.7405530437729634 1.3316943977475968 1.5396598767204193
Ni 5.388792537968727 3.7247416926512615 8.122190056572961 -1.5811790790101286 -3.4174576143664046 -0.9908260252647452
Ni 5.263537312635206 7.4337720253572614 2.151682331052178 0.38336922195953976 1.7124009852733089 0.10248185801601059
Ni 3.912629165270995 8.942266503358281 0.3162970199528836 2.4712201743453117 -0.33166562293766105 -2.798729609022754
Ni 4.239916721794437 2.8115084679391744 1.6416508025778085 -0.92194591446358 -0.237486628360391 2.9754255884583336
Ni 5.242959602264421 3.751798601017172 13.58383325079761 2.867237166975849 0.7676393584667941 -1.3119717225076888
Ni 0.13744983603793684 8.814452968086771 6.841556643972761 -0.6101202090699815 -1.1227027915031051 -0.3266121196741536
Ni 5.368214827597942 5.969788432581697 8.34221119970729 0.6297045589598123 -0.41284949080684374 -0.672962598317499
Ni 5.38107126196023 1.4357031448740945 12.82660687841279 -0.3752702470014892 0.2491314116881709 -0.001773032740022753
Ni 8.529312640867815 3.93956557353113 8.67575641941601 0.9164985181957637 1.077113018688448 0.302149358646099
Ni 7.4041938840089845 8.705724795722219 2.2828568923509165 -0.4205867115501014 0.6290283588283941 -0.8300865691584219
Ni 4.421213765552175 8.210339591642839 11.036986580562898 -0.7056652307568427 0.5032348226696365 1.620225651389629
Ni 4.160006613187889 8.689012357975136 4.879872391239158 -0.781925436072163 0.1735191243694947 1.3248992292026345
Ni 0.652408891914608 7.546161547089589 0.39971275471358936 0.1868083852792331 -1.0697601778678028 1.3359081787186284
Ni 6.329796402442468 9.264122285882948 5.625620665086977 1.1835430627189292 0.42108422001181034 0.8830314967865696
Ni 7.104955044414369 7.307182029621312 0.14280189458212203 0.5988693187465106 1.5228260929925321 2.908521884657249
Ni 8.270496952141215 3.5691667868570036 0.06478271071234915 -1.2021128553013167 -0.49118509059395404 0.07171835158090875
Ni 0.5698088501776091 3.392393131685275 4.624266639945621 -0.4930134020519444 0.32681755081674035 -1.4103220748538292
Ni 4.514406693510676 1.9842567033169078 5.721766772560852 2.0040324751072194 -1.5520595359363527 0.9153854876372429
Ni 2.6006240135942535 1.9259902675553071 0.5057630439582678 0.19410389049938184 -1.1490316592056211 -0.11447322604993189
Ni 2.770464278064474 3.227752910241185 5.774947176934862 -2.206081074374975 -0.8698188547510374 1.33629127308966
Ni 6.40445085258945 7.69663837148568 9.588128531833751 0.1645925113038262 -1.9624703353947173 0.9552913226932451
P 0.13716805117520176 3.8097962288505056 6.7241923217197135 0.655419190117097 -0.7792556025494837 -0.7577892051455917
P 3.4900260250796338 4.912205350390225 0.296088225290548 -1.040846837267562 0.632251236641066 -0.20383423041326829
P 6.065743593734113 4.802513177179476 6.442023712493945 0.7569044885477932 0.44463398230729234 -0.658668293182014
P 1.686760480636575 2.8826684150186863 2.402011104636666 2.250173950929131 1.9381785527268878 2.95352364617892
P 8.351806715822532 0.6534896851710196 5.107652814261496 0.1978556442323302 0.6488438508924245 -1.1015248718739095
P 1.3066660700670245 7.399197764238781 3.0941451737296854 0.27071813672001116 -0.6916817719935572 -0.42164780582476413
P 8.578115183706636 5.785534501613021 0.1600779020546755 1.2913129086067565 -1.7297996403657308 0.41931247282336814
P 6.1016155482994 1.4523785056655547 7.413790327048117 -0.13933965027430842 -0.056677140977070134 -0.1818937215864351
Ni 8.117378394656983 2.041234714870608 3.071773865630636 0.5158900495398019 -0.29127770603891767 -0.1675485086083566
Ni 2.1519465043609927 4.9869524929262665 11.453531346205455 0.08101263239864112 0.21307503228524594 -0.6570045323263459
Ni 7.608562063403157 6.960957418013405 7.433678406044313 0.9688466927801767 -0.6036232884917281 -0.280831056784297
Ni 1.0571937741574287 1.4824201089591194 5.844529499552614 0.6214176363606717 -0.24390255918906378 -0.34813173891348437
Ni 6.831262227244026 5.313044317630865 12.239029824176733 1.3462422136547847 -0.8443129971704492 0.11232789757215492
Ni 2.1667216711767723 2.659103641850687 10.236212396874931 1.2686650893002538 -0.5148351259127263 -1.7591264143543057
Ni 8.000687946072384 1.525651839215579 12.045707796786552 1.5763490046113369 -1.740685691150615 1.393446382144413
Ni 8.495924842329272 8.284641810711403 12.290378626942964 -0.45367475235332194 1.0618738331411905 -0.9608850147309386
Ni 4.854856569280296 5.25362849624495 2.4949139054174165 -1.6261695276778896 -2.086047837738762 -0.11299175640839895
Ni 2.003555258718698 4.2686050162077604 7.90367516476082 0.4151064051618206 -2.1445468624159196 0.20744894434772013
Ni 9.112903922374397 4.535614712127052 11.617563505577328 -0.42818175028854 0.892977552255688 -0.7520849556719628
Ni 0.47009501264890746 2.0130747670749125 1.1943358714636942 -2.7369470284983186 -2.0754813750768255 -2.0928525193654215
Ni 8.609704749897462 6.636914095106977 2.3512045523464207 0.8663792329418691 -0.20744508769297823 -1.276022043885957
Ni 1.7928283814351744 5.414848368532815 5.150075339961483 -0.9959867435300784 1.3687902741586297 0.8007873059736724
Ni 0.21919803471949653 9.22707313797663 3.2193911298243 0.5166410687732134 1.2783900298975015 0.04364344772156355
Ni 1.3583513462055363 6.289095174407279 8.366929479097278 0.10385456999382114 0.6071336156378317 -0.358612326729834
Ni 8.93840123073458 1.5643694501249341 7.761091097292983 0.21029618398852815 3.126607482783209 -0.6929894350613871
Ni 5.730187876106735 4.036558889440992 4.3359108137502576 0.19192693745272107 0.02095089122005424 0.919934540460506
Ni 7.517695714410003 0.13476546445082904 8.66391311286612 -0.00017689189749646954 -1.5688809783690658 -0.3884499789165568
Ni 1.6389497463606704 0.5776747263130362 8.755581251024624 0.2753677196768806 -0.2923372576516836 -0.5566726307738026
Ni 0.28438210347646503 0.24936848043385126 10.661860482046835 0.07339471084206714 -2.026102053312749 -0.3086881882058813
Ni 4.6416362667311235 5.243172794759254 11.648956563903353 -1.638822697665526 -0.178412447906054 -1.5414419083215067
Ni 2.219871487062394 7.702848761552537 10.578996267001022 -0.6727211717306544 0.588357106361277 -2.387171069113192
Ni 2.625595343206368 6.967816654803666 12.72670394841041 0.9932402911331928 -0.010114976946814838 1.2305389718524937
P 3.5297539830297167 4.436294817251845 4.3819965426658 1.6021837062862536 1.569987066949051 -1.406292899089778
P 4.6093793153390825 0.10351978702340628 3.0152834160433786 -0.549145469158822 -0.039872924935537776 -1.929412119388167
P 0.18545337048308116 6.738245414824735 6.113932512957373 0.30099056245130745 -0.3788335388727153 -0.06638691206566631
P 6.241349324803717 7.352378838525792 11.852643454237953 -0.5172061972480642 0.8209236717122314 -1.6079128954605468
P 6.993687100589639 3.124289665575104 11.502479416095097 -2.3005423760793544 2.3890608299367373 0.3903860195970051
P 7.935821812209882 5.9168888861465305 9.543643600477234 0.20365553874355893 0.16882660398983182 -0.3028389285139559
P 3.6412258501103736 4.101174753853037 9.87161337298414 1.1531770488325623 0.9839285268139635 -0.6971469088731864
P 0.1673347891939942 2.0917613361459 9.842025035473066 -1.1725580244623355 1.6723051456936877 -0.7106408295945632
Ni 5.013545939346889 6.515941258147919 13.538100679884376 -1.9947407653926486 0.41899288470042034 0.5268720024726022
Ni 5.713642284659954 6.831503227455575 5.482223685367106 0.16596470906100447 -1.2699557830872192 -0.9929263594371995
Ni 8.132088676800421 4.398003591332155 3.07562708824376 -0.5645229800561568 -0.0213704952559761 0.1929831466313773
Ni 4.83578974485115 0.5837099277645758 9.014510951389767 1.40713622092668 -1.810139415067063 0.6552849785320779
Ni 3.5266673264740986 6.619793810848042 3.7464613732552356 -0.4249403605331068 0.6456405134637784 2.876162494489937
Ni 7.526696145387494 2.7902448338893637 5.619407494248446 0.1887750220873007 -0.16811569396573628 0.6949606998551451
Ni 2.7516384538468777 6.733963026450275 1.7049791697058443 0.6128419788765187 -0.7617155367831914 -3.133211618363288
Ni 6.706322156033301 5.258559731342814 1.201679889448727 1.042157842769502 -0.7917269955436171 0.6252385527686587
Ni 3.3746518084196526 7.585407504616572 6.934825579690289 -0.9495780743585517 -0.48803754610390787 0.488851557364771
Ni 7.150837776997876 2.2765992291656385 9.376695338545609 -1.0446081040822073 -0.6177841533731425 1.0384474837974502
Ni 6.316077928861944 4.527643166668099 9.92064301217615 0.7901753347857811 0.17451054174848654 2.0095922285831844
Ni 6.121785412158331 1.3198098508353906 3.889953826135837 -0.5954384386880907 1.499690278306017 -0.6635503038646636
Ni 3.8606287350096875 5.236925327736773 6.650690037968717 0.13730642189436354 -0.28535157036246983 -0.9095992199727689
Ni 1.1720859903943106 5.124257728837273 2.672078722470968 0.42621665614236914 -0.7815747376009636 0.38687312134774016
Ni 7.971267381785505 7.685153784481444 4.332533103092999 0.9453007871394365 1.1588026225494559 3.0258534060915827
Ni 3.3685711876974747 3.1599576968844643 12.39592652343895 0.14205113566820052 0.2077775313317325 -0.8216674918567913
Ni 6.377078790100744 0.1758050197060767 11.062328679731245 0.9531642490479133 0.6248510875222529 -0.028914111931188913
Ni 5.8389067792323806 0.9931062563630114 1.4437979712104936 0.4592321918364413 0.3024794882920081 -0.024161427737551935
Ni 3.386331049440909 1.9179723759018257 8.148020644631641 -0.1802970665232766 2.0072255281232207 -1.3770270602461252
Ni 4.873738008931326 2.2689984532629164 10.744846124122315 -0.11143752454740162 0.6536258456621001 -1.0925972303669764
Ni 1.1693422956782058 0.3228605680220515 12.979012631425169 -0.07694283320464168 -1.0537188081342241 0.28970804755895263
Ni 1.2580952582008476 4.32814133769945 0.2824670787185352 0.9178115805802322 0.4242101672353017 0.030789988797663103
Ni 2.95050070533103 1.3988671894626084 3.6592832544226823 -0.4737805219642614 0.751385615612093 0.29134198361794983
Ni 1.1314218393147462 2.406581766341096 12.100095982989984 -2.069391460129004 0.9105623552169867 1.3306299610388244
P 8.142275570357851 0.6337332293672849 0.5376881565974827 -0.8485902843895643 -0.5825315008184354 0.13116714176584507
P 4.137139400807382 7.394127490557331 9.131019722891812 -1.4702298069530548 1.5497134043016796 -0.7489479527048778
P 6.279992781801825 3.2612890166022206 2.330081810727977 0.7314657367597145 -0.7023752471516613 -0.7409410232400013
P 0.38588953873343107 8.02825466257811 8.811447880833525 -1.050453764229707 1.4845572793193207 1.6479539705428328
P 2.8963312731657744 0.8582295610453133 11.802190059950016 1.4518903852139189 0.006417473490569593 0.015765747474688976
P 6.800284430820978 6.29294190855317 3.424977287210689 -2.04493461263822 -1.308750901577546 -0.2928921017138891
P 2.8249674028303366 0.3959123667622282 6.654013060116432 -0.015159995569890018 0.7575302950572503 -0.42005989251235404
P 0.6896675246201965 6.786751342018571 11.657381375144796 -0.1798556081104838 -0.7363464618907835 0.4313645188918958
