# total energy = -381168.3320177695 ev
CRYSTAL
PRIMVEC
9.22880385561955 0.00000000000000 0.00000000000000
0.00000000000000 9.22880385561955 0.00000000000000
0.00000000000000 0.00000000000000 13.50728730448972
PRIMCOORD
 96 1
Ni 6.824746662154339 2.4537728507946803 1.2926268874269278 1.7531511706074776 -0.5396907515038254 0.9902773518501267
Ni 8.46967944870173 3.8060233489957263 7.003312021066078 0.19627338734687488 2.33025430132149 -0.14685369926316644
Ni 7.685268028499742 0.3576890604622168 10.640149244600478 -2.44791081019541 0.32351676857828154 -1.0337660191613811
Ni 2.983884578262118 5.296161406955324 11.70239011607797 -0.20383397330295216 -0.4391379921897276 0.00023294194641250204
Ni 3.0074918587562194 4.211620053622498 9.397276685007718 -1.9735757012792594 -1.9899510573134889 0.15318426946688457
Ni 4.00147095896605 1.4098474636286027 3.9379278751560274 -3.8916567119253234 1.4540650242677344 -0.4499705640288573
Ni 6.128894844619045 8.628045724416657 12.310636589274594 -0.45623865642575623 -1.6383557853314363 -0.4415010931052654
Ni 5.962545653490747 4.863496620354666 6.331473551398515 0.6404481706295615 0.6958695848226596 0.28919331270606324
Ni 4.388573140484855 1.8993985977529684 8.66171055545121 0.3026517522038143 0.34756532488705305 -0.10196249517743085
Ni 1.767537446971214 1.8197447908942532 0.7397689268735587 2.1410599323085835 -1.8381901505566922 -2.1092389311432447
Ni 0.45316196016492727 5.580989983143544 8.50651160525058 0.6290697535892907 -0.007621263990683648 -0.7583638467021391
Ni 8.440571801055757 6.279259747312713 2.353590492438279 -0.4989881315781406 0.2221250583026562 0.5823996032262615
Ni 4.601537020344861 8.826446551649731 9.926938046842587 2.474172572105416 0.8457988376873563 2.7203634131080245
Ni 8.475604340835119 6.186150344300597 12.090319198430343 0.43218881456540403 -1.2534827251328606 0.16600276138779152
Ni 1.5800081507866361 5.049484706280246 2.28197497381661 -1.1425028569481679 2.2457166864887257 1.8170366564075286
Ni 8.379615550991822 1.2765097042154736 8.165235972606485 -0.3745058580316389 0.6305211413238366 0.28277892453928716
Ni 8.41312533812008 8.098653843657015 8.90191048151692 0.39585732712422145 0.14095404594927982 -1.8349446470362012
Ni 5.985802239434897 5.20814630372145 3.510759764185661 1.4204586490671987 -1.185899478766248 2.0449361553001166
Ni 4.209525115126736 7.946904620371434 1.0838851853722589 -0.162402702741359 0.32400090730355174 -0.9349693233064413
Ni 0.6510468972574142 3.5881866606521844 4.255079414285038 -0.3736337398393307 0.40698506160626685 0.9169577172203691
Ni 2.6933433724312676 4.609058495560926 4.505611909248792 1.5157049085667187 0.8279044739054386 -0.1731386011016244
Ni 2.296264853846738 2.504928111067865 11.409079346182896 -0.5036179170406682 0.3460928541065846 0.1577415498202638
Ni 0.6991114310890529 6.259759284574622 4.299977545482772 0.05091478457199619 -0.4317900364650886 -0.8877224745043356
Ni 1.4199253175377344 4.481202645691775 6.356515910906234 -0.4644798133886259 0.9998662810901424 0.6349992316998483
P 4.231406609282918 3.3211973624917595 6.871711122555604 0.3627479461647624 0.21575926398562842 0.2481435938536049
Ni 4.495018165199074 3.6141657437604318 11.182426381429654 0.9262584257960047 -1.2151262368418492 -0.17777070055699704
P 3.015197910051206 7.213851494129446 3.7182592692291863 -2.057014683731206 -0.8576421101791875 0.15679564096722673
Ni 5.918099733686371 6.972296779644449 2.2028490545436115 0.45950190055806023 -0.3266062061368827 -0.21039260035707635
P 2.415879381792029 1.6119028972243283 9.40968942631521 -0.6881670739720794 0.8920946354301023 0.05099063211525412
P 5.464042579538674 3.856458762561116 1.9954455290611257 0.04635930399082984 -0.3279267247205191 1.0844699732741516
P 8.051716146787195 5.1718494178014724 4.8099584829026005 -0.2866162960075064 -0.1326936057127005 0.5172810163500575
Ni 4.4957380119068695 4.084659397736119 0.21150111443455022 -1.0769219857235648 -0.5565703008679834 -1.065783195497926
Ni 7.043229366774108 7.152203083769555 4.373457282501552 0.2553095154744248 0.5694522990369741 0.8511115081495213
Ni 0.5058141324381681 0.7038338100682678 10.001619374135148 2.409893193301056 -1.6872311708759007 -0.7013565760791598
Ni 6.909946980184655 4.701927949670444 0.26527366350684656 1.4993866310226693 1.3380403945702828 1.2777382552461156
Ni 2.5923341132412965 8.651689920126543 9.749249424305727 -3.299414154466711 0.5862079212287582 -0.7878047776710756
Ni 5.534144574313183 7.175321237654514 8.730475296533932 0.9010706136764676 -1.2729598600208658 -0.9886233611864716
Ni 7.223984720862255 7.034148223691153 10.409512205183706 -1.1842418885581667 1.3668226089092976 0.4564145198819881
Ni 5.307937360790537 6.230725467360219 13.256957223026415 -0.8721814414459431 1.3065410384104208 -1.2702918262703993
Ni 3.8633895943246306 8.410707391486204 7.333390345882378 -0.2557201206492822 -0.3888816671373367 1.0479022014524468
Ni 9.132427546482392 6.598281042121202 6.468491757825345 -0.26422918656155786 -0.7106829956864084 0.29698324106412727
Ni 8.981029017746762 0.7662279077870028 1.1580810775772554 -0.5177016488272439 -1.1191549262508467 1.2863113416271073
Ni 1.1374777727676064 0.3653591194218134 12.350564086666965 0.34238712312022324 -0.09795928755530871 0.6676990359257147
Ni 7.277936308731104 7.43640410128944 0.47557780206958866 1.1083344385965752 0.2669722965243338 -0.6922936945459431
Ni 6.514151265348632 2.986699363465676 12.478275044314161 0.01317484681906118 0.7873093260918957 -2.3730623976259517
Ni 7.8415393657189085 3.8362107667033913 2.996740302159023 -0.0024970553902408607 0.4711687953730272 -1.486607219869814
Ni 2.2665665627482157 2.278683982329434 5.895080328003636 2.2259806415123795 1.5830611265241896 -0.11667743279010229
Ni 8.66066954636609 1.3696652512473204 3.7410055023151174 0.19430340810469762 -0.6449897672536569 -1.2461967329944086
Ni 7.028703229362959 7.0907300206846395 6.80570117945079 -1.880042310705788 1.245019939077488 0.06500083035141709
Ni -0.18393744568875894 8.833968026865795 5.377670203407204 0.5574784145045496 -1.1929669271359906 -0.2129127956757688
Ni 2.0630160629132233 4.113942392657067 0.3936601696028974 -1.2168697018955172 -2.7125817122800764 -2.7825920800309434
Ni 6.331144083097639 0.055182710315259065 1.9496014454589163 -0.3731681130568218 1.7478035331423187 -1.300523114351115
Ni 7.477906032635014 2.9580716136248997 5.06245025294411 -1.3541799804446226 0.657604370693874 0.30982641557538254
Ni 5.256514465202915 4.450276923668422 8.927236165305786 -0.38968256577207727 0.11992345053122572 -0.5150899222360097
Ni 7.212134936595473 0.7561020640973514 6.167170386105065 -0.5612720772190269 -0.8164214129665036 0.5517813641197723
Ni 4.98204060704221 3.428436064345342 4.76189948635333 -0.8213417330862565 -0.4205247479639144 -0.24835545275409485
P 0.568559847587249 4.907942540159043 10.43104300478994 -0.07304426948118388 -1.7990510184633854 2.2076921276158363
Ni 6.53545134485621 5.0191034836897135 11.049163375328488 -0.6911084159885904 -0.9736453997204005 0.25112504507943206
P 1.7964420609303724 1.7324310767602822 3.6931486165722656 -0.27501059344777795 -0.30624486887171126 0.10840490836866493
Ni 9.095844567640086 2.7457352924332286 10.311368489618998 -0.7886103042915064 1.2470698796279813 -1.1843251923005926
P 1.1757680803399395 7.6988620567123345 8.196667433086084 0.8391497078019547 -1.6203431508041 0.29577996478464547
P 7.946775417116188 8.475955035385072 2.9094967269350427 1.2958151673524845 0.25900084828308295 0.12537573189504858
P 2.177157910118482 8.582058594353283 0.674852597036357 -0.39398325002996015 0.3169704828193315 -0.07299747540364847
Ni 6.6302773054023 2.5648230486779986 9.57607276401811 0.22511422283796717 -0.4098279303717006 2.3249948526947635
Ni 1.4026489965506515 6.824211391525465 10.600302960682834 -1.0849196592170605 0.6903944206407012 0.20816962456382856
Ni 9.339641881483983 1.9298536507750699 5.971436683212413 -0.7209152149373778 -0.6214798570571749 0.32824862683631206
Ni 3.109903896145996 3.291166834451178 2.464188478928239 0.584222001146981 -1.9653800528423444 0.057792228418119825
Ni 3.954053364291033 5.404867488636334 2.568329994177513 -0.8745939075421776 1.8450560244385898 -0.4710057874326017
Ni 5.441505840302318 1.3448489974362807 -0.010823541267976024 -0.013156077765983794 -0.6384301117582682 3.2677078245023656
Ni 4.763050318205407 1.244448839306752 6.249160003242537 -0.1953447048850184 0.07298770521163558 0.8896682853767969
Ni 7.2527232163503825 5.416966450609661 8.4411633673887 0.920644422043337 -0.10324984653028671 0.5217156550826434
Ni 2.017841067597106 7.193612727075667 5.910222026637988 1.6357995945684858 -0.28755937664706605 0.769768746104971
Ni 9.00079711579929 3.7481310618418946 12.254148926081358 0.08544007204237543 0.75970133456664 1.834952617456001
Ni 2.844197401734078 6.042125629917894 0.46831750200519856 0.9458587165254355 2.6580704686060734 -0.07285786450199065
Ni 0.5777775769686052 2.9555244637357787 2.0507712858375493 -1.537316059078591 -0.2001251569927973 0.2357033112077231
Ni 3.7458054032474797 0.9256213493811316 1.70022993403158 -0.005250449765661925 0.044911772911025875 -0.24790216726676015
Ni 0.4717847636477451 7.0084367758973425 0.39463934570157766 1.2795891924119254 0.8842779675991609 0.5923867963459605
Ni 4.537101511193251 6.428932489710424 5.028506712030387 -0.08552414711574947 0.1158114852453812 0.28593212545628827
Ni 7.905854900419219 1.2514811879136738 12.747907471924746 0.714201293252312 -0.36200566868209916 0.30596307596523437
Ni 3.4297650121135788 6.401559857206316 9.294877567943466 -0.2931553826776048 1.1073713033523573 0.32752331863451334
Ni 5.988663168658187 1.1966344060620524 4.2887396309176165 3.6333598316878004 -0.5739010788369471 -1.109601478234457
Ni 3.55931896190881 0.6718504671126935 12.682221459838441 -1.5798115092386407 0.27466940805827533 -0.8290079913822626
Ni 1.0542616475857 2.890950522524977 8.030919959975073 1.0161724744493337 -1.095539600824752 1.3738054679850338
Ni 2.7167753056503936 0.12857108217497268 5.512702371224835 -0.06666176299360778 -0.9824575986953917 -2.0522617424272522
Ni 0.8992648081914891 8.476388789170537 3.119710423219113 0.8055513030212191 0.24257638417847258 -0.3870880655720237
Ni 3.4586050244451143 5.281155371738979 7.2083797362698085 0.30810891866364354 0.4079289135767749 -0.7842998498416105
Ni 1.279656726361091 0.3215767506211611 7.274160805036758 0.0582856231147706 0.6675871929381987 1.0048429083691275
Ni 3.153343876320249 7.6844005209288095 12.201538283425876 0.06967072502326065 -0.26703554566210136 -0.48686872260678726
P 9.022983160485694 4.7386862757877255 0.9398909260425782 0.34167672731675997 -0.1461132215527161 -0.8406815710654489
Ni 6.554758002711435 2.809737047799372 7.3810838817953845 -1.815049450774171 -1.1369934970941644 -0.051987705921200784
P 5.358963417808477 8.287309053923016 5.829137755167628 1.1695611466175406 0.6394644665600536 -0.17567859391465873
Ni 6.21695609187265 0.24429382349619688 8.56733496053769 0.8940399320819312 0.4490657928264008 -1.3713644626437091
P 4.809397371622678 6.690910547328121 10.979114907616864 1.0144122972251175 -0.26422841523060947 0.4110270928861244
P 5.466211348466005 1.2543052019211778 11.494634050284743 -0.06568422957168688 0.9032064290725478 -3.461549462479297
P 8.734223113816439 8.308729107881893 12.000279295610696 -0.992692903270155 -0.5155969437794152 0.19029223006277549
Ni 4.6478010145266175 8.546989139358136 3.417032954189551 0.055629416438846134 -0.8068931617610942 1.104817169471936
