# total energy = -381170.6957632009 ev
CRYSTAL
PRIMVEC
9.21414707495677 0.00000000000000 0.00000000000000
0.00000000000000 9.21414707495677 0.00000000000000
0.00000000000000 0.00000000000000 13.48583562445631
PRIMCOORD
 96 1
Ni 1.7537746303737296 3.8202129039684736 2.2991461579954255 0.22618945818001693 1.4285625091212557 -1.5319637936277422
Ni 5.42665332707777 4.9826880920169705 8.292358943251775 -0.6323481672302464 -2.839186945706852 0.2156610478448673
Ni 3.049947088428913 1.708376529110949 12.160986660143966 0.10299530731731939 1.3116714176584507 1.0794131275765346
Ni 5.043750242832567 3.021180522132505 12.04906794750377 -0.21434952812229535 -0.25209872184661103 0.9291468030873934
Ni 3.3202072280957733 4.847046637036374 5.076500084788788 -3.3337622929292783 0.9848386973330587 -0.03270648909408561
Ni 7.059132929031924 0.05324579008874181 12.754538961360765 0.17141416221134995 2.3837522732396303 -0.70313243703266
Ni 6.445277255350635 4.777037549682079 12.740122507284097 0.6858407398317479 1.1234352987937555 0.6205822849435699
Ni 4.243547664353534 1.463224939462574 6.594829307748811 0.214044852397683 -2.3315151703117847 -1.3810901745719053
Ni 0.10459162310819492 0.382623895597291 12.312055361104727 0.16882120467319311 0.3021563006246345 0.15630096071899535
Ni 3.65229429276228 4.255489198600858 10.478332343228102 -0.5065397186731534 -0.39544595061841575 -0.3699303228458145
Ni 0.037454585310143555 7.657868187821348 10.802046512701287 0.32498281160084674 -0.5002070915869062 -0.42076360344759794
Ni 3.899832346430761 3.6546439001952025 6.791088791669448 -0.3994964665387055 -0.41015343203191945 1.6905018712073723
Ni 0.7117817829974212 6.022587485241278 1.0093028973742597 0.38096344073152455 -0.6474166315275948 0.4560512230052985
Ni 6.4765408554286985 3.8526190582492124 10.460584975084759 0.05558467924383976 -0.14255430055686416 -1.1255903974635453
Ni 8.84344324188685 3.312098778915492 9.51443215419002 -1.9409250051237734 -0.10438473146567828 -0.3242037673429771
Ni 6.146545402084832 2.5375115285287126 7.165482611348754 0.7082767002377608 0.7288457826383641 0.8779445691819655
Ni 8.013294686321553 2.467272087504524 12.077724865453309 -0.22801802674832342 0.1786911554887374 -0.5521449181067781
Ni 7.49774474480438 9.12078906043966 3.345066996150773 1.277721028854935 1.1473696981221657 -0.7922831251574033
Ni 8.08244685802384 4.995311473127181 5.087207844780158 0.020334340681977883 1.7307530054179354 2.3240769688661844
Ni 1.8944470095048183 8.747855683027487 4.859930778500906 -0.06391402504514153 1.3419610697809277 0.6806620238442858
Ni 5.587099265232591 9.148671068643676 1.303868113459014 -0.5758607736664793 0.4997190962068942 1.302576140225402
Ni 3.035711231629441 7.16104139259319 3.7623452978469714 -0.6875950035186932 -1.0956511867019516 -0.7667150468803118
Ni 3.193789134057748 7.236671109492907 0.5917748922998957 0.03146053250212646 -0.07393772782973072 0.005118295063171831
Ni 6.247044101186344 0.7586218982337406 5.081678435288013 -0.5025154280051088 0.3076049824440315 1.7797019245128125
P 2.6646483260168083 9.066315024583044 13.319311796475645 0.20785620708846783 2.1603079819049182 -1.0881937019826422
Ni 8.953810292206636 2.0051826256964356 7.055425156361305 0.6442832281049354 1.8492811182635314 0.06803138964762477
P 3.311324790584647 5.327453822674462 1.4258035250808954 -1.9135851796582397 -0.35699330306917226 -1.6450702212371346
Ni 4.315021801048357 5.771363772854488 12.760930814992994 -0.5116670125973898 -1.0881283959623453 -0.7888689572695317
P 5.60999642002009 8.28982044580954 3.760835099187144 -1.772143909659896 0.5366321671831596 -1.0939198058331419
P 4.5792466745639855 2.91523626227469 4.553181696108099 0.18414009441845058 -0.08554497305135589 0.7007274271355932
P 7.748258967887896 0.5599906929278716 10.653378096980827 0.4442629721211187 -0.7949431884880697 0.5110710308846037
Ni 3.203381060872149 1.5746976873978533 9.800142575204033 -0.09448315608125019 -0.5842011752113745 1.638136727342095
Ni 7.733829614005712 5.818383563953325 9.395014968887423 0.09711056640176824 -0.7260067705276722 0.5518577258836624
Ni 5.943115469127723 4.545596610465817 5.76817475664847 -0.8733417803026314 0.018808133845438578 0.6359415410084596
Ni 9.020585214035615 7.713669060816558 5.45240410312792 -0.5905047488318992 0.7367997473781182 -0.22555696680234055
Ni 4.24848644703607 8.32712852618563 5.645292130735983 0.14570287348817487 -1.1769073025699668 0.5117400319271702
Ni 4.15609619711484 4.6175498827940205 3.106313710037383 0.49624862115979046 -1.8961487293493473 -0.9127948440919311
Ni 5.117150136207706 6.264412767896378 4.346053204627166 -0.30904582865561614 -0.27620564219714366 0.6603004294687982
Ni 3.1408538607160232 8.96527269082058 2.12957545026875 -0.2898610281970492 0.4076553482004141 0.4750969267828398
Ni 0.4193008069178712 7.329899846772553 3.1946322284895614 0.7052440840590241 0.01701427516980941 -0.8246034345566636
Ni 5.282470358017491 6.02934145484258 10.435258049787214 -0.4448759231147693 -0.7740018103497122 0.5116310171531316
Ni 1.8599031731674598 6.881336752460661 6.5722951903450655 0.26241810149474804 -1.1644068561101109 -1.9995369012297113
Ni 8.279942880444468 1.3512177710131397 0.9574392293048841 0.08942476772173633 -2.093148710449601 0.9485231507314763
Ni 7.648230190272969 7.879707986076414 1.3143418341217707 1.2936253587900173 0.47025656797140303 -0.6260083410551477
Ni 8.418136654087494 6.4088445189201435 7.262945249081057 0.4056172347244627 -1.208529814571254 -0.45036368570221796
Ni 1.996576612589182 4.136304209797516 13.031457243502253 0.9069586970261283 0.19378327393516948 -0.17916012470535597
Ni 0.9211437836616492 4.294603251748921 7.036706617145689 -0.7967115932424021 1.047818383489389 -1.5081366093011577
Ni 8.147941013448204 8.259082052098835 8.71965762958838 -0.4140303984888225 0.15442508385252113 0.07819676021640082
Ni 6.520529192231725 7.500020639062937 5.5708639385784355 2.003210750536873 0.33702817280115505 1.8504190885227163
Ni 2.0400765996120334 9.140009770655647 11.216843444665384 0.4427254524306698 -1.7489841837139815 -1.2453981483525132
Ni 7.250289618457062 6.793774715460416 3.2572202420145384 0.27885285001200366 -0.12256937279450503 2.7969650609231635
Ni 2.022846145103935 2.128873332282912 5.7727062740426325 -0.1751000957033694 -0.38268813673211516 1.8936200493902227
Ni 5.677351833097202 1.9783049594931614 2.823839297378045 0.5606622115491698 0.40160322846906316 -0.12345151828914223
Ni 7.460215524905191 2.7448482597272297 4.940926814494481 -0.07565419630020519 -0.13555601486216007 -0.27032398660538604
Ni 0.6622465298233378 0.5900500040197266 3.0695243861258947 0.5593329512147851 0.194482099774407 -2.214334058412386
Ni 4.563444412809233 7.995170459574263 9.546608876215544 -0.006543457545472602 0.6469368636776988 0.6306196145749139
P 2.5843838932788175 1.3749534131590546 7.884938857212375 -1.7475795900569708 0.4590231611494288 -1.441753039669601
Ni 6.49249975767898 4.353085441461702 3.3281019090703925 -0.2073332447054623 -0.20860516943935042 -0.1331381494492868
P 7.103001481926607 5.6446139695318145 1.6147801473741517 -0.09192747953893199 -1.0514996889957182 -3.067932080429187
Ni 2.0224222943513293 1.5656125386572197 1.0885427169885609 -0.6501373728928674 0.9141878677847158 -0.3056355174224865
P 3.9578446146569566 6.092642643329551 6.665373737031941 1.5943495549538156 0.7802269653238176 0.3665632061457945
P 0.8874310633652696 5.8280307756485 4.807484776354037 0.768316844149793 -0.24190198381926728 -0.2804281649189235
P 7.812140647623 4.123984895531565 7.24806993049396 0.10059801072973643 0.21756777794927695 0.05115209739378287
Ni 3.1207209499672564 8.511042896229288 7.69264422065796 1.9453403605826496 -0.3661919388493048 0.6830729472786237
Ni 2.7399002628978986 6.837514270299958 10.36309561632675 0.44418043970964144 -0.3586925451484661 0.39463836711545586
Ni 3.969104302041393 0.8070597465244473 4.042325440968694 2.226557854172088 -2.157742278060271 1.146669586731348
Ni 8.86584283274738 4.896535819476478 3.023726390892177 0.20739777939481058 0.4473161571251457 -3.166479379277482
Ni 8.464806307608091 4.891237685068908 11.4509168656212 0.4969294492768991 -0.22393588625914984 0.6566062684466627
Ni 9.10814725103586 1.0752725027732866 5.024040261421726 -0.45862926814511984 -1.1593602948251387 0.5924209920180056
Ni 5.958355667927934 7.552568918239238 13.219948280259372 -0.8202844954663356 -4.431608944620652 0.5115379432186932
Ni 8.313758799184962 6.723065352949644 12.889801714908055 -0.0851482518335695 0.2320094072959037 -0.2581089325964329
Ni 6.204953878623246 6.910545597803266 8.018893201914665 -0.4060800332934942 2.515679175989635 -0.5979097830467186
Ni 1.0177577984740624 9.116421554858464 7.551460456379706 -2.019995426194379 0.679386756676288 -1.7291131558216672
Ni 0.920090606682892 5.232990389724183 9.82614397604703 0.5072454864909264 0.08615998092753549 0.8367097309018945
Ni 1.7735850459846447 3.2743207770528167 8.810781855739869 1.3499672279148558 -1.6274486515006292 0.7066386504137055
Ni 7.604481421286631 1.3738292872499704 8.662734473513444 -1.4384877386547679 0.10873015291856758 1.35866167036506
Ni 1.161535345075327 7.105553800589036 8.64787297614654 -0.48486223369971976 0.5003878401391446 1.1194079228019174
Ni 6.905284319982879 3.2646459229172535 1.0733550388250859 0.2172834139396387 2.063738632718601 0.5985255622538467
Ni 0.932969219659346 8.477374403837528 0.8165429464066584 -1.4721527350073806 -0.2927257513393539 1.1505221277082185
Ni 0.5576622780325795 0.9853516441933238 9.574848393315232 0.4159016473696063 0.02474429682421545 0.8384791640974915
Ni 6.838002620080133 7.521830524528535 10.92855674820727 0.20262606903778008 1.5584343291144451 -0.01259146351176541
Ni 2.9120481674833525 5.255408408878301 8.37416398133402 0.1622422659040948 1.242900064521008 0.02270515490699961
Ni 5.386194008497524 1.0162006076655765 10.703909399423532 1.439280409759392 -1.0596066343735688 0.20327270148284346
Ni 1.58340505611986 6.83748662785957 12.422207721804172 -0.2881142207092715 -0.24485618135158474 -0.20018969168214557
Ni 0.05336833824112561 3.272662230629577 0.47002837068732783 0.8157979204498917 1.3650706592151973 0.33532713094964833
Ni 2.527062686062304 2.202715504704248 3.605154717755098 -1.4814583286790226 1.2797342026302216 -1.4185969132681115
Ni 0.616419049319874 3.494161105453199 4.500829678258547 0.7008145875327607 -0.7623709109790032 0.29891053999382716
Ni 4.941565354867428 6.74117115140334 2.013151941260101 1.2866635827602033 0.4478170080209642 0.09607441182777003
P 8.22256638834718 2.642248735156281 2.8178924870360516 0.3816478683930588 -0.3508277976884087 0.3369602956776971
Ni 4.361350531137511 8.413879718267845 11.990903645855445 -1.3754412038162442 -0.20095562331389263 -0.49545774982737906
P 4.984484850642145 2.571788154608994 9.343310705557615 1.1550446981689204 1.826374388868687 -1.0089826415691139
Ni 4.226307995698641 3.489342106679009 0.8698753494752806 -0.007256424452097181 -1.1239086388857484 -0.5926811876579277
P 7.6862201175119464 9.19380195964938 6.671618164315437 0.26547128649877505 0.19651070016866157 0.3441958941941879
P 5.7628499012151915 1.7854436529108064 0.22671316049535073 -0.46795620197300053 -0.8349374694928201 -0.3902854894633988
P 1.0235995675425835 3.3867057255208777 11.222385753963042 -0.03595533504868646 0.04554117896490866 0.2144593142272823
Ni 5.709886985433081 0.10474273511564562 8.104366391836306 0.11170980437218181 0.4709589933550663 -1.1485966285507314
