# total energy = -340861.17382691335 ev
CRYSTAL
PRIMVEC
9.33454560482273 0.00000000000000 0.00000000000000

0.00000000000000 9.33454560482273 0.00000000000000

0.00000000000000 0.00000000000000 13.66205104298668

PRIMCOORD
 96 1
Ni 0.22220232676344148 8.739300411706722 11.388972823294523 0.03622787198378277 0.07453756619725872 0.2287803588356447
Ni 4.480199230855543 5.761589660489041 8.461728360075812 0.2663074092468252 0.5283660705196255 0.0766247877435906
Ni 0.27029577323952364 0.040763027719499106 4.570707919644166 -2.4624874224580044 0.6848063850299625 0.489239536831809
Ni 6.564761978167225 8.389040252527725 8.89440509035582 -1.1354639478235153 -1.0248237223664287 -0.8997318402603859
Ni 0.7626099826917379 1.9482037033843091 8.390357356929297 -0.7912158602351534 0.2825403261659199 0.6666428267470583
Ni 1.1997878309195675 3.191611866469307 3.356492614854517 1.0320012139514743 2.6495500898398885 0.819137526346086
Ni 1.5301000658876673 8.83425141080511 0.5306763920116558 0.6939829093229081 -0.21647891576047235 0.20936698730603945
Ni 5.4639296664613815 8.456734378113795 2.7330933798086487 0.9092230675802729 -0.9275069534911252 -1.1109878170590222
Ni 5.125879093088586 6.9881022958146914 12.797366281676833 -0.4918692611451722 -0.49186334760790124 2.0570002855535026
Ni 2.178141568188729 6.581228116823295 5.055095232868072 0.14754121224849429 0.41689743562397236 -2.6596776651921936
Ni 8.888214419632062 5.096297917691143 2.2178703282420758 -0.33189445111901555 0.13352407203379585 0.2902672624965324
Ni 3.563024106257521 0.31552351417852315 1.745750475007857 1.2497245436420088 -0.8678514466120215 -0.446256862622696
Ni 8.728472338667583 1.3599126282587068 0.9649586641560879 0.1367081261887323 0.14457467342100264 1.1165293157025415
Ni 7.0018987543938715 5.461708044579213 8.783838329716763 -0.8488345391898865 0.7091609026149271 -1.5937715709631581
Ni 6.9730736772000235 8.784563623919471 4.75913412616207 -1.2823829531069786 -0.0262915867066773 0.1531539304495814
Ni 3.698477699249724 3.0927310236213703 6.818101549100199 0.2522342189832108 -0.4969304777181635 0.06063021208754719
Ni 0.5959659386193786 9.011197059537809 8.897424815897338 0.31109165544105133 -0.0025024547068795613 -1.0087589555940821
Ni 3.3351865142408648 8.783060762058005 4.891533455793578 0.034346595800669885 -0.25700361534739613 0.61420003556631
Ni -0.08554551082749264 6.244801754406372 8.663939823718028 0.1923830511535332 -0.3832668920537206 0.6726355539953836
Ni 4.8568388162488585 8.421907188019803 11.249538046551292 -0.4667295286547511 1.9252261063312779 -0.6815480259936649
Ni 2.5912978964519704 7.678065242959526 11.935003609566593 -0.4555871388846863 0.09306647823938166 -0.21389521419369617
Ni 2.1142466027120816 2.094634722147226 10.796449465137934 -0.08900079281044028 0.1369680647183383 -0.8241277804718259
Ni 7.789351697073856 8.702447625190754 2.2341684450751256 -0.8845864999785154 0.6080895517931979 0.8268068699658857
Ni 0.8392671390814126 6.213138975312611 0.3754382293587144 0.8680805319036922 0.19154718551579913 1.0777293121162086
P 6.413663686542609 9.463642490750825 6.878856373395497 0.8605590267156663 -0.7157254432063223 -0.10624363905128797
P 1.1509308186033116 4.026204265052443 10.381150858631175 -2.958524956048253 -0.9482516422376445 1.7232353568846515
P 7.9989122485641015 5.616614830858973 6.383839812956358 -0.3496016385907914 0.39025180801198595 0.6347202670068488
P 5.871597281839265 6.930377465061209 10.142051137199239 -1.6433807493498538 -2.735431620295057 0.15545223956545487
P 8.330391301747627 1.0902189332183423 12.5195216613108 -3.4382300710270655 -0.36591194571504077 -0.7710270439921044
P 5.214977332018403 3.0180826614713707 0.8215809752992937 -2.457862264981167 -0.6572971238661003 1.433757165948318
P 5.451468047920647 8.655662882025092 0.5157728563096814 0.3988061253399003 -0.28752158143059514 1.0897327643349877
P 6.8602750266785035 6.151867017184238 3.2356382513737056 -0.3164709174750937 -0.5765680841461489 -0.3393143977321705
Ni 4.54835074918206 5.215565408398977 6.109273485048381 -0.5431342299677356 0.5181942721929462 -0.7142131203268538
Ni 8.860546826107917 2.203298168913282 10.555929025846899 0.38302957923193387 0.6676213886102438 1.2960149420681164
Ni 7.968453625868659 6.924188661246598 10.786435364485875 -0.6643643151255267 1.3260407990062453 -1.3318522634816998
Ni 2.2156384383596115 0.9045921569628842 6.993344576692952 -0.19095274646490984 -0.6901635355768178 0.25969710301915916
Ni 2.634955566800295 5.429326505464751 10.0890831909464 0.5863475321304159 2.7715003409931556 0.3277081809518098
Ni 3.4469490301870884 7.906948304097202 9.397046107741827 -0.4352625683947213 -0.6302951413559598 -0.41597029582401257
Ni 5.410106675820278 1.3565055190696673 8.615358180500612 0.8583828449999539 0.3460632864202298 1.1755271343929883
Ni 6.224041724717538 2.9451798593716463 11.315157102623052 0.20903891454265935 -0.40675623342491235 -1.460028440940021
Ni 5.85291885584675 3.6476604323315547 7.332231525362563 1.2744315594703859 -0.039083853375339137 -0.5170655579051417
Ni 0.24582246126192336 2.2697134617352464 5.344103036464715 -0.35656829971661175 0.5277598043941943 0.4287710471331067
Ni 0.7642033896467216 4.01443340289524 13.229169298477132 0.35130910820020145 -1.7932727212187118 0.20273765491497986
Ni 7.1313222308487605 1.7612514216361288 4.85073869061862 0.16231939899893336 0.6228386850779144 -1.6425587676691904
Ni 7.295162177385811 6.514252751257927 0.8802401940796881 -0.8726606950752068 0.14956544176737468 0.13837857191261976
Ni 3.510143904734481 3.886755486490626 4.1479631460138515 -0.7461361942876956 4.066568859987603 2.4515466071757843
Ni 2.633415366755935 1.8513577915040729 4.8385655095407385 -0.13682793959604822 -0.9929682684187287 -0.18892337473970688
Ni 4.907357377703879 0.9055293453535133 3.989291737443845 0.5320887707868512 -0.15166063373350655 1.6072302675712256
Ni 3.3362786560905024 7.466451091410132 2.7576852405169365 -0.35878150531784664 0.026207511633303253 -0.4534178991475094
Ni 4.898004162889037 4.874154398565759 13.518995741733717 -0.42428164390318546 -0.6609573463265069 -0.11628688221990295
Ni 0.8694671948603164 1.5493478991693104 12.702551566946008 3.571496261413785 0.7081273191440901 0.8244993048786317
Ni 0.17602152870608317 5.260380562417002 4.651149300870105 1.2611911495207118 -0.7544285162034748 -1.3878987128533067
Ni 1.972818900456905 4.018055206635918 8.488601583758896 1.211416906311062 -0.44314222825311417 -1.37696895331468
Ni 3.9657444124020054 2.459895496303721 2.745184416884164 0.8498465253941687 -0.5530157507475056 -3.6958576931117055
Ni 7.8182141124505975 0.8244980208378552 9.107560375404146 1.383130602040702 1.444940436258647 -0.8495562478472595
Ni 8.607179251537772 7.324463316411552 5.023072140309389 0.39050120501863067 -1.1702746277447975 -0.43810260894667774
P 2.7991502260748353 0.38992357741228073 12.682400149638342 1.2452446534937844 1.6635196861915738 -0.8078724949552281
P 8.188403526749045 4.902074024824437 13.384205834942449 -1.016339339044501 0.051128186134382914 -0.6517790222613485
P 1.255393719793839 7.333592502129034 9.918731465312707 0.856915516425808 -0.9297127028931924 1.8207596137850706
P 3.012519272220227 6.789015104626096 0.5652655511897007 1.0513425945925636 0.48026921501239866 0.21256492541804684
P 7.164198500886562 3.221314390961154 9.014071166166042 0.1434081639167272 -0.7175648104079061 0.6275363476638999
P 1.840735078470848 9.253456524697112 3.3880247103081493 3.3305694970235935 0.14804257736494503 -2.6537155340714875
P 9.047051049661373 7.8634119828432825 0.8164703115157343 -1.7854362558934285 1.0674790951431101 -0.11109376805473771
P 4.184256793240989 4.457618964750648 11.165379649218297 1.3212168952550407 -0.7159576138217864 1.6034227208996772
Ni 6.26302278765844 1.3629276865273638 2.028486397332951 -0.3991879341593512 -0.7940160486881099 -0.666637941651052
Ni 5.169788796171442 7.029099620631849 4.575912862339531 -0.2785566589278235 -0.5461940998399819 -0.2582192329220521
Ni 7.019699733088388 2.923747742390728 13.565665669986982 2.425262219557959 -0.3072283158309031 -1.8279075376837617
Ni 0.36598046763176934 5.972326364740434 11.738503020997953 1.3866111043901346 -0.45860561399603594 -0.4231639853589745
Ni 1.9030338366287944 5.737002467053615 2.9192932971715235 0.12717730388016163 -0.5262533950519969 -0.022952495031115308
Ni 7.771102660184616 1.970158554925737 7.014070068562607 0.1159634374422132 -0.18511608517847472 1.1630986788216486
Ni 4.465534659524088 0.8506328819542199 6.664484797039412 -0.22087704482816797 -0.29193050913156815 -2.2054886922066146
Ni 8.24198381920134 4.580853637390925 10.469830909912583 1.293266689899018 -1.5130253048520266 0.3659530833656214
Ni 4.982304445317028 4.891544657248446 2.3173159111062778 0.024280726924235604 0.8120849903746789 0.6183479962964125
Ni 3.159594374638058 2.965687856325948 13.244033629087069 0.30876043620471344 -0.5886872360071861 0.014867404030135685
Ni 1.938617124926381 1.8102204485010656 1.6972089703370516 -1.6262003809158252 0.03378583820119343 -0.9483573145775731
Ni 7.162368929924776 8.477727771445712 12.472496086865474 -0.17515151776659513 0.6216459503213939 0.7951943852669272
Ni 6.3436265899799675 5.332349909944387 11.623195244585984 -0.2996376479678388 0.13139005640992857 0.27649514841310446
Ni 9.290019940295654 3.8653233695097087 7.133544786185501 -3.5329929631322634 -0.2373364759357719 1.2500222773880858
Ni 6.096933215602052 6.946796930988663 6.877258299167651 -1.0648246882393984 -0.5138581067114376 -0.5240162781913621
Ni 8.1247885976441 7.866977779309619 7.201431203413473 1.3829205429124247 1.0438151758672667 0.52522778200096
Ni 6.957354302201825 3.560979840744097 2.1115657211803223 0.9488543088186498 0.681360335462891 1.583321836384744
Ni 7.606599960901204 4.173475392930466 4.571595634942461 -1.6510256674896209 -0.29170990848032985 -0.037799844456592964
Ni 2.578052176070471 5.429877243662432 12.564278007690767 1.7718302350742197 -1.117807925304649 -0.003165285101859065
Ni 0.9944184904591264 5.755830245777706 6.6617255053235755 0.8025212579456437 1.3873932339717976 1.7386856300014506
Ni 4.391950435586555 3.427701196905445 9.240956634518911 -0.45032280516195344 0.22939408116024362 0.9874329404227963
Ni 4.391166333745789 1.4483201108049926 10.93673181863285 -0.9129493673919244 -0.3265123608714957 -1.099248931355539
Ni 5.258606998729557 1.1451994075291463 13.053844126882016 -0.1471223795435208 0.32436677528340263 0.8286161552604826
Ni 0.40928622560632155 7.641007096437643 2.9856087103542475 0.9289686256383162 -1.1453097302693438 -0.6161065085604035
P 1.8182294887317396 3.744328987843046 6.367253258660456 0.1773510965210752 -0.3828735132700439 -2.655453342698201
P 3.439826771800137 7.223920924424851 6.464746054559323 2.305693067042358 -0.3279840603210158 1.888162111599445
P 0.0942229045319618 0.3116076722475585 6.666971520020125 -0.10073016543222651 0.42366123671036715 1.635165303418597
P 2.779725036424448 0.5880175729359067 9.18884933338177 0.07188315929354717 1.3125455927332879 -0.488487746267449
P 8.939069024733126 2.0263338510891358 3.1147838878928944 -2.6707560344935426 -1.2366291439106316 -0.03308829791353656
P 1.803518244671667 4.216890365089982 1.5763686086748254 0.012650855994791115 -1.8312409729323689 -1.9747776920071602
P 5.197979124256098 2.833473350699763 4.948285626882683 0.14000376622086855 0.5336126636305455 1.1640756980229372
P 6.5272651079963415 0.3401293767053958 10.66070370086459 -1.1212395766940175 1.16276983472732 1.0466691003762942
