# total energy = -340873.17121585354 ev
CRYSTAL
PRIMVEC
9.22414532399911 0.00000000000000 0.00000000000000
0.00000000000000 9.22414532399911 0.00000000000000
0.00000000000000 0.00000000000000 13.50046907257337
PRIMCOORD
 96 1
Ni 4.580858028057832 7.440730413834984 9.207049961890943 1.5281295074833166 1.743441399518881 -1.2771157911707682
Ni 3.9222540700634676 3.011056123473618 0.6059820551993187 0.5234773749687566 -0.8642729852321437 1.481158280940101
Ni 1.5317523061706744 1.6615913721752773 2.3841832245198784 -0.38741356723224246 1.3355577373577452 -0.41306443503112733
Ni 7.405558748683269 6.7252134807590345 12.136462254935934 -1.18035720879178 -0.7827906122859358 0.025406355888246565
Ni 4.772563435046584 2.1794902212726384 7.341541337068808 0.10277702065892623 -0.34846161144907734 0.3390793989032289
Ni 5.416952985488156 4.37117476232775 2.3986688219377266 0.13612679976396555 -0.04215066522612096 0.35674030651810174
Ni 0.40588544344043437 6.484288035677034 13.27266200497353 -0.13423729605073653 0.6805717781233247 0.6477439329600264
Ni 1.9220812289506395 5.662121537302332 4.51839119522963 -1.5069952966078626 -0.14096510169287335 -0.28373048981927906
Ni 8.038547255818385 6.850163749876565 1.5879928410766608 -0.4234802310478126 -0.6935723041480507 0.9648280585390867
Ni 0.6939997698712798 1.2246528443568594 8.035127865240954 -1.0247769282888932 -1.9797826014209194 0.7209311557769778
Ni 5.627733924481563 9.265376998411751 8.007182395337036 0.9166268162435117 0.3645939982345657 -0.15351954131911627
Ni 8.274528559142892 1.7284664239324081 1.68084861983781 0.898402322815685 1.9169576956748986 0.6230199478507851
Ni 0.691091396930725 0.4120453275181464 0.33791640807800755 0.5361513708919992 -0.10911993215781851 2.10044087323564
Ni 0.4387999602935337 3.832715293869472 4.201426510263505 -0.07222717289652723 -0.5941811692422219 -0.5147703341130618
Ni 3.0927820487933664 1.8258457234358607 12.116913524289192 0.7273247180081475 -0.06969335073107998 -0.385681157922168
Ni 7.020349226417125 9.14805509726707 1.7365246370655159 -0.3416175919440504 -1.2195225661373321 -0.5674982606343968
Ni 4.702764329302279 6.605853043553894 11.292156885978848 0.4851669094243322 1.1964114340411651 2.341400033525664
Ni 8.694540780757952 3.2048185148129686 9.941813073655341 0.3247763520169955 -0.4881205927360174 0.09683725813572354
Ni 4.3142802355363035 1.2100786951463398 9.854370023221238 -0.47104743930381454 0.3579548956514932 0.1345939080592069
Ni 9.141948713230763 6.559031283178832 10.390109291298387 -0.1944731009133425 0.7220758109043822 -0.9617219088099372
Ni 6.7174467506101365 3.946255295535475 11.529332716089915 0.769390536829946 1.403643120171757 0.5044599533259893
Ni 4.301080483941207 4.281303916911236 12.234759356873848 -0.26148479104720124 0.3598490273504125 -0.8363754874909274
Ni 7.393447446206426 2.9906892111591703 5.9580136628561595 -0.02293655419151534 -0.3536624389237264 -0.9724313248076414
Ni 8.121131026629639 6.320476443379809 3.928163979809784 -0.6386813085371259 -0.4184681225452019 0.18672225332333003
P 5.786223185073428 4.133173371232923 7.451192439173321 -0.20165470626344625 0.31744922222796296 0.05213631568392311
P 0.7201954194554283 8.56816076915458 9.951883995242712 -0.8939951948869248 0.4891973707399639 0.5143530440699852
P 6.618471674009584 0.7557775590627568 5.8612689845335195 -1.4648598008903935 1.2511785024797162 -0.2572869509157698
P 8.863416428698581 1.4307202452195218 3.7109953203554378 0.4794778294593549 0.5755512128458604 1.574781917234533
P 1.8588035937707887 2.24618079012837 0.3702553382787421 0.22074514723599403 -0.643434249841079 -0.7699703205928159
P 3.597407353135071 1.7127300324430752 3.0789172363387265 0.28933240938708876 -0.7186295042269947 0.33673738103361356
P 6.5981970031458355 6.7389390086231185 9.880048198266962 0.7750410502475039 0.2143580127627276 0.3273397418687975
P 1.4923744308670615 6.3059853114749185 6.613420532169279 0.8896914253052485 -0.6943233233814623 -0.3756471707249337
Ni 7.405586421118478 4.858670829274558 8.814617934035029 -0.20446800734252527 0.3729531688325384 -0.19093217763961956
Ni 2.8728692061807104 8.978856604248994 1.430685193468256 -2.1396016025955022 -0.1691806448951409 0.6959960830981949
Ni 2.893623532588096 4.109863956641162 2.7509361549155606 -0.9260979889587405 -0.5907235497109246 -1.8310782221022592
Ni 1.518404968254458 4.276535033910072 0.5737427457653398 -0.4786759023833498 1.2939377478241136 0.11017768399837155
Ni 3.575490784448872 4.294475996071123 7.886852500485044 1.3392840371693966 0.1322593463887593 0.9853112660941029
Ni 0.6388209340628446 5.290582198029854 8.441005929365332 0.03204494425068675 -0.008957980524236185 0.17954836128271015
Ni 1.7140398610430079 3.072996257618326 8.79586616952233 0.8529824999199891 1.7849428611967777 1.0657729110852805
Ni 6.426710922150412 9.077149094114372 11.995490568246408 0.8697234668237538 -1.394877972384617 -0.5262094291879389
Ni 2.3560495820565337 8.937338727289152 6.748533041910373 0.3586295531210146 -0.1029315439589195 -1.0218443280231304
Ni 6.21517360326127 6.607504165521415 7.518005689158483 -0.5985595008155756 -0.14424840042983544 -0.15256257672248563
Ni 1.613312196879164 4.7540505758911955 10.84963775039311 0.820011187200291 0.21635061771272418 -1.4135516375347204
Ni 5.773576882182528 1.619630736252079 3.045773038273385 0.5567603053916025 0.8236991775748395 -0.5989778192999168
Ni 6.155013729115062 2.7208921920082294 9.517114986344746 -0.752611003378762 0.561714306962768 0.19191768148134045
Ni 2.5944383872442978 8.694669918788932 9.082319227426078 0.7349950900692116 0.26910554081725263 0.17299847597933432
Ni 4.750720659520945 0.20501400349567425 0.23352583590688686 -0.21024938991099273 1.808069677022228 -0.7579817807723721
Ni 5.762673942709848 7.4991469245629725 0.6360601474434088 0.37302258861789306 -2.642844138574622 -0.836252845870134
Ni 8.026408280906331 4.498163567505738 0.7587292854851405 -0.2577278951079303 -0.4827809256906589 -0.768173119483077
Ni 0.9857198146099685 2.99427740359138 11.960389006597225 -1.381505407732453 -1.3004907184512828 1.1306534138087496
Ni 8.558945848229701 5.13016509111837 6.187979901180553 0.5200063857010205 -0.0069229523720784 -0.4933149924527633
Ni 7.439909464923759 1.6592207668923007 7.885083309460628 0.35345726489145585 0.921564362754445 0.49176281747429496
Ni 2.0133818168529953 8.77482773944679 11.978533822364321 0.34059017912080053 -0.7299382443715945 -0.23749845543493292
Ni 5.565387927953777 1.9093519087541098 12.273991490685354 -0.8027472579135208 1.6393592868952862 -0.6949301037275257
Ni 1.900764229693987 0.32622111454381914 4.168917855793483 0.5359726792222897 1.027525694678624 1.9674047965818569
Ni 0.1306609373303357 8.743216594292074 2.831116113521586 0.3364753856214786 -0.8826833694185315 -1.4008994959883487
P 3.562613877931223 3.524370572471214 10.281322491586929 -0.2522054226278044 -0.76213668348101 -0.3158127150658045
P 8.198521603766512 8.266116138839099 0.014534485386718764 -0.29061564697488657 0.7273224040153022 -0.6566841728724496
P 0.14463551711130854 5.047987182690194 2.407619932313605 0.09945181294043517 0.5217382807904628 -0.24672563046015572
P 5.984385493611144 5.201218680592187 13.423327345717066 -0.16446858413145224 -0.05825991208315773 0.2173006403308193
P 7.676407320372183 7.02502586796759 6.029322761148415 -0.39585629868295696 1.6270763557628751 -0.9239590882388669
P 8.907240341925908 3.440873611298035 7.524081633516059 0.3491930902984631 -0.8926772474064497 1.1790739712039824
P 4.092956098727946 8.897186023799664 11.433317667642308 1.2200964363629312 0.5412246716498486 -0.774059660170841
P 2.0211762194371024 7.612769943534604 3.518978137263322 -0.49374822333543994 0.238220421202622 -0.27249811143856945
Ni 6.00308283566793 4.890540250491233 5.293196320742677 0.22461337194214867 0.666536125965865 0.4882625176305204
Ni 4.183260478962747 0.4306651867563456 5.032083834175094 0.8477395063534948 -0.26258085232485745 0.611258950660115
Ni 5.181580475738266 2.6488516190119276 5.068089362041134 -0.0621571902550349 0.16148559024372833 -0.3078464090308763
Ni 1.707472269753204 1.3903553863934248 10.247679267273305 -0.5644877559428472 -0.8755889244655952 0.950562292648692
Ni 9.074510988624366 0.3884103006054158 11.859635514827184 -1.5325374067430253 -0.2607214305186155 -2.8220256034362174
Ni 0.7353101035670468 2.1495670946657235 5.820632935842365 -2.0614089561441595 -2.14663151285909 -0.22304062813839004
Ni 8.348174133381365 9.136082156966276 6.7662461676881955 -0.5853561147514241 -0.7591943130232344 -0.9782828984924118
Ni 4.766235671528598 8.73137279202226 2.7057507578759084 -0.13140831124237368 0.6957518282978729 0.887229336918001
Ni 7.8910900727301785 2.2260168090054617 12.904733918495937 0.30181794344860924 0.2528811085385903 -0.6639603948188887
Ni 2.5722266459158605 2.835336159891088 4.693653641216691 1.4089563048545541 -1.0062968672068349 0.538716046295382
Ni 5.061528227652879 5.041456487980669 9.691217034882007 0.4241700580259856 -1.0931248207356723 -0.896992586952352
Ni 7.4591233591044634 4.0327039831310385 3.450233351300512 0.11339644804598535 -0.6040935432599274 -0.17668672346419895
Ni 3.8860216282287077 5.5162416830210885 1.0083245045183857 2.086087689837762 -0.2848250084350385 -2.3481255251749555
Ni 1.7133572743078316 4.0571940882917525 6.619414381635733 -0.188403754790811 1.14333486593116 -1.2697940606983744
Ni 0.4127103883776897 7.838678480442728 5.2229129473822 0.7209069874072617 -0.6601654465528308 -0.03551490507715819
Ni 0.5651449201456402 7.717482438368667 7.825249970049896 -0.03912524813623584 0.16005657110668564 1.8569859431069566
Ni 3.8276235657908604 6.508086329957503 3.259269565575385 1.032057006890074 -0.7392739199502235 0.34360325491551147
Ni 2.0421703736163064 6.3381499053338315 1.7413036666262562 -3.0129292418307467 1.1649696705921162 0.08275249790788329
Ni 5.504296415155505 7.3203922172524285 4.883483779512721 0.27281769956151725 0.11398548778023594 1.3676237646543543
Ni 7.716587696296881 9.086982032758936 9.394233692966404 0.47571939085818715 -2.2259803844020634 -0.3281511820264994
Ni 2.4674680303564487 6.398503486526508 12.265216561480312 0.06591819995936389 -1.0701417295769378 -0.7039937565916908
Ni 7.3379180928853325 8.710055792765607 4.061440884681957 -0.4259816573134277 0.9226964194763593 1.3539316118792424
Ni 2.8235753749269032 6.189060048568244 9.415739787196992 -1.6214404976333363 -0.9176426591025357 -0.0005170488457345933
Ni 3.6537576553673903 5.946474257373653 5.99296579335521 0.9724891746287702 0.6573711716371453 1.0180195549604016
P 5.923303204957941 6.996597052862006 2.8007400813917367 2.2878475542205052 -1.1812339549697788 -0.4070094870862991
P 4.02879294562138 4.442984731697304 4.423280112998878 1.0002385768278967 0.8031774034724039 0.7569944771584383
P 8.924895355589792 5.030876393585437 11.890699668179254 -0.470754333543428 -2.0312784553073664 0.3706186071620907
P 3.6289447051292267 7.547435324004155 -0.024742846735631412 -0.1751314631619371 -0.08141243894022109 1.1978677068717176
P 6.228567061902837 1.8611649749086958 0.8789733957879827 -0.530170470718216 0.5689205949032202 -0.2296221380106497
P 4.418974282080225 7.960953747489973 6.881836696803249 -1.180210913021903 -0.6482445267455288 -0.5431835951484322
P 2.622461339966803 1.8075634679072217 7.203350730117873 0.33975045682832455 0.8070083471827199 -1.1241025000641092
P 7.473872767071312 1.4349449036615587 10.675671296788378 -0.7189830309116715 1.6252056211027237 1.4005531683925234
