# total energy = -340871.1694323047 ev
CRYSTAL
PRIMVEC
9.21182704585786 0.00000000000000 0.00000000000000

0.00000000000000 9.21182704585786 0.00000000000000

0.00000000000000 0.00000000000000 13.48244002736084

PRIMCOORD
 96 1
Ni 1.9163271346213537 3.568597251644579 6.564653669402084 1.0446091325234719 0.9052797666618086 1.221502572681838
Ni 2.225816882405911 8.093547946617347 5.64161940390932 -3.33184682107412 -0.31048770330846526 1.4424760338785545
Ni 6.826276922337752 6.873275663094272 2.896553948499248 -0.24647597634319487 -0.13038372663260125 -2.8435873887673933
Ni 4.476662298452642 1.1556421061126962 4.15345429807408 -1.6161010876982942 -0.019264504656566823 -0.47393427393330634
Ni 4.974229915705226 1.0083449942552367 7.773030720871278 -0.8123271882924719 -0.6777096260841813 -3.5772568180466457
Ni 8.279203105615172 2.99650595490939 1.1585383044846778 -0.6460218080625971 0.3850805482236916 1.6036469210953415
Ni 6.9308864284198854 8.779340822568084 10.475814812071558 1.5749503244915974 -0.1236086126922968 -0.44530452601175563
Ni 5.980622002661289 2.7823586153627757 11.649852936469394 0.4301239616165754 2.3457691091276374 1.0895628144160268
Ni 8.657367022811698 6.768058176437868 6.441801982543757 -0.042033680032282444 0.6560233993599992 -0.4918952292871013
Ni 3.509669195074712 2.1465214765979677 12.788794921626092 0.4622349832185072 0.3237381405604683 -0.14033003921203574
Ni 4.649411687987535 4.5723086969777205 8.183355889264046 -0.5304160110701187 0.8578930498477289 -0.20907490998691733
Ni 8.93681700313114 2.5436341216926035 6.63512690860428 -0.8950442049767294 -0.7501232039599017 0.2650555391175951
Ni 0.31988897915265496 0.6345244534339961 0.47027942247739 -0.7778970316390602 1.8359736025213476 0.3619035958865961
Ni 9.026226994856499 1.4763518590406168 9.587592040369247 -1.4841890973466245 0.21406542122297326 -0.15223218996626042
Ni 8.018913725212148 8.62155143989101 3.978613823836771 1.5005210017374286 0.03906302743973273 -0.9529894140329457
Ni 3.4081732864789966 6.208697624454838 6.711720485587471 2.0243115370712297 -0.3521935676876838 1.001551124991733
Ni 6.864883688803957 8.070527591236997 0.6175387658446297 -0.9520453049521216 0.5971294532372684 -1.4568148190987298
Ni 7.6155462496640265 9.007480927149812 6.346090180047812 0.19877584205375443 0.6173941170235754 0.06543714655788731
Ni 5.991814372324005 5.460089300989653 10.738709297117065 -0.8142580867665976 0.6362966103550332 -1.7818693644777766
Ni 8.358378757673638 6.997091828227237 12.594136123032927 -0.645105724006231 0.8677630006632733 -0.3395892486601119
Ni 5.606594195735184 1.7167436933765934 9.674607878287745 0.9373360237664051 0.23496874703454373 1.028667521592551
Ni 2.046775815110002 6.594415239695334 10.82035924587628 -0.8842388868311093 0.5554791246863336 -0.8159275040492205
Ni 7.8867055857888655 4.584956535287932 5.707197478305947 0.9246358025909173 -0.2462900855846339 -0.6655431659249764
Ni 2.2435772846361286 4.58625540287842 9.331560366351495 0.08351225889204326 0.04194112031847616 0.04344058768213809
P 0.4859782178512163 8.757398250933033 9.215651633414804 0.735289738491495 -2.489665268424377 2.768726892013077
P 4.265057423125707 3.0563551941675464 6.342247927054956 -0.20774307854937127 -0.4582783125636043 0.30624255487886615
P 6.950203629393313 3.6665558187172635 9.589843410859427 -1.5304224172825514 0.2771170982678195 -0.26757239200217786
P 6.552934383241667 7.402264821844405 8.89079287365883 -0.4614572245122182 0.09056788018724403 -0.13996339990123638
P 7.104077985645157 1.1737894050719955 7.9203803401419695 1.037008694468395 0.5036120035033972 -0.20600321304012909
P 4.313714292721147 1.4451421895613754 1.7285164081329307 2.1116801935948857 -1.5364585961743022 -0.2827043625476099
P 1.3230302124017455 2.733056917885533 13.209581961809763 0.18307385793746533 0.6133837103126016 1.3935816221706967
P -0.11526851096832874 5.2799428144677965 11.594008078357229 1.048096319741124 0.5346441902188535 2.1317473966584064
Ni 4.65614553343893 5.790830733393045 3.0724049601456107 0.118672351732944 -0.7652901415083272 -0.1873452316193096
Ni 1.8797561818962685 0.08920825271662437 2.270105503693484 1.342315624906869 -1.9843871900724666 -0.041369306975406174
Ni 6.875965516544077 5.4819766016634075 8.111278871001538 0.9082864146986164 -0.1363574277175329 0.36331693129435494
Ni 5.593808180021727 6.038343309909497 0.8871081406494815 -0.7994565029773909 0.7272110752484184 -0.9082558185709971
Ni 5.655905105039309 4.898471851420314 5.9174694022829275 -1.6325453492972466 1.5544861430999746 -1.1074240109671638
Ni 2.462726646180154 9.12398290173776 11.447332764814366 -0.24249410887731143 -1.7706549838191956 1.2399160421920195
Ni 5.628389378140109 3.686370458342366 1.3405013632678404 -1.5275132140555565 2.115541476322505 -2.8287179278547283
Ni 2.230072746425807 4.438110802947735 11.91904278400667 -0.47098573282794365 0.21206458874286058 -0.9104759661507674
Ni 1.0437184094855458 5.927746116353483 13.472220358067926 -0.38206490132581944 0.19251006364970072 0.19841048829453573
Ni 8.91223984900758 6.02211207094184 3.5739382688712804 -0.2321096803191938 -0.673906193177691 1.2440220939405928
Ni 1.6110103444147474 6.5755862655467014 2.4483432996852046 3.0118347232149874 -0.6239740842339383 -0.49033739788167807
Ni 0.9745375895950192 4.259557962476619 1.8997974324626905 -0.4479681888868479 -0.08551514825468498 0.1616326573445539
Ni 1.5307016376496858 2.2775136548727066 11.122015256079623 0.2179670702702246 -0.4839847161907729 -0.8294257956459716
Ni 6.1053317150018955 2.2191106724351646 2.7289134381536075 2.259277455892296 -3.570968671045089 2.3923089045603896
Ni 2.6757040837126405 1.2641205794856445 6.271114199865256 0.9981588114807325 -0.5329786295909724 0.27301670294620073
Ni 8.577942651427394 6.789936265284739 10.099870945153812 0.014903913695025946 0.6492603696045528 -1.0993579461295775
Ni 5.881760676554081 7.472283917981275 6.695824557118351 1.5984124121692793 -1.5170385397764776 0.44227242405365125
Ni 6.432885855303805 1.5741354014025266 0.4448142482423205 -0.04525527229337367 -1.063358645216833 -0.3261583199661867
Ni 4.033315494232766 8.90535861432606 0.25213415006360024 0.10058644076551064 1.6562414073626055 0.6528925670405014
Ni 2.7320896760628286 0.3324096942518832 8.88541316675922 -2.0152964780568134 0.0205647115252291 0.7224769029975429
Ni 3.196163090769214 6.966655952206159 12.826249288549247 0.5474763089865152 -1.1145608791222612 -0.1422683938853292
Ni 0.10795524160599998 9.18339918513242 11.713746167729138 -1.1978016295204728 -0.32259939897033474 -1.694995645312668
Ni 6.925958101037538 4.981940214806207 12.764783373673144 1.2604110768215777 -0.4526781927680075 0.9502113370671764
Ni 6.444640146406377 3.3045678695270992 7.292854111590908 0.5500954917769172 -1.8835045582227754 1.4691679413474439
P 1.3202021815486973 8.13727648883044 13.33537314262642 0.3632194864845422 -1.0146544951429106 -0.63906954511448
P 3.800753712747249 6.205132647451158 9.551756191429417 -0.2577955151210722 -0.4140411971220998 -0.5346763290083695
P 3.580480508323511 1.3570402772533865 10.600743765891977 1.8729982593748131 2.0008926439266577 -0.2941678831025192
P 6.94229988192779 6.632681168566873 4.8604463512304195 0.5682302537044149 -0.9459366209512223 2.7446909341097956
P 0.8355882352588374 3.0145611355998607 8.518866284444712 2.078980903589652 0.024199222954022843 -1.8661436983468247
P 1.4245169091705778 5.814624882231557 6.209270600086954 -1.454566132273869 -0.3998790466891049 -0.20095613753452488
P 8.271059850650694 2.6285303182453457 4.221136353730761 -1.0362013680757511 0.376553484589287 0.9078120461653592
P 7.750103404942445 0.32665506599814 1.8571116690527407 -0.2143145611193019 0.6744168142655224 0.9791174785785653
Ni 2.986446639953271 5.279786213410788 4.687196759495786 -0.8790077203391572 0.02853821664900891 -0.0008579771249211031
Ni 5.856437364453009 8.81050443291291 4.590689976339845 0.6521603168601672 -2.092601836807196 1.4220866715889249
Ni 9.033504338093985 4.021561203130195 10.015619576482871 -0.45049378352217895 -0.906032328557117 0.3679791126567146
Ni 0.40663859527423524 5.428483522954447 8.173513052239676 -0.7935067131518593 -0.5944616765971181 -1.1191698386491824
Ni 2.3334939268400476 1.9328623638761468 3.9311554129187942 -0.2215635293722313 0.7018520276583396 0.801350377565994
Ni 0.5538905691799686 0.08106499775214694 7.285532551584383 0.40722725952405997 0.6450669003484955 -0.42727826463766416
Ni 1.8432497119593634 7.366366332481771 8.07147825177131 -1.0918318129558617 -0.257585198882479 0.835835041606425
Ni 6.5226182609700665 1.8015201361798578 5.459875586605969 0.4364506751655516 0.6191792339484562 -0.6300773689181988
Ni 0.24361413137961244 1.5414242041413735 2.7899482395315918 -1.1688070420603354 0.5867247129641767 -0.017163913373796247
Ni 8.955397257953935 7.527702268508759 1.5861015645234045 -0.19390334445280155 0.39113858149231345 -0.4359750210807137
Ni 6.632718015874405 4.42523266896545 3.3531501233247885 2.1201188112805425 0.5081533430171764 0.5366995300859854
Ni 4.178549156868458 3.735137869860402 10.342365839567153 0.2774066044837803 -0.3584189797721053 1.9199031514564677
Ni 5.390613702638874 0.49568656220309726 11.942893124989169 -1.102495977537927 0.048561710958787335 0.44462935432160194
Ni 2.996229600102904 4.662345092931116 0.5759510521991208 1.344445012545046 -0.06945166703391911 1.5166181644096073
Ni 2.483020300803167 2.2660449304035044 1.6657691281374165 -1.7729255250209273 1.796202493270997 -1.253857591973776
Ni 4.714290584723751 3.4431045340189272 4.139823557835464 -1.5139352182608055 0.7153554614614132 0.9163319107109122
Ni 8.447392640843034 3.058335736947368 12.459931780724123 0.8707768477889327 0.07938409565628264 -1.7346194303518772
Ni 3.32100176868618 2.5108031706819727 8.436273044612694 -0.978928759606527 0.8853989685774816 -0.20008350512158443
Ni 5.359376397678984 8.576045015089518 2.373287176608769 -0.8960888441911599 1.403793786817008 -1.1532061022982851
Ni 0.49035659916865537 0.7152725643413715 5.146624649905127 0.3427270229581452 0.35086482157393123 -1.5585256032766708
Ni 4.07815866749869 8.050279995748397 8.053344770552336 1.261829297325343 -0.9659935396020976 0.9534324151076352
Ni 4.613439504009837 8.007371306127883 10.545330942460623 -0.4530625726906198 -1.1229416469867888 -0.2992347561024653
Ni 0.8360064521993208 3.816911257099844 4.5579271928481475 -0.4395809932644172 0.5255743667071012 -0.9250374089047101
Ni 3.579181640733023 7.722117874872216 3.721045617094952 -0.762000672123778 0.7390304364808498 0.17775810215150678
P 4.721871918248372 4.542701885376102 12.711729699106497 -0.19683414494635135 -1.1047834880205232 -0.6423335605777325
P 7.8019291429856015 5.248125164414285 1.4002999374781404 0.3311909972940877 -0.08494359202193114 0.7053584981497013
P 1.069981327928674 8.032759101017135 3.8941330806764474 -1.099784749254351 0.5924916973549409 -0.704605936254393
P 3.0218108433566973 4.277603931340207 2.853113736467589 -0.7120050569319415 -0.9736063189523492 -0.8149497135169836
P 3.6947992799402134 7.176206590138209 1.4930317139774714 0.05632798516776751 -0.18582699520257032 1.1633912703614029
P 5.847888789105684 7.202801134349122 12.229719015093744 0.3368469100282844 0.8122932497307429 0.4088033457619283
P 7.444243116949749 1.2108393727949913 11.921321789977497 0.4978581317387555 -0.6688868855862287 0.1605517655755493
P 4.156486831483929 8.367609008210296 5.907789614594384 1.5173964373365285 1.4695368946510885 -0.5348251958814079
