# total energy = -340884.61026801396 ev
CRYSTAL
PRIMVEC
9.15150878426726 0.00000000000000 0.00000000000000

0.00000000000000 9.15150878426726 0.00000000000000

0.00000000000000 0.00000000000000 13.39415815446289

PRIMCOORD
 96 1
Ni 6.661044517804788 1.986499672865429 11.122495569404553 0.2985341304910149 0.8956527850950059 1.7505666977097527
Ni 4.808669355256475 0.6654061916728644 5.71594351366816 -0.32405207225646127 -0.29213671160510335 0.8736899076706695
Ni 2.777757411064015 1.8429674116881878 4.669565509099869 0.7467473455091334 0.2535033155036215 0.03084886706005655
Ni 3.934563009531902 4.573384068667156 4.737017618525589 -0.5476254329698698 -0.19805027674163958 0.2921698788358839
Ni 4.103737797859018 3.1752257333956866 2.3174035821074055 1.645275909490037 -3.870317584127916 0.22846591291901944
Ni 5.454958045424669 5.01456914767083 2.787524816212859 1.707926494441723 -0.1591374017265259 -0.3996988123574987
Ni 5.828696505907795 3.1399192131443607 -0.034329139130838245 -1.2982307187725126 -1.5284051297422065 0.2391447327891043
Ni 6.136406831706287 8.025470392307364 12.359003486735283 -0.8686271484357814 0.9704595457932513 -0.32269658666983136
Ni 2.1520413122708812 6.476220649739527 0.40703073368745457 -0.19418128070453652 0.01286528599844236 1.086997881902328
Ni 0.6209353506906732 0.31161344422441023 0.32138634027842555 0.35904015829587194 1.1577474418120643 -1.179564794797472
Ni 8.032873962779973 -0.0009993447411728344 7.098716332649705 0.08399022696972631 0.9116651013628622 -0.1659449115666626
Ni 9.07037134338458 2.6933988046159274 1.0926004443001185 -0.21422714361181816 -0.559508557560701 0.8273665991240976
Ni 6.987277497047729 0.7827212109589706 4.543070611518247 0.32279017482490213 0.4122609652932255 0.915139690175024
Ni 0.5213788338793462 7.77865420485836 2.1559233822269754 1.200829360603203 -0.2889673127381862 0.8347166117312657
Ni 7.838221374458121 4.08886659635347 3.612498542464824 0.8591297504683075 0.057065377554424306 -0.6071891514661156
Ni 7.78916013675274 4.017841737962971 12.663573929926667 0.4561746359570402 0.34835619621946456 -2.09108540016267
Ni 8.486047518074272 7.579599740890866 9.107491692644151 -0.21022676420317343 -0.17288946120529577 0.3506442209226929
Ni 7.304514543318391 0.9490755043297723 0.4169610356897132 -0.7598250046286978 0.8075989295788671 -2.310600017425672
Ni 2.2178132047141887 6.788506729847418 9.386358293577915 -0.5555760552755142 -0.3367672058302845 -0.5812492916719021
Ni 0.17309620977027085 5.100364540972069 1.4057970995155809 0.37455882275676133 0.1466976333012764 -0.48272616119332346
Ni 6.736279070159933 1.9209108105944974 6.991335275969305 0.1261861436114859 1.3193042516133602 0.48645914587319444
Ni 3.807274676153029 4.239610246322324 0.14502761768555292 -0.9680414232700619 0.49708294413562776 -0.10426208984488497
Ni 6.627815390009928 5.829199838881829 4.648080512315516 0.14495365402697616 -0.00010053013360627848 2.159541536052539
Ni 5.342394489413442 2.985697989900362 9.251103571946375 0.3108101196448905 -0.04248567996803651 -0.42476886795224916
P 0.4210709782104158 5.8411974666810735 12.25828015257506 0.14737049099858487 0.544104821411121 0.5455281841212088
P 4.589316845172485 6.213618109923093 12.65508132992842 -1.4560020933894473 0.14718485735034006 0.07901925611769617
P 2.4514329167348854 8.59182980619897 1.3956709552288802 0.4463892744355022 -1.5227505025595904 0.0717934277932183
P 6.5943025654478875 8.135608798534609 5.703621007312947 -0.8268243534673825 -0.23081230166400893 -0.04236483811945607
P 5.1213489502349745 1.0175379403070064 12.474501931560559 -0.26990412545914805 1.0074703186896456 1.3222623058004195
P 4.072869759287809 6.2624322568957655 8.276451431328786 1.0314705382589848 0.7975009219129168 -1.0752618244123224
P 5.00153739939766 1.6201373283290543 3.7105834966902482 -1.2428327016181822 -1.5249734783528381 -0.9976816147339979
P 0.43895119574982494 5.85745054598806 3.417398445371513 -0.6820825583408963 0.410412599230577 0.6943356646766364
Ni 0.5507222311146628 0.6884515206767237 5.008852200236666 0.6762327844283386 -2.2580752080540787 -0.5957197173739353
Ni 1.7433898464070374 7.272456808626738 4.495414130385852 0.7196188647234575 -0.21124774926852005 0.2668859074581146
Ni 6.334536993303282 5.909861235847922 9.137172780547502 -0.9346235099312484 -0.521882776788127 0.04091165061269728
Ni 8.843496293215937 2.870599466001729 10.173023804751587 -0.43503399732368303 -0.46172127680688224 0.18206752816013802
Ni 2.530749041934015 5.5156325475673045 6.694507009069425 -0.009057225106261823 0.8964626825908109 0.7722310916025346
Ni 0.7150879016625995 0.49052818317451335 9.055749978064325 0.70747914403713 -1.2005046302739326 0.4483574539054665
Ni 1.6706445043962053 1.473292221031808 11.372470857628768 -1.3426917772993652 -1.5332506307599658 -0.039402670167338595
Ni 4.354379315910681 6.7519556044239355 1.545123327331622 0.6726913469339834 1.1103000469633781 -0.33497309004433923
Ni 5.8281748699165234 7.807765153774759 7.87626053518302 -1.4703462779262613 1.4296655123774473 -0.022205332452445627
Ni 5.859994665384086 3.067064053030103 4.964263304793293 0.009594585666970572 0.9449395471452757 0.28820883730560687
Ni 0.553745889562314 7.7377378098237095 6.591023579909772 2.541032824263075 -0.12621545418752458 0.3538470441307067
Ni 5.157378439667187 4.8080104466359215 6.804138421719188 1.4034947675193505 1.0966973685782788 0.6196263487882038
Ni 1.9392138278320952 7.66954991910504 11.851673133736654 -0.961055478870532 1.2751144444700233 -0.5670223494392428
Ni 4.653679405288497 0.5128889793336865 10.351541368227632 0.05286136677540573 -0.7233297379161414 -0.47575487208181283
Ni 8.416303870890406 7.779148386323775 4.536173119472258 -0.2920091848883036 -0.6907284069413524 -0.6976660146014501
Ni 7.660270289365577 6.738411371668113 7.01969031027379 -0.08394291867155866 -2.4163029534821416 -0.8246731114523346
Ni 3.1405232127132012 5.043881429776842 2.4792049999403543 -3.0837621054829087 2.2816283127836705 0.28675076470284167
Ni 2.616288192993928 5.424922794137771 11.698055910061496 -0.04206196216705659 -1.0908640497259534 -1.342573763664262
Ni 1.2329369986676753 3.5913905878355643 3.653832246292491 0.27521113949435827 0.5263739797902613 -0.5689334504190267
Ni 1.744488027441293 1.1751635247571979 2.2155143457491464 -0.556745392993267 1.9866672443558946 2.2542936295244598
Ni 1.3483558253679662 3.6997993589338556 8.095616705870457 0.04227227840564978 1.3167280062457516 0.2880987940903038
Ni 3.8469281629982848 2.9286566366793894 7.0675746639707935 0.35833901846378935 -0.39319135025628416 -0.15234403295377633
Ni 4.161785817028059 7.318525503013771 5.752549548143355 0.5359096871948383 0.2715591445640678 1.698320595920843
Ni 8.647370312006458 7.5719216251596935 0.010440041032325728 0.34026030658520756 -1.8202073408260266 -1.1776866039381524
P 0.5476637969342603 6.02240648884191 7.926555396250215 0.556163552347868 0.28717653938635057 -0.5967664134708948
P 9.063114197049872 2.0904150532318897 8.034901021939037 -2.4808993493062883 -0.05556411041854947 -1.1594094028955195
P 1.758004805671259 3.4991250779408345 10.503604665739319 1.6452183167792245 0.9849243150683296 -0.0795699864148436
P 3.978801402195176 6.608011525358848 3.845784224420935 -0.9397731724529879 -0.9937686528328368 -1.6502224548620352
P 7.02811152850481 4.173609566163547 10.25220997852833 0.012187800315443526 -0.11167843691361412 0.5212004060091217
P 6.445855944142352 7.879851587165037 10.17698823828525 0.9087119322718092 0.754730620824926 -0.7867485684924191
P 2.575582282657511 8.948253612375328 6.002029739751292 -1.1474913113016947 0.5159797810401306 -2.0981327939277543
P 7.183009963386599 4.264218652998275 1.2712809046295805 0.08627002414283852 -0.6953368522476412 2.5840558647918206
Ni 2.936453722022606 1.5479685313612066 0.21301966611978082 0.47092042680764706 1.0239495472915914 -0.3995982822238925
Ni 1.811971251996316 1.6449196136687618 7.030874368956825 -0.09694138781375562 -1.245433886686455 -0.7723982133080182
Ni 7.14642223192864 0.6939964197488538 9.311002026158139 -0.12184483592365468 -0.6820625037362382 -0.9265103939058108
Ni 2.872539585828915 2.098816138143947 9.228789448481159 0.12055182814384402 -1.6821750965092321 -0.6410456950042444
Ni 6.683017289998523 2.2436662165622954 2.4680749351581714 -0.17733078480610107 1.383193336957837 -0.49870531023039916
Ni 4.308475348678786 7.165484824381599 10.62886685510999 0.23150649951755617 -0.05280480250585744 0.012477306531404317
Ni 7.553618607922096 6.379141446311308 11.356531675067405 0.8215080834607916 -1.1270163312767945 -0.36557076032553815
Ni 8.15296921038447 4.439287012875897 8.20637283892947 -1.0064519047274603 -0.8124524010164266 -0.8028483022677593
Ni 3.892585039497472 8.467845167431483 13.30917168119414 0.2989619620570529 -0.9178041243810644 -1.9035247100984443
Ni 0.36873350041950514 5.329975892217733 9.961503155743564 0.1259362323842089 -0.5421070742548019 1.7125038293997605
Ni 9.054493475930963 2.720331694481052 5.533019498792161 -1.177959655093881 0.4257227472250862 0.9800903840147959
Ni 3.704082264967454 2.490583070606107 11.393900945361409 1.7081504375270713 1.5524210330408297 0.9760902617164672
Ni 0.9114545675487522 3.704558143415631 12.585820882399627 2.0924624830158542 -0.17543433911433656 -0.48238497580382084
Ni 3.271060331651748 8.57513745447828 7.954106928097971 0.9046120511708228 0.35454432730804747 0.8551232004120756
Ni 5.756491102905472 7.738854293875203 3.589272928741174 0.30661793594041387 1.451572339752868 -0.3638059551156315
Ni 3.3665380210716767 8.863245248815305 3.5181501492084553 0.5855723445272882 -0.049614577703333905 -0.28339573218767966
Ni 3.429591915455201 4.466238205758259 9.218408892254857 -0.19830712994745203 0.26392965304326804 0.203867654754365
Ni 4.9965040696573215 4.69023053071198 11.055242962866725 0.7942325355742903 -0.09572397046688676 0.9017658399712791
Ni 8.006966041880153 0.3365833354908029 2.526580529758152 -0.8961698339407405 -3.9763403654176486 -1.0294023428760464
Ni 5.006506668577669 0.6407126759667594 1.5258493350295699 0.22223150197353342 0.10835477185701983 0.5948730531029238
Ni 6.491988699089716 5.968705436266798 0.2062329073280796 -0.08692694100054707 0.05381678871013957 0.20682108095573415
Ni 8.929364898586126 8.853892407006892 11.171651982799569 -0.5826063199204289 0.30591576766706663 0.7144422056185245
Ni 0.25769550089503307 5.045126034949 5.628841284936156 -0.06829467061134044 1.6357103772887893 0.05736979616872055
Ni 7.55525672796486 6.627513390225509 2.4068769667225394 0.10187456344931488 -1.0587512283518088 0.10455005339894896
P 9.024668709342299 1.8166934304436162 3.2106063808668246 0.6433036378004857 3.0127991440107857 2.550939798964142
P 2.097809472195879 3.3794141936983264 1.5787020427557188 -0.7571474577965348 -0.6254136448939422 -1.733788964030782
P 5.011375271162869 1.0646499066765829 8.215507874832756 0.24434093227806306 0.49956662978942995 -1.0852395044503245
P 8.744110909615781 1.7745049757109534 12.17993774789297 -0.2332869884567466 -0.3824814200379477 0.9964778242338836
P 6.866688067977816 8.086968530225693 0.9946866232858658 -1.073919708562131 0.04782560412371118 1.8059107216976964
P 2.0271872801846085 3.602335792143648 5.874128255294959 0.5244659641342709 -0.5550350951703796 -0.744995395815033
P 7.392533753213998 4.21579802089621 6.129340951901713 -1.138492450237194 0.26322208545328213 -0.5234156684928857
P 2.5507267852488535 8.802708019301951 10.119540558081601 -0.18954429615315743 1.2533965931769575 0.4446794908332471
