# total energy = -381172.6579264307 ev
CRYSTAL
PRIMVEC
9.19105957409791 0.00000000000000 0.00000000000000

0.00000000000000 9.19105957409791 0.00000000000000

0.00000000000000 0.00000000000000 13.45204473322754

PRIMCOORD
 96 1
Ni 6.073985082311221 3.0843081145522233 2.040325097402596 -0.16908834229165073 0.29562158482991024 0.8367225864177009
Ni 5.364481257845127 7.172353435688983 0.8494992827615836 0.3817517409607748 -0.8431086924497029 -1.2191754672105586
Ni 2.795083859765008 2.86681088672444 8.04447007723347 -1.0240071400024042 -0.9730887558859822 -0.23603678328774189
Ni 1.9957098572351843 3.462134181216544 12.413828908397836 -0.517689821752702 -0.46612274830868755 -0.3151246878598444
Ni 3.34350517853005 6.8584236134406 2.1691423893490245 -0.733230284859305 0.5760417793290338 -1.0391182846122298
Ni 8.752002419474707 0.2407836957294252 5.174840292614557 2.099501649250823 -2.8396967954637353 -0.6928835056111422
Ni 4.949596839989054 5.169097718749327 2.2060003754475273 0.6274162771462679 0.09385786379242546 0.558482944509664
Ni 2.7889258500183627 0.9374604778038516 11.880805371317205 -0.47853449170947915 0.5359233140415932 1.3355741924179774
Ni 7.248896577733852 8.382154192303053 6.892545421178541 1.2527329914510295 -0.58481181221218 1.5730243111134778
Ni 1.5127564540303726 8.72209471243652 6.540303587246701 -1.0167810545676101 0.14271730849728967 -0.7813880755114543
Ni 5.3813560427628 1.8651876237842742 11.522644495181126 -0.08066347658933849 -1.3791181384471989 0.01395003442218888
Ni 7.863254556084615 6.791236969786903 1.2085213611562602 0.5767017815105359 0.032256803151176704 -0.3699650327384919
Ni 4.643332361216346 8.645726200518796 11.953325586696241 2.2444483612992636 0.833283735939481 1.7419889833430708
Ni 1.2981544098894457 1.9006743038317333 10.151060874145564 1.0267361088977929 -0.3412838627537155 -0.4035675512842856
Ni 5.056534815216246 2.25589036456061 8.273666604473947 1.3028088250614982 -0.5933913263510748 0.6316758237535702
Ni 0.7080341740802913 2.814265600572842 3.800081160582776 0.2615547250531883 -0.18240280001236975 -0.9141212762128386
Ni 0.6131833609692394 6.963560141040414 7.99268029615825 1.0130149026569586 2.3840682618181526 -1.3005426547351409
Ni 6.816494000807471 3.8898768910659847 8.624617094570855 0.21683629909989105 0.026274360315496684 1.032714437968415
Ni 6.248844985937978 3.843066825932157 11.016040658125466 -0.6286622337382269 2.6550291106765886 0.147062729950179
Ni 7.732897761701526 0.5169299922054441 11.11966158004286 -0.11093770209284765 -1.390677046929392 0.5547887834875285
Ni 2.377616754239073 6.674878158753276 5.887569259797216 -1.2038573487962492 -0.550637223213 0.24710615372802602
Ni 3.4291290871863893 8.940336416069494 0.8196375310200156 -0.6816272159710326 -1.9678493403184434 -0.9373861602780502
Ni 1.2113724277583637 5.944317617377384 11.937330386155814 1.2281298481903686 0.5691789907709295 0.6754226298222175
Ni 8.0499341620012 7.766537038824991 9.272601482562031 -2.098045890640903 0.6739830691622135 0.07573055806409539
P 1.8620350904363647 0.3787957234229344 8.413540740786365 -0.01604959726369494 0.40858325933132217 1.5918740968301295
Ni 0.8751781834050946 8.45213491799105 10.079697813135335 1.0674130177918648 -0.24578820624755088 0.6155642629036883
P 3.2205288047836107 3.0718634202284054 3.4595560890763437 -1.2522303407829982 -1.4977881761872978 -0.8222220788086806
Ni 0.8998469866289691 8.297035791909499 1.902212887162462 -0.7194008351753804 1.2496178428608156 -1.5584235304811676
P 0.12459491929328109 0.8063454210265851 3.1526748902230386 0.1819662266955834 -0.6245929487648597 -1.0564750307231225
P 6.7084530984614785 6.384973765576134 3.1615663210124483 -3.017565712161493 -1.2479368556139667 -0.9214052114687615
P 6.950269869258848 1.132991073848825 9.125221008100231 -2.1143212307621586 -0.06645478918912426 -0.7198888305553924
Ni 4.320514784602282 4.12235554559083 12.749981792984151 0.9864176117844045 0.1031716849941836 -0.23601672868308382
Ni 0.8439993528624903 3.3738081011191388 1.295434775435666 -0.9473126753631427 -0.7979392950019161 0.3860074309133352
Ni 3.3740470686615462 7.476430442342734 8.376117504539476 -1.2350188620007183 -0.3170267899785637 0.3963692337636335
Ni 9.708883605628799 5.214391259094802 4.602172959354514 -1.1892398559933908 -0.023610183219772242 1.3801234397832618
Ni 8.978185198363056 0.9289863211077217 8.761006900293793 -0.4702776510173256 -0.48702890233373547 -1.7066825947322928
Ni 1.6436922851508338 4.140443550339185 10.102659836642863 -1.329369349158846 0.1498282085104581 -0.4625327169645841
Ni 8.285969756484183 7.200956012303252 11.957037855556944 -0.7012146511846569 0.15804031200760524 -0.31684527009537694
Ni 0.26362715457168223 3.305674778355136 8.265366158799027 -0.6025735070709751 0.15632744308155658 -0.7775792432883253
Ni 3.1521840876551717 6.5619384217879375 13.318720867489393 0.3380180475182501 -0.17436835974366743 -0.48823192150290107
Ni 0.7762336724714219 5.649413287928337 2.389311458122105 0.5849395960392958 0.5282778816811935 -2.6459734282322236
Ni 1.2119147002584416 8.248994124826341 12.517732914942389 -0.030249028692528553 0.7696432762707004 1.3590067124093046
Ni 6.580945532468627 4.807162993655081 0.32220912848685807 0.2847833565638257 -0.2150020741046297 0.17563874181565878
Ni 3.8770369811912633 0.8202974490794321 9.95877747935953 -0.13600235837095934 -1.3685390773797723 -1.8842908015694966
Ni 8.020283804624071 2.6249297785118073 10.366911983248533 1.3507673552186479 0.3507771469561314 -0.6685253884817519
Ni 1.4203219704154297 1.236822471024723 0.523240573536857 0.6123984635811969 -0.5442981683688497 1.620700019922886
Ni 3.5847796768273423 2.0664993961436355 5.546250999871178 0.41535168840340725 -0.19153818665473465 -0.5818933530138043
Ni 7.340843935204657 9.00285400158693 2.464764540531225 0.8663347528571789 -0.8919550245284444 -0.4981599792498905
Ni 6.286941926833269 6.012561232853265 5.560335379178282 -0.084889341745228 -1.5606719601957122 0.6665919189044649
Ni 7.8238249115874385 2.946901777668123 12.956269604861173 0.5948118608476852 -0.9124749988586673 -0.2629845155211793
Ni 2.119173357125761 3.79985046499376 5.534063655208415 0.9962150574908003 1.9980824281713718 0.6865945872786369
Ni 2.913905874697292 7.706556185680801 11.14558404375844 -1.0736381727659703 -0.9798178470796997 -1.335303455255094
Ni 5.8453115263462445 3.669989987814131 6.456026168781231 0.08164435244536908 0.1919570193597081 1.7377636324078136
Ni 2.016812529441599 5.054705794410898 7.842447835988413 0.625495148864155 0.23536084026663984 -0.45445353950087536
Ni 1.7711722779657146 7.390052866821879 3.657987383443767 0.019320297595166725 0.10491823537164512 2.0379499537902706
Ni 4.909238898500219 1.4699904549988196 3.20601244568831 0.9937048894744369 0.18482169386650749 1.05118344330688
P 6.637075331756333 8.358864047977683 12.91448704917722 0.8492279179735632 -0.6502661851612478 -0.7347834882790378
Ni 8.16890323388266 4.279274501418405 2.55276801444638 -0.6338453206010632 0.5321008549717094 -1.0144004701505756
P 6.938551268621576 6.070106455276768 10.10248520651572 -0.5596638521916426 -0.760579109185903 1.0847872474042544
Ni 3.3885229870958242 5.376034419414579 10.92233321279424 1.7404350085923899 0.7340124144409681 0.4842073737245402
P 8.659338159376679 3.2748203922066463 5.635034794722886 0.2202396683544852 1.0010124788794437 0.7530195516710902
P 5.683420207424737 2.5084055284103606 0.06843387040387597 0.7668338318463631 1.6733024766099505 -0.7411855351506397
P 9.298870449214101 6.925794078280764 5.9686582997834146 -0.8115219187823574 0.5865118256224222 -1.402729607218552
Ni 5.028364218390174 7.2242369655693 10.135940662452716 0.2790870775099968 -0.12206595079552528 -0.9023109138414717
Ni 7.606300110581686 1.5835919482354404 6.426458530938011 -1.4107031123423317 1.3772034379229894 2.6712275748133223
Ni 3.7530036356226386 3.1926982771525036 10.269425174323542 0.4201902474426312 -1.1675834540658794 1.1058929190346178
Ni 4.74347814360358 3.9223397125960617 4.563148640573497 -0.4546489433411331 1.3361786587711957 -0.8439486718524949
Ni 2.7247079185261076 5.1421403417539375 3.521772207847973 -0.4020621703833527 -1.2470598523256524 0.011486146262728605
Ni 8.552528858980015 0.27189451243303664 0.0020385769579192945 -1.497692016929066 -0.587881195166123 0.18846186172225607
Ni 5.713208430691718 6.2724660083989905 12.19258356657799 0.10105592420276145 -0.19675804029277727 -1.2436392566798775
Ni 1.0435804487512645 1.8954905463733631 6.070813247738733 0.19900595578668953 -1.1128055869940512 1.439757863616443
Ni 7.142206761108391 1.3894767753262631 4.153305518756283 -1.201826948629782 1.3702252068329432 -0.21088162417835293
Ni 5.10355627471451 8.315427101615525 2.6363312876024243 -0.8147676794131646 0.36107055846233943 3.1994352653782125
Ni 5.658052883692288 0.5158050065442659 0.8243773603130679 0.6151361742273342 0.36347762524193533 -0.14135873758686623
Ni 7.84198644481038 5.232874479394061 7.103715523768129 2.023438133327341 -0.10847895613970994 -1.6872645952169976
Ni 4.720895710846106 7.709148064409987 6.386317498449207 0.28321549785607353 0.3527270715936506 0.33450669193088195
Ni 2.79108574895935 4.332518308078579 1.016065174454948 1.1399705774446174 1.2894432023878697 1.2171792627161362
Ni 3.5669306396213942 0.6478097578640328 7.306248787911564 0.337093993042084 -0.7211054765713129 -0.27450999966227563
Ni 5.9930761870877625 6.362382141759335 8.06701574575365 -0.027879757129403597 0.16062838444975563 0.049335613010334387
Ni 8.45932232638191 7.1277584158520835 3.7025943516577873 3.117270778763315 0.8502334764199421 0.7412179310504718
Ni 4.280524485486381 6.465845896562301 4.5367822486925995 0.44939155159693567 0.4951181070997731 -2.3142180737942337
Ni 5.381539863949267 8.789345693505481 8.256138335238383 1.7165162929932634 1.3274412788981977 1.9694105141579756
Ni 6.669639254938967 8.013050440936594 4.824830966992359 -1.599641142370058 2.6064416886861888 -2.095090150446689
Ni 2.8443203645602 1.0424131842171989 2.6259058690119472 -2.8596616686214364 -0.026069957614174456 0.7427328250331015
Ni 8.61013841881878 4.692844597791239 11.511748494353292 -1.5724918356487756 -0.33170110416128684 0.13911699274054107
Ni 8.8912561592828 5.538605876726016 9.252518098834576 -1.1707040019727322 -2.4446429380774157 1.7147003228304472
Ni 8.069740894843022 1.986822102869504 1.726717881336462 0.694296583908585 -0.4214853121049708 0.3891999697087039
Ni 7.058375109020105 4.059672521005575 4.479113866074165 0.5774314605877088 -0.20444846695849953 -0.3673648761114835
P 0.6587379273994973 1.6233340887496108 12.12871305712816 -1.8695694361989224 -0.17772904868578424 -0.5549484489938442
Ni 4.413068751988428 4.59918770328629 8.586736143569663 -0.011354762891186896 0.7098005930814549 -1.062243043555151
P 1.7772291860598033 6.252392734836792 9.731975223072785 0.6639351980079082 1.204998661489544 -0.16876386907269644
Ni 3.2633315680524575 8.787948652488332 4.874953489906321 -0.290974315865886 0.4654601750240242 -0.8333480135185132
P 3.9317145931058795 5.370354344752748 6.37476249866789 1.3836031708017462 -1.6916282715023319 1.3148603569093937
P 5.1134826187837294 0.5665258674201795 5.324507502636008 1.849572167141389 -0.3646050539781592 -0.3677104323763603
P 9.320653259810443 5.0056806839801435 0.2031233301519937 -1.0780866954556272 0.848427533559455 -0.2291652529788892
Ni 3.6509920681927643 1.9783939014699907 0.5537558095963153 0.2714118203529261 1.5424546658567373 0.11691423139125671
