# total energy = -340896.8744705594 ev
CRYSTAL
PRIMVEC
9.02596027141319 0.00000000000000 0.00000000000000
0.00000000000000 9.02596027141319 0.00000000000000
0.00000000000000 0.00000000000000 13.21040521526484
PRIMCOORD
 96 1
Ni 6.304109741336615 1.8923106220569552 11.326046625392513 -0.18084779682042404 -0.07250536625857835 0.2383525759051121
Ni 4.719015728913494 0.23175326362315168 6.114950886813061 -0.28631676248921656 0.4067649751756608 -0.4493416721956068
Ni 2.7615918294848987 1.4820717019268794 4.977839652571719 -0.109986651033488 -0.44424805972278325 -0.27528621570666784
Ni 3.587313752660621 4.258529287972783 5.036717796590387 -0.5512617441708764 0.5839594915142136 0.04775027080108551
Ni 4.998820497214132 4.410589640603779 2.461494897310276 -0.29929929079181355 0.6691064577962025 0.8240264790072711
Ni 7.215596338976616 6.180354800105322 2.6819503664662694 0.16207103043355314 -0.8946785941071947 -1.1370071239409192
Ni 4.867420567636045 4.501571320102825 11.333734938348593 0.6174925902746526 -0.17683147657217932 0.12124396911486215
Ni 5.705417796775924 7.943151918280152 12.387899402921251 -0.6834989790724486 -0.07442212366531699 0.3950317458991326
Ni 1.7377771563125926 6.558768184331266 0.4134025192039267 0.11580428615652959 -0.7497753337021796 -0.3495818410964496
Ni 2.631302093019747 1.5862312834168593 0.4744044716735999 0.004186784387837951 -0.5429624802765616 0.8763450859053294
Ni 0.3268688329248335 9.098980286328754 4.593284102383561 1.0683674112853343 0.2231254745427125 1.1006890062361754
Ni 8.546492232378741 2.397331150958806 1.267723197488054 0.5835239466386918 -0.1090703098668057 0.4718874187066066
Ni 6.806548845601885 0.7561759967165845 4.836712445613063 0.4153797134278652 -0.21454981705855955 -0.6029823124736196
Ni 0.747210510382616 7.369705584588394 2.6272720017601903 0.6519821394110901 -0.5721383305095694 -0.002129387638176978
Ni 7.7179000538378695 3.8928064038833123 3.7604208394439853 0.6968653730770257 -0.6528894817167079 -0.5410567786134166
Ni 7.376330639424932 3.600401395048877 12.634880364112146 1.484961713846591 0.8288017889087275 -0.7202891513176047
Ni 7.89794088329893 8.78675426874631 6.966969945228909 0.012434111998294715 0.8031902589882103 0.20115925468426646
Ni 6.940701693061639 0.6270632454703483 0.47434580293185946 -0.7596522264962594 0.10589911122767567 -0.42149405385571925
Ni 2.0530539484655383 6.456847040987692 9.354868967707903 -0.8967056518395524 0.870979707828358 -0.8307164894329371
Ni 9.129307512828436 4.857862075712484 1.343656796028687 -0.4555974232973315 0.21971644886116354 0.28237063335727497
Ni 6.342632539759425 1.929452448558798 6.946585716560194 0.570497709582353 0.41453844847349247 0.5012414463886915
Ni 3.401586568230871 4.335141638725552 0.3922826747733891 -0.5035418123870942 0.18057243167185028 -0.19268566999561654
Ni 6.246063790854634 5.6118727445608325 4.887215401099275 -1.2191824091890937 -0.36268906790236893 -0.7886447570738675
Ni 5.333882194274014 2.876654770978336 9.151587193153382 -0.49552871227463036 0.11020262369903604 -0.041997170367392186
P 0.1633382899855651 5.480301321737659 12.203481885326354 -0.14163101741164638 1.0248538042734157 1.3094805806547192
P 4.020956987765005 6.1997786666015475 12.641578529226853 -0.5680821581623249 -0.08527295033689185 -0.6592136241625227
P 2.2775476322453283 8.457315744933247 1.4618102263178059 1.7540371727568564 0.5111623050468294 1.0930379174488207
P 6.433226102966958 7.6672463648151865 5.722879419509938 -0.4737201010399713 0.4617238479100435 0.5657715077512772
P 4.695214271687404 1.0964556014072597 12.670113200017358 0.508966325836775 -1.1143495344424035 0.16092611819583252
P 4.166455467281337 6.194390168321692 8.152867397313535 -0.7548612328655193 0.09757979272870292 -0.5773954651434507
P 4.738899919383374 1.0345375139704085 3.899816867223284 -0.19616231569030732 -0.5711530837781648 -0.44129591907299487
P 0.32380722720200844 5.454649542656677 3.587153090567855 -0.06127273076755253 0.3002305443568313 -0.46022772298049125
Ni 1.338432570225706 1.2144158761466484 2.6321333839604075 0.4720095461067677 -0.46320763154442157 -0.5162739152417819
Ni 1.9577849378393046 6.2907783980211285 4.824730483357609 0.4030109074498672 0.5997591775506316 -0.3666351970343105
Ni 5.956104817252761 5.452329870867863 9.178443937930108 -0.1805523770671923 1.4595748983423702 -0.33075108154319166
Ni 8.61938588750119 2.339754550410748 10.330735032149773 0.11553689142775585 0.4342161294080779 -0.4873492617876316
Ni 2.398071279700762 5.361627996137115 7.059085285337587 -0.030933713464378985 -0.42044427243496624 -0.17075081759573818
Ni 0.4835152759678794 0.2059832444626628 9.178721937506355 -0.654133638536454 -0.43794320055067804 -0.033390659645303786
Ni 1.3968034552773265 0.9614904175234061 11.458110865646308 0.33583209561052485 0.870869664613055 -0.5132626392192837
Ni 3.9767749122543075 6.999731473212806 1.5007283618003444 1.0383400116853085 -0.08328445915195334 0.3301306743503734
Ni 5.7157525212825115 7.781244242997027 7.923046591783711 -0.5458649986353373 0.02934271482817527 0.40250465723741
Ni 5.384942051508746 2.9009616819794206 4.757133261720281 0.49744958344642715 -0.06323602514151044 0.02752031690745583
Ni 0.6700764591263707 7.31558592682289 6.828920590721561 0.3345390878307142 0.5996175097664448 -0.40675160543922206
Ni 5.280078445117881 4.4259247470987075 6.976454424278274 -0.31880213671143154 0.3927588907045559 0.18677933181351059
Ni 8.127525208669738 7.25511199302888 9.140966345706305 0.19452040921151015 -0.36859874851858454 -0.08884781217234376
Ni 4.461712679560386 0.2576676981479248 10.488903252093966 0.13454454287851023 0.2334973046953398 -0.07251616489185575
Ni 8.224265450819617 7.132990750606052 4.644250089631509 0.22429866891520728 -0.5983682107403759 0.5691684492479682
Ni 7.4188429122860935 6.100177195046787 7.011541039627147 -0.021378979896408343 0.09791660724283135 0.06557521479764836
Ni 2.4830236177409435 5.256141598487774 2.47961992812397 -0.9699769497298778 0.08127179959729874 0.28863666887164485
Ni 2.337461956502737 5.213105819931083 11.370473304426469 0.10722965711364114 0.3606779510096111 0.38724053198948793
Ni 1.5079581559748223 3.436083788374259 3.8135007065866433 -1.7062694184542746 0.30612171303028574 0.430735112838013
Ni 3.469407633682838 2.5576231793540005 2.878309229495417 0.9392473818565049 0.16311027033134487 -0.7764348452712371
Ni 0.9726826082554317 3.4997890159441276 8.207281301383768 0.8809347621585408 -0.4265496140017557 -0.04396303584451138
Ni 3.667960707653079 2.6059391446673335 7.146248081047343 -0.33183582996693817 0.6790874802683143 -0.5495686727391697
Ni 4.30061734070136 6.850063000052768 5.919860171201534 -0.38687723511279826 -0.48788610812770816 -0.06537826829549385
Ni 0.8106882837537366 7.497765908867409 11.514876032366294 0.05654138673015424 -0.4946704780393931 -0.9889763736505163
P 0.3665424412817838 5.66634441477678 8.058611099429344 -0.4037953510243755 -0.8322820341478441 0.4267936116917618
P 8.460384571424285 1.7347805375036953 7.984210108942177 -0.8963423549628627 -0.0002666233978253473 0.1922825210199269
P 1.8800894718544048 3.246069272817322 10.399416271615259 -0.8705122812736362 0.017452391148492525 -0.4637311081480594
P 4.01452147809409 6.040262870789379 3.7742522209583047 0.9133684572072142 0.26354784422381705 0.21667586226262683
P 6.915401926431101 3.917023055281719 10.264075607784267 -0.023773705380830023 -0.5434103664472576 1.6363248709443368
P 6.317386928890493 7.84929095745569 10.204232588612975 -1.4120773669820392 -0.780221823117495 -0.24168472560213858
P 2.1459852353824216 8.460673402152853 5.668703800790772 0.5252534930325727 0.14339479418028853 -0.3762773481097649
P 6.947967591077188 3.9813781519908664 1.6583153099032912 0.05528257462238866 0.8142192631088623 -1.1061274036429274
Ni 5.281315001674565 3.034401478578022 0.32118428314819664 -0.05928655357545919 -1.130292173814589 0.17834354234133157
Ni 1.4048726637567062 1.1917246120334934 7.176327996235688 0.23896269868528522 -0.06267346776982109 -1.226640922349668
Ni 6.694112458546366 0.6829068616469952 9.171587818510716 0.17419558161122903 0.6859366419796639 -0.6560262275734766
Ni 2.7585952106760017 1.5476362773119066 9.248644246508658 -0.9317109642701438 0.302989080938575 0.35451347407011197
Ni 6.2559201394670305 2.0530539484655383 2.418931176475588 0.7865639632854389 -0.07991065758371399 1.2541555828301691
Ni 4.151364061713639 6.8583578575388415 10.541850437620688 0.6198646900512551 -0.055631473321375156 -0.5609501751032339
Ni 8.126965599133136 7.068355849128605 0.2336956502727742 -0.14349660986547544 0.08112704648931834 0.3222638700077869
Ni 7.609408011419363 3.936798934228387 8.101968202171568 0.2919395079926327 -0.8381973711910146 -0.0632319113764524
Ni 3.096391773697016 8.298549103823303 12.48002828197033 0.3842958475388672 0.3823189263181545 -0.015016528013490266
Ni 0.017438155237317256 4.864775961277591 10.133080943822202 -0.030588671420134418 -0.22348671453687316 -0.1336415714482666
Ni 8.773756885960733 2.320800033848447 5.6673959391479745 -0.3604128702736825 0.14952867499216826 -0.0786533881378452
Ni 3.40336468240362 2.510706237882171 11.733482082263421 0.5906489877192473 1.1152573909686534 -1.2643656905939515
Ni 1.104840718496011 3.536145583902675 12.589449998296416 -0.6929686091257807 -1.1106139786593712 -0.1830617737526073
Ni 2.932236634307218 8.261560718646011 7.6467899284643295 0.5713006650996225 -0.14426922636544187 1.3356130160757127
Ni 5.552057705866371 7.931201546885634 3.6574066523119844 0.029178678446485234 -0.32239628182059316 -0.2567485619137965
Ni 3.0922939877354514 8.145676414768209 3.6164405264446904 -0.2420739906207573 0.7901694212485102 0.008777489082313917
Ni 3.379518095376191 4.454898079558225 9.163477090614105 0.522720442198074 -1.2987809348490276 0.26108729849846646
Ni 7.128062576299855 6.146047125127557 11.275952545906431 0.40656725734255783 -1.0498243581758242 0.5359436257565674
Ni 0.6913235695966838 -0.057551327859307604 0.30037854213497717 -1.7915685940434114 0.13267869331436505 0.04527944066308976
Ni 4.63399118319117 0.46329261198795735 1.6418158545338215 -0.43302570864440265 -0.8975662000676348 -0.037409293886393635
Ni 5.904828336971603 5.515511592742199 0.3318574811648259 0.3691029418485127 0.8922735842101278 0.28570278305430147
Ni 7.903527952704675 8.898242929973714 11.172106165237743 0.5778032421048306 -0.33682274165856835 0.4990297834493535
Ni 9.235543065180002 4.897901235460279 5.749405814140864 -0.5764760386529749 -1.0068038887502402 0.43211425257372676
Ni 7.963676951929044 8.739422133102165 2.5813524288979486 -1.1081508618308593 0.41711675072362997 -0.3370654537969937
P 8.410895231276143 1.6474543719130925 3.44600061092045 -0.7181816180562987 0.8123174181004591 0.4135094929883459
P 1.759953940690485 3.3216707160201007 1.5391708291767718 0.1443558725419772 -0.629002133576149 0.09383266698144485
P 4.547766184753234 0.9768345499786025 8.270862873297968 1.6335269964842256 -0.6866624644020948 -0.8242931024050966
P 8.486090506266873 1.473488013712237 12.437068321479888 0.08008446415741692 1.5952777231950395 -0.04451325192102656
P 6.298360204646049 7.737296842453291 1.4297752881354628 -0.21801232168586326 -0.3302548586330635 -0.1230321713635365
P 1.7868513022884176 3.227656313871086 6.012055842356594 0.6980269974852946 0.20642564528952834 0.816860043165819
P 7.097437493111337 3.8320165614799317 5.874759252935578 -0.39793914935391467 0.35600677078618687 0.5724180665335173
P 2.288929368142977 8.503303012497495 10.042972977277076 1.1005193134275304 -0.43717366937450514 1.1355400524770896
