# total energy = -381167.8817003875 ev
CRYSTAL
PRIMVEC
9.27051602061675 0.00000000000000 0.00000000000000
0.00000000000000 9.27051602061675 0.00000000000000
0.00000000000000 0.00000000000000 13.56833727429067
PRIMCOORD
 96 1
Ni 8.385691428842618 2.9586294977823884 5.098112510354806 -0.234227497993145 0.25882704170938003 -0.2360565807820838
Ni 3.4710387181685656 0.03325612136651406 11.938535032624987 0.688440125127808 0.6234164119582555 -0.20053524794702238
Ni 6.981310259246586 0.7666874173938717 8.85517167166575 0.1242786421761279 -0.9162218674956091 2.4187943524454276
Ni 2.1029794295175335 1.52035532238367 4.49447121682727 2.3015852155215715 -0.7578372847747077 0.0780355520481882
Ni 5.987501693859896 2.6390006536727038 1.3490593664976935 -1.8436321475078699 -0.025712831385071848 -1.7353156850879534
Ni 5.720547920584692 8.830398072265716 11.80416817646959 -0.09383935184966419 0.395000635550881 -0.954667315956001
Ni 2.1822237986645137 8.424701759372624 0.26878377309616946 -0.010764180495039527 0.41597518092001906 0.39611109500624037
Ni 0.9946058297463813 8.640473014858816 4.279331283467764 1.211460615064804 -1.8859715317060293 -0.5052613661813621
Ni 4.957593739907653 4.560240891243888 12.649448245748973 0.39490936138865534 0.19999454495220398 0.005465393989945426
Ni 1.1859307350406465 3.376915171145953 3.34739043239311 0.42075460458653346 -1.0494698030498828 -0.054483218649544876
Ni 7.011810256262679 7.019198857363538 9.87802105487998 -0.15526146371088745 1.2076782652042364 1.4589434354059583
Ni 6.1046253906080175 3.3257882764518025 5.8259314361105705 -1.4355016594432504 2.0677837493222517 1.0144716897081432
Ni 7.507170998073599 7.969667761336782 7.67889154358369 0.3025753904399241 -0.4827264183036396 -0.837934347337615
Ni 5.865566599406196 2.2438356467401843 10.803353882285007 0.005449710260661583 -0.9502468182908023 -0.6337393911508182
Ni 1.1158178239668735 2.4837102433333187 6.198151916412442 0.9188158534750305 0.27410427958342476 0.48828308645581076
Ni 3.429701488170158 4.192841079163404 9.453589956585729 0.58665143652408 -1.2882841490827621 -0.8291666284473139
Ni 5.976006254255046 3.003489523788734 8.299914127204076 0.13868067653407082 1.2000048078193786 0.048771770087064396
Ni 0.0967684251833088 8.77503455184623 9.232764415879727 0.1651131596939866 -1.135742912516515 -0.43378032742224004
Ni 5.2204406746788665 8.683617995440244 6.884533490599048 -1.1504200549127155 0.956508740040114 0.9419164440482359
Ni 0.3335485235989442 3.4983681987775146 11.535488233150497 -1.0602319266623934 -0.739166704948398 -0.18895731330143586
Ni 1.6891806858061849 6.396257276970408 2.1662395753042865 0.46796545794438116 1.0735553832441769 -1.5781917142470305
Ni 0.8694223465527299 4.107376193907671 7.904071445565818 0.1875072111184706 1.927915737348299 -2.859843188504623
Ni 0.30040828368005973 5.097726856897095 4.49082141475273 -0.39043358500548886 0.674983999622902 -1.177011946468631
Ni 0.1434009738125952 2.7660159907904833 0.38784129944233325 -0.3469428608117057 -0.40138854135509583 0.10454851073705221
P 8.71491525681603 1.2745754072193345 10.254162036318055 0.8676138766799186 2.005540941331946 -0.811183561606332
Ni 7.097423469771378 6.107721742888679 4.18176188571844 0.8303246533111571 -0.24522230644175189 -0.7335365032458141
P 7.179198689734587 8.362774713759402 -0.267494244346948 0.29368631548041035 -0.1427435337495348 1.517513165420051
Ni 7.177140635224688 1.0334585615076113 4.128830948647593 -1.3737401619647374 -0.3082480153446691 1.1567827639059496
P 8.116475649709686 3.334233716355043 7.3242563047224944 -1.9007234932042234 1.183747722530568 -1.7334999720354531
P 5.182524265014483 8.59278548153031 9.582502041238307 0.8029832851837267 -1.3129623685557323 0.6284272349092855
P 3.908162079658787 1.3237833051407397 1.0876419452644381 0.25043933186631706 -0.855645648574449 -0.8616347762783483
Ni 7.665409432440679 0.33081742964121136 1.770953124614651 0.3487801711307606 -0.9313900905956152 -0.6772023474304595
Ni 7.257098834089065 6.19211124831041 12.8358912974175 -1.3019570185841642 2.0994872510731195 -2.962709683553562
Ni 9.203601227243487 4.659101671845596 1.9007208778765268 -0.3526795061851668 0.6291646272959422 0.08885655392309214
Ni 4.5334769120993705 1.1990207033648788 4.951819135609378 1.1688777473972707 -0.36103533434902985 -1.4575177587030252
Ni 9.2785811591177 7.008732445013639 0.28986029079102904 -0.06906728711130686 0.4769283235646237 0.585567716541598
Ni 3.1118711241276835 9.002356870032134 3.0176391120700905 0.2312470752085824 -0.6161430182252937 -0.4291266307003126
Ni 6.080800164975385 6.395867915306371 6.04987743243834 0.3445944151841872 0.0778270355818079 1.4574920476714126
Ni 7.408959153578617 4.4225459199125705 0.2584851570824376 0.0966253992352336 -2.782240096008163 2.0670468711562275
Ni 5.240548423471543 8.757782121923146 0.8416497352880454 -0.46920884343317903 -0.751011777212442 -2.0345021044509863
Ni 8.081878084705412 9.013323890235794 11.393590009950762 -0.8784981276925903 -1.4996635388331399 -0.8822732784643064
Ni 9.169346671324197 6.497278087755929 11.416819141416786 -1.3709816253829938 1.1129634527281542 0.6902028734551855
Ni 8.651699609505165 3.3790473897823365 9.41110689083316 -1.5375831966970488 -0.8029935695963719 0.9013585772305315
Ni 9.292950458623764 6.199935563654357 8.34004989835346 -1.7499198081543732 1.7226887403525621 -0.44649520388574715
Ni 2.6830634153193578 4.2025102271536126 11.833231243535076 0.4590750974332868 0.8174490829000697 -1.6956011401071507
Ni 1.349221600524375 7.63398238384355 7.140188359204582 -0.4631472106201314 0.9225074433940048 -1.423312059355594
Ni 5.7933585517592805 4.43274348730397 10.250579909008932 0.3604632638956437 0.7423584724128183 0.6062468421575044
Ni 4.899291465976282 5.154147216118963 3.8995942689468492 0.00596598777544779 1.5659584054056324 0.8557734324015649
Ni 3.820296130808169 2.143037328334111 6.769107225295802 -0.8772933087512116 0.8748551316233643 1.4792952595894329
Ni 0.9121167800657742 4.851520498005484 13.235723082008956 -0.9249862439518005 1.451512947269842 0.8797769944050139
Ni 4.226697002902848 7.2536965547866625 12.815999551643205 -0.689713849633909 -1.782202836557795 0.21845146610581087
Ni 1.7783723184176843 2.5669223932471343 8.962673500054295 1.6085096485042814 -1.8878291537400584 2.1354364154742194
Ni 0.0820042017037252 1.2108035289598496 3.69182254155342 -0.2528412564395904 1.0489512115422515 -2.1894025852780294
Ni 5.430677432226271 0.577723712476506 2.6592177945519433 -0.1345689683585424 1.1868379314201174 2.1511527977682112
Ni 9.133599562359437 0.18924738270116281 13.276888807464873 0.9128367530734601 0.8949192493630911 2.3839780160971915
Ni 6.9035213610818325 6.980957979645792 1.4909158723762823 -0.9434297953689688 0.06622827500061497 -0.0032123362897105968
P 4.089233794466791 6.842243251575335 2.756936447605814 -1.198753709021097 -0.08283168788525089 -0.6638655211122373
Ni 8.894021622272236 0.4618367025374862 5.865781675372996 0.052957268923321706 -0.36900678259028064 0.17360705609761068
P 1.8930764105393016 7.058654172652441 10.97105844034605 1.7851297803966033 0.05286059544445735 -0.5066219939743146
Ni 4.674601974280522 1.1699761773310124 8.754155496138132 -1.8739984185045533 0.0379602812938572 0.3827688693713795
P 2.8823795052421555 5.37592576585027 0.28278317902139816 1.4359390040909852 1.4109052010508087 0.2178166607352894
P 7.1136283314078925 4.649710639329697 2.6710896170986933 -0.13349270457522816 0.46189199805679165 -1.5495246853296412
P 3.366847390975899 2.3721025034923624 10.856813238757045 0.6788622516313857 -0.6321039124299244 -0.29422341893080295
Ni 1.773023230795105 1.602074919252017 1.6028137793621031 -0.5326127616111214 -1.6636749808225153 0.8698779901237471
Ni 1.7193376737372945 1.781561375856449 12.324487000945169 0.6478799443172584 0.5017284133274392 0.39543155244071254
Ni 4.1332780150818245 6.066310348763789 10.532489805440994 -0.9054582012212019 1.5917439990101683 0.706691358028512
Ni 5.199980646285396 6.699885210791406 8.146768914223209 -1.135815160515347 -0.14581445936537468 1.4571781159754194
Ni 6.817769089835978 1.4278448451120607 6.7239523968866886 -0.2372860823138107 -1.1841112765175736 -1.0785515509071875
Ni 8.699998996877156 6.879519995648804 2.8149689495271035 2.073686745070248 1.2634125826520628 0.306312231774537
Ni 1.3023313315555602 9.066814766461585 11.45681863598376 -1.4834733022265225 -1.5235639995998214 -1.2620025896784135
Ni 5.067912878050969 5.31101361414611 1.3983525531645538 0.35249078721312843 0.06540269377552607 -0.20971974265976787
Ni 6.964623330787933 5.369575462520171 8.399234725389977 1.2091188543055045 -2.1344959059378206 -1.3430848989727258
Ni 4.7612534855599815 2.060427761947969 12.787940481439982 -0.7546133785207714 -0.26778425090266783 0.3244652485344799
Ni 8.218618192908263 5.291703129713125 6.2986934415305695 -0.2945707749678927 -1.1475049381484494 0.7126756006364049
Ni 9.0155673550619 1.559875531283246 7.887857313413494 0.24871360742446197 -0.8274545308522137 0.8582674024680123
Ni 5.177323505644869 7.81392309572269 4.34166437767348 -0.7263394712767426 0.3394102998800864 -0.7906746430197028
Ni 8.766487136269076 7.400773288118066 5.548377755057798 -0.8167687690035933 -0.08926407377415595 -0.4105054160546995
Ni 2.5149611521300517 6.004031023549772 8.189441098498309 0.5974415851610485 -1.2364131712450834 0.1515297645825971
Ni 7.388211739195025 2.1350276026739574 12.932565163339543 -0.48386644544535384 -0.37067440010069064 -0.4105817778185896
Ni 3.7726549500587154 2.4389707340325084 2.8280209087365127 -0.24286126240874306 -0.17340162495502395 1.2511682180670711
Ni 3.3259829572838204 8.101364708938796 8.476058562858872 -0.0027469666175178498 1.206386028755374 0.5952584614668006
Ni 3.046949701907714 4.551211408844594 2.5234937348819093 -0.3678533857121278 0.6975544287242502 -0.3834252720084558
Ni 5.90455838890458 3.1805934578299024 3.6387154646821767 -0.21233995389143434 -1.5477238846754764 -0.0011819361232431257
Ni 2.676360832388466 3.243178710065661 0.3226315641806611 1.0463780514984364 -0.32293775614636 1.30121679798403
Ni 3.2524677669076443 8.48440388119136 5.610426244428136 -1.3268594382527987 0.45693671093404536 0.44274062193932145
Ni 7.860507437669762 2.565133183695734 2.4578631182024466 2.213583039178975 1.0177974116472666 -0.10909550667778631
Ni 3.3722335606617198 3.724819088477244 5.033609188397884 -0.6102927300921037 -0.20916284171503335 0.04725893298696377
Ni 1.8108469353013847 0.568497695142033 7.8991738320632034 1.1100231391529076 -0.21727441507857423 -1.1457797279272266
P 6.718778522012925 8.681087144624016 5.4987452675122785 2.917338197397298 -0.18397965758118637 0.11525895517602086
Ni 3.7820367120588023 6.008332542885781 6.080134541940202 -0.49601850742685544 0.3229745229215663 -0.15162566673051306
P 1.5506328270203145 5.351442333595101 6.172765535917346 0.37369338943267255 0.12406395506216052 0.6105454695328582
Ni 1.0856515655199535 5.2787151370628065 9.980759692245163 2.1019022882725156 -1.8087505051393367 0.7992855246171653
P 4.53549788454603 4.597832832854908 7.472896974071107 0.5912992197087364 -0.9488622792384498 0.6548530332009818
P 0.6529344801943974 8.913341377221032 1.8688349387467842 -0.32082996577473777 -0.8599998117780866 0.5774345459115023
P 7.853489657201317 4.740116709512354 10.830205931329724 -0.3835204028254234 1.7394811293195525 1.1534506142089231
Ni 2.184763919996553 6.542842672963862 4.407986574832396 0.6193175592985334 0.4127055090298118 0.012826205230390813
