# total energy = -340867.716673141 ev
CRYSTAL
PRIMVEC
9.32627900040450 0.00000000000000 0.00000000000000

0.00000000000000 9.32627900040450 0.00000000000000

0.00000000000000 0.00000000000000 13.64995203182069

PRIMCOORD
 96 1
Ni 9.405738813420601 9.093550952951357 0.6549481958564595 -1.7848189340244036 -0.3047538861484816 -0.242071419517596
Ni 3.1177657156900147 3.9827874115250737 12.626164476917907 1.4903510031829623 -0.24213749686884103 0.5950507163313687
Ni 5.061073127356256 7.935609488889674 6.084138878347491 0.9959029255670203 0.05621537084930319 -0.9479976172453093
Ni 1.9382432422142841 2.090625313439921 10.917859708775534 0.3834450695027977 0.2872251332360989 -0.2196585990400346
Ni 8.425444310170837 5.57752514866667 9.804132267803787 -0.29774017383480983 0.9871213227196484 0.34269334150673236
Ni 0.4455228722625942 2.6894097250300293 5.035904298442819 0.5809644134416316 -0.10826606879795547 0.2759253919525635
Ni 3.3753575393788626 5.403851182673414 1.7746845583344577 1.1844928282267084 -0.7613329566327921 0.07635893567671366
Ni 6.194281299729928 4.6463801353097445 7.070197021967991 0.819555330609795 2.3366062116814468 1.5186094838080233
Ni 2.0498414957356728 1.4747085274791962 3.6905372701246946 0.6658252159417694 -1.4897457654987958 -0.4118475319048907
Ni 0.21160021183732067 3.6214687137208252 10.736519541512465 -1.6857995806356967 0.44918020691707805 -0.5120624482635955
Ni 0.5305570855445568 2.129189476761912 13.221452466542015 -0.40694418106600233 0.7251122837378609 -0.4741145082649125
Ni 3.522386326506114 0.3750842854858106 5.335588416767978 0.21607293857130533 0.7889370915033058 0.45632427416102705
Ni 1.170382720137024 6.36345067300625 10.8907230350106 1.3516461582791754 0.8205930278456899 0.3241382042123644
Ni 5.5325072003340825 2.6632495126677114 8.392495499384799 -0.6101394923436911 -0.8719050478561048 1.3292659908117623
Ni 3.3174599998618324 4.933741441301808 8.458766172113554 -0.40455562622916774 0.6279556945895056 1.1146763216542028
Ni 4.255133408460691 6.411415725476625 13.021644401767409 -0.10100270236732284 -1.2820057722732179 0.06853249765375939
Ni 8.37182753267673 6.068497775975711 7.3572561565231425 0.0097665924684606 -0.9657654827516915 -0.19950552113092737
Ni 6.6455892628047675 3.417400404736912 10.35953549301125 1.3336870026975935 -2.027336954161115 1.5055950738262265
Ni 7.848054382416434 3.8758429711832916 5.764429373931649 -0.20927802713665894 -0.5196765131654275 -0.46027066040328474
Ni 1.9312298804686645 7.54882072336297 0.5849600683513693 -1.5036371787689073 -0.18070921436003073 -1.3281192788018288
Ni 3.9272587468529743 2.8066690298540657 2.4348787860817565 -0.5358533800356061 1.8565735381598865 -0.41093838982706
Ni 1.3815949587713954 5.669762047156268 6.630928352347169 -0.4321571899965202 0.3004328901756245 -0.954761161221388
Ni 5.6975170532134 5.094172091232856 11.817486562532297 0.7250014691916095 0.2894900180108756 -0.006919867048284858
Ni 7.2633433257121505 9.224193468021356 12.507505297628422 1.5272401628998278 1.1594083744542547 -0.5479920722806692
P 0.44551447861156884 6.232668263752495 4.5207682150876005 0.6316904790415895 1.0031729768658721 0.34761134763364004
P 6.253624412479101 5.165275641696426 9.55113083859791 -0.7542739929034816 1.826312939503132 -1.1768692502431797
P 1.42873929869707 0.23787233954664308 6.483617911596623 1.1756497760137818 1.1957802282150698 0.23018726648550034
P 1.815285580971932 0.27357799838055885 1.6200306055646283 1.1505015588829282 0.16109529678384513 1.6140071812837429
P 5.772407072917292 0.4172819670738831 4.621601144855042 -0.3278670751271773 -0.32970798499065795 1.216157506319841
P 0.709641225937592 8.5340208493231 9.996746973649675 -0.9948258904527576 -0.5595918613031267 0.5209067860281029
P 1.970139116110586 3.983561492675189 0.7955763577629414 -1.1358958931546115 -0.2760698879502278 0.6787979740523536
P 2.871141596007614 3.3036011493911004 4.349489237520243 -1.7139796426143385 -0.11572458195852973 -0.1236302099588516
Ni 6.416069538656232 5.720198563539661 4.750019342403325 -0.08455998343026726 0.0666738471784658 0.45742573475532183
Ni 8.010732665566492 3.809318623667993 12.449274809954053 -0.5447846210869649 0.9369156483995349 0.9753392424830558
Ni 5.88359497016633 2.7908423345318365 12.523707841991008 -0.6378621550699402 -0.5891873155720563 1.8386040981656593
Ni 8.37915798790553 8.176087590765741 8.364376768449901 0.4916656297747985 1.5656005078455812 0.7909700627729346
Ni 0.9277474499474448 4.819317325268554 12.578758068554663 -0.5716526491224025 0.39011836775791525 1.3192790548023796
Ni 4.9871903457754065 8.608836258795655 12.249767051360575 -0.5880640006008905 -0.9246502007686205 -0.22553176999135996
Ni 5.990091749120094 1.994350136179241 3.1282549815880176 1.429632088036351 -1.1932083537228353 -0.18144634963637138
Ni 4.026014714305588 0.6137167167641931 1.8277697379302913 0.10741503365156985 -0.7759126542191798 0.8864934871932411
Ni 2.578259132896659 3.757529796841629 6.458297064336839 0.1784121907957379 -1.0795542811400891 -0.28551329275131476
Ni 9.287304397453017 1.8682401926629266 2.716026925059283 -0.8878438305735483 0.1251916409087005 -0.4935227375881952
Ni 4.262603757873245 5.716337484068003 6.414249049011624 -1.139171992802722 0.2168183013777621 -0.9123857815789707
Ni 1.4132483494158543 6.437286823192515 2.5791171505570274 -0.02340860873192743 -0.7818079366576922 0.40981970284158453
Ni 5.933033574705599 1.1126717061983349 10.85980642040059 0.8050833622458652 -0.21227207676797638 -2.1759983960569813
Ni 2.812665827197727 8.519649053511932 9.32329917093336 2.3320998391706613 -0.24277872999726577 0.9542330566320598
Ni 5.164669433566818 9.080745971998251 8.116343448023136 -0.4659777380903911 1.4808705744963528 1.2448618162330691
Ni 6.913412014465616 8.126210651117372 10.284528894820898 -0.20583017779737456 -0.18649573913482076 0.42121457494208747
Ni 8.828181012645691 1.5965097301358349 9.716349600124971 -1.285972727340766 -0.7675066895436717 -1.3870026834015983
Ni 6.377216260687812 4.323019392697879 2.4542065665094452 -1.246029354178609 -1.7266878342096261 -1.0350849950831205
Ni 3.9440553751825767 1.5452058698131572 11.93958527348639 -0.44001396703677764 -0.8913451588585874 1.3319381383272868
Ni 8.131787765909765 0.5995174571129884 4.622733355115571 -0.32829953467890555 1.2833481452337252 0.7573582882557602
Ni 7.680927464222945 7.773080426202291 3.857804082501939 -0.08697167819555345 -1.187205084951549 -0.011850985801315075
Ni 1.5496545048565888 0.9307607706655429 8.971062403538534 -0.2026201555005091 0.43635605856921617 -2.145937315005543
Ni 7.056523764447707 5.810430312062094 0.3883425235942851 0.15819123576317273 -0.6355833863380925 -0.27455653662949486
Ni 2.757566171355812 1.9287211114399787 0.5215096623671293 -0.4578656505062179 0.6429807072434282 -1.3740080709141433
P 4.058031829827812 7.119634693879368 8.326156744819949 -0.6068052857641356 -0.6650561989862287 -1.6835223545657458
P 7.279468461959725 7.35447039701062 5.996314242413548 -1.3861290225473935 -0.233143778010663 0.5274348169546077
P 9.099762254710111 6.593100965059624 1.0848598098398081 0.43230425709734577 -0.37348230186313097 -0.36789452336270834
P 6.840415229381887 6.997171325419619 12.184302169130254 -1.2568475278400353 0.569804025949438 -0.3339063393427217
P 7.802234374096981 3.381363663001441 3.6575865940828747 1.6514203318248784 -0.9389352499327248 0.41334442816539135
P 2.1820508256637363 4.270801557041331 10.538772584378526 -0.6150096759517989 2.3430396260116164 0.0822588461009164
P 4.7867499592902245 3.389747987747867 6.474567690535519 -2.2840137822967117 -2.1186663951047318 2.528033840900246
P 4.342399400287503 6.452581920616472 4.074633538928048 0.32319126691806277 -0.08847474510364119 0.006870758977904296
Ni 8.906074094160871 1.4688422980403735 7.11237605099823 0.05603462229706479 -0.07041377383687228 0.057405020282030164
Ni 8.926340098247616 7.084474622362099 12.63664814704856 0.2567408486043127 0.11953007174754898 0.15529848759640996
Ni 6.506180045552743 8.358173860342173 0.847893984603902 0.9901441687063722 -1.013951812648931 0.11856076585574418
Ni 8.360160357751505 5.510954169756786 2.8582722637299804 0.4915681849649857 0.5094615203056387 0.9309422044249193
Ni 1.6421525391558647 0.25632624763980466 12.222440121505734 -0.1095089400661211 -1.584149474492362 0.312170747437843
Ni 1.3110603113217665 6.895029918720116 8.645565943054663 -0.6869511992871072 -0.5298079451724746 -1.0764884977305718
Ni 6.23694902577542 6.945074731388992 8.251546513483571 0.18714340002114865 -0.9166867229471697 -0.1633720086331638
Ni 7.826669224859645 3.72985872729475 8.380633405230206 -1.1410576398612091 -1.7193820445768322 1.5738136397839928
Ni 9.018073377675693 4.0225080334327785 1.0687365388480166 0.2680475318663835 0.08924196228696889 -0.2343146583903126
Ni 0.6532340257915061 8.420258899092959 3.538190638758943 0.27969488629732475 1.1586455281463013 0.08765559163645549
Ni 3.455600843181138 1.614071113336635 7.475710157676453 -0.31118755758896727 -0.030963281150733775 0.067010147471962
Ni 6.114756119404266 6.465247007385822 2.5024458115799812 -1.0744634968807432 0.1708778300919057 -0.45778286098442444
Ni 1.3135784066293692 3.947524750939718 3.0124076753920224 0.09373522217163212 0.28932006809191463 -0.646609305134951
Ni 5.4945772239784505 8.467617743433724 2.8919876946429985 -0.3756484562765144 2.1344974485997175 1.9982765464600492
Ni 2.6412208418656458 7.5033924187580325 5.731969260160866 -0.8769485238172832 0.09020381197960593 0.6778646636048068
Ni 4.895084015190646 3.64836570211759 4.527798364135271 1.7106909445607377 1.3287476564144471 -1.9773526518231879
Ni 7.822873429340406 1.665309689706893 0.7894489925144412 -1.489668118183325 -0.11607605176067752 -0.4235817896226834
Ni 0.007779981872600906 8.006890238652668 6.069969462788821 0.5832650365503504 -0.18084471149663048 -0.6991048039305056
Ni 6.289045619806047 1.651469491793995 6.356864454835032 -0.0005005937855023637 -0.060714801381553496 -0.4897316459768791
Ni 1.4475970346673397 3.264300210034663 8.6795266551032 0.2938367250153455 0.06674815205982698 -0.4307718796132194
Ni 3.1478989228709944 8.206528565150984 3.587016506773361 -0.289166830343502 -0.11040651217972598 -1.8661542398697861
Ni 4.272368371899394 6.750034260396781 10.445884711620517 -0.013515517987931562 -0.3756484562765144 0.3773458985835953
Ni 4.013405585209741 7.658199322502101 1.1926594699582835 1.415014338123176 0.7359399704809843 1.2137008172492323
Ni 4.0783164864723895 3.5603069765828286 10.506477545744573 2.2320854688585365 -0.8157323573192791 -1.0192811952816445
P 8.222243345126207 1.8481047564810213 11.663297058452537 -0.7517064892866215 -0.38641623631597966 1.8383536727177499
P 5.218127664319333 4.160900686282845 0.596192638679061 -0.22274186595104867 0.5138321385695086 -0.8153916861504087
P 2.820108197773531 7.758447494581444 12.189024996773846 0.50256582162707 -0.18894882866100363 -0.6923641427725624
P 7.05853824069379 0.8825560328270001 8.37121479615188 0.6736010032324463 -0.03495466169831399 0.19886145978902525
P 3.8618815316444723 1.2648579255667136 9.687343940065062 0.10024576959664026 0.05840235119829297 -0.21329357605395524
P 7.747535748248498 0.17293252681935062 2.469125814893046 0.3356369488805832 0.07627434638270734 -0.6821419508239219
P 5.416367048980091 0.7398136034900236 0.19523352496579427 -0.2045155727510091 1.5667852721823017 -1.061246741080153
P 0.06103489974472472 4.05333138525362 7.286521926704688 3.1708253149510037 -0.05565589880140738 -2.9136733469512013
