# total energy = -381178.85695519054 ev
CRYSTAL
PRIMVEC
9.13398894669080 0.00000000000000 0.00000000000000

0.00000000000000 9.13398894669080 0.00000000000000

0.00000000000000 0.00000000000000 13.36851610123674

PRIMCOORD
 96 1
Ni 8.59919408429017 7.8320668716254565 0.5761364129588349 -0.6319828134710277 0.4834041610969546 -0.6655449656971892
Ni 2.7099632406055028 2.6672161713883606 3.6021603398891213 -0.09939653422246754 -2.2764138584622664 1.278473076529611
Ni 1.151321064248348 6.250206094851641 9.864774958999625 -0.26077876611911216 0.6767099811750732 0.7399269801531903
Ni 5.6975084114479575 2.116436625705959 11.472633809088132 -0.869026183646413 -2.114120941825895 -0.3210492808743955
Ni 6.895778179921969 7.867342337718747 5.299226295000962 -1.055252214059615 0.6413364867717859 -0.5919743913988901
Ni 5.257094856652461 1.1458863407047157 0.6172923412662275 -0.26230934383102567 0.2050256796182082 -1.958543746646801
Ni 4.433793610721633 4.112505542406898 3.655981457550464 1.9741770823086842 0.40454482759589044 -0.11096572711730567
Ni 2.242284728200356 9.012945524759845 10.495221158039273 -0.0728447518758681 0.9582491197699883 -1.121874639174855
Ni 2.725308342375759 7.04403195779877 11.560036951254547 -0.5194489705356538 -0.27588682540514425 0.6257849121904319
Ni 5.51974271463086 2.5931577873685776 5.456279758023873 -0.7963477821450801 -0.4081726541564648 -0.55350426034815
Ni 5.225929685676204 0.3544508427178703 6.926362429188353 0.3286895710284726 0.28975921251186226 1.2273808858394861
Ni 8.536589722663184 3.460019027550806 1.632643016245299 -0.746932979157378 1.0439511872244989 -0.06314732208244608
Ni 6.500523067478941 8.85373095990429 10.310294413729391 -1.3877449608842616 0.45209609501229236 0.2484454413647399
Ni 7.896132671516274 7.027316757656169 9.67674722537367 0.34369658596026614 -0.8583427357906378 -0.9522216826289858
Ni 0.2803705371241298 5.2695536178516456 7.938345402368203 -0.6657095162995115 -0.27768762605930886 -0.5346297920411502
Ni 8.797237237017962 0.3085671616269752 4.618033479047513 0.17456222092202842 -0.37470768962979983 -1.0657569702456806
Ni 2.075498086340312 6.696986040083963 1.9438361997526006 -0.2751527754525971 -0.37690366883985416 0.43130101264381204
Ni 3.3199493039514754 8.380069684606575 3.1999953646549035 0.4907076367369033 -1.6114013682297796 -1.0857462688834139
Ni 3.974216946691615 3.2340806719620847 0.8407151962433246 -0.40613274090830054 -0.2261938290553911 0.8211586705411729
Ni 4.610792052450216 5.727741915531021 7.688741794293436 0.9044724402691648 -0.9802184249522281 -0.009942713035008684
Ni 0.5611100874098778 1.8505462015796785 3.0303488707923196 0.4881784425571463 0.1878687082229474 -0.46767415195620743
Ni 0.40795775115248906 4.221501434921461 3.730912137533973 0.723290914258406 1.9220381955215997 -1.4967659055703706
Ni 3.172599791000422 1.825939234812375 6.070269248813836 0.09223266948417663 -0.020038406708113878 -0.3178068626776978
Ni 2.900105492719442 2.631648417642303 9.965146538959738 -0.37440918455277455 -0.6361212611194336 0.7754020331313484
P 8.596983658916121 5.364172611445742 11.170972856656688 0.18947796169159625 0.3659867648170342 0.5694949793494514
Ni 3.0886949666780583 1.7644857558181595 12.447652441581049 0.32549163291646527 0.7651183918171532 -0.3025867032938337
P 7.643979767070032 0.06359174585398755 12.505538184413679 0.1306169256893299 1.1303921897275628 -0.2521077207076755
Ni 1.0212713267454288 7.981572006015665 7.907023126778582 -0.3109494734362322 -1.4233817362512649 0.12983325344576993
P 2.5697473731797884 4.436762157195045 2.62873193490704 -0.35603351025906427 2.468021464902356 -1.4389788193585733
P 6.568205927072749 0.9177284257527967 4.132462395298465 0.4987479905428765 0.19223007051543667 0.0007165664510503788
P 1.9912918403760322 0.5234725717226654 4.002359680658482 -1.0462078444691594 1.4015039623415668 0.676411733208364
Ni 3.4877772205745012 4.317737144594923 6.148421486770184 -0.2971861011035527 -0.11556543067284615 -1.4076933789817303
Ni 1.2273067199785619 3.1917172302891994 5.5088577397620435 -0.19585301198000465 -0.520488981764394 1.3701894684990015
Ni 7.778395551386156 5.369342449304054 0.13961302414188245 -1.570898523019727 -0.367651811224283 0.1059307357965595
Ni 7.1044806979866 6.028615518097825 7.370290743008368 -0.173361772856024 1.191220376758529 0.28021733445969804
Ni 6.177307727453775 3.3113085502165576 1.68736109164107 0.07798927219128504 -0.0015272352778038214 -0.1579061004225861
Ni 1.8337122595781417 9.051326547163782 13.085384823764821 -0.7433948840971325 -1.39080071699145 -0.5338234940897709
Ni 4.506792452000136 0.7021270056839556 9.586602973063652 0.2424246890919567 0.3580857648024027 -0.37338562838426664
Ni 4.367279901738892 3.7836727990551218 11.889904575576903 -2.9809488322694078 0.5906345895415441 0.4667999768813702
Ni 0.4714691179019658 7.093574714942738 3.654270661382863 1.2379409207435197 0.408197079636497 1.8348348609312144
Ni 4.523498518153588 6.572078738471909 2.0658635545859867 0.7124136052242699 -0.36249494961369183 0.17177231688171707
Ni 0.8810107027728848 1.6601938677153127 11.48180433419369 0.13909333859145723 -1.291915575187762 -0.8679563476210018
Ni 4.827833902607849 6.20586057753343 12.064377469305798 -0.9139271579241615 0.7669719000861243 0.5964218856472825
Ni 4.788566883256461 1.7371568602844656 2.786400115399675 0.3628749586609299 0.42212577390244727 1.2819607779678956
Ni 4.332232785374326 8.940695670591555 11.845147115348075 0.6655560214407829 -0.5391526196121683 -0.07815048035949768
Ni 8.744579789574196 2.710356002138908 8.246288712536304 -0.5797056013338662 0.11298789975365703 -0.6394868351575568
Ni 2.3104242872516116 8.027689517228772 5.487589246028684 -2.05585948708084 1.855992725955752 -0.1558080802429768
Ni 6.3596038828887576 4.581307535477367 11.548847814547072 2.7693964072762753 -0.3993810240067638 0.21574435158729297
Ni 7.688772849856542 2.504740772406627 10.536663893605944 1.0697558069924287 -0.1938094991874146 0.518675839815055
Ni 6.630454063122925 1.6854676156904902 8.591785505691446 -0.651664351060355 -0.7334776249834207 0.4015564343915278
Ni 0.15400179724824214 3.4682213498065737 12.457358218450734 -2.218786180646469 1.003436514939904 0.6264019769491406
Ni 7.574387903744093 0.9477883840420303 2.018753178752386 0.5930593969329528 0.9465778540796471 0.5920792924078706
Ni 0.711037212098768 3.7699992172991252 9.968715188520237 0.3866458358282825 0.32239628182059316 0.9389380781462022
Ni 3.2755581166875203 5.332294989315865 9.830618406577084 -0.46033699486484597 -1.6594200622009032 0.4417785151363681
Ni 7.47657201394786 7.578772218535595 2.686898091206544 1.2840289733508339 -1.3567654817836117 0.9215893024551096
Ni 3.1470976932965207 6.0071232416303175 4.248527995414324 -0.2070871901329272 0.35972612861930303 -0.39204566668761515
P 5.317296979133269 6.738947586234294 4.11825173498051 0.4790947350883233 -0.4591347470266286 -0.1981927158567748
Ni 7.718960683993861 1.7618734349215566 6.103583647436845 -1.203868404539843 0.7357754198786619 0.5947524683646596
P 8.989973542050206 7.8138536972624255 5.958615365456926 0.8317133061285676 -1.2037511622356882 0.7861952670921104
Ni 0.6315304035516291 0.9812553202838267 6.834975040955159 1.182562443973215 -0.10859774110576136 -0.3678346166590504
P 1.1801570679916207 1.4783361437594815 8.965956630981925 0.25940605414130163 -0.3672682026326191 1.3520899306848133
P 2.43282887583685 6.016494714497153 7.736654134374315 -0.4972564935990145 -0.26285750302501176 0.13923397793437958
P 8.944696357838803 5.958028049954647 2.0320276051825723 -0.8759604488724011 -0.9962844772761551 -0.5293713718556883
Ni 7.766959796971656 2.759478595782025 3.8479139715376 -1.7773352240528486 0.34827340669767115 0.35494310540836294
Ni 5.443419101302135 6.0319128881806 9.902354017156284 1.6926777958127688 1.211722096256307 -0.7764721262670757
Ni 8.592526272211428 0.2352778594935348 9.769417939082294 1.5735917535811736 1.23306688048067 -0.7059737631361971
Ni 4.643071570102648 0.25163318046366595 4.707428744247318 0.2029230314529086 0.5104526805743145 0.19210228668832077
Ni 0.20344134031482813 1.463137185815609 0.6848646795913326 0.907951914177333 -0.9572538457362547 -1.812554709376775
Ni 8.159319434854462 5.815501283274247 4.963730306565018 -0.6694808104164858 -1.0427088301769656 1.3836777327934235
Ni 6.9625202386334335 7.230812901905891 11.921601344721632 1.6868300787827404 -1.2726983788293629 -2.007627905767962
Ni 5.828361939995985 8.796917547397747 2.1804850710173946 -3.462899034528655 0.11134599327485985 2.472130859085039
Ni 1.5907024782700108 3.3231279321753138 1.0007700881005837 1.3800686752859266 0.4350561088108701 -0.05615854946943877
Ni 5.950583848798243 7.580206254831981 0.3783755004957462 -0.7557449210220533 -0.08478675472909268 0.5733706602547738
Ni 3.613296499459535 7.488199582134488 8.888378920943047 -0.8993250917402704 1.364080013167154 0.7971358252640143
Ni 2.8949447888502786 0.9162578534998138 1.5400663826249106 -0.045279697773405896 1.0440149505828986 -0.20726331069947532
Ni 2.2047257648198246 3.7187118682277047 7.913667190485538 -0.32892508407804644 -0.6684230585759326 0.4975997358710463
Ni 7.704081415670202 8.82258405690633 7.48761226663221 -0.46262321979586135 -0.8722315779575882 0.5795989005526728
Ni 0.8681116832967208 5.977145489243425 0.057379719833778584 -0.08519016081509843 0.569578025981561 -0.34081412220614854
Ni 0.28937665042500627 7.95107361624728 11.47401030125288 -0.21196791526399622 -0.27193298296371876 0.9691909634934727
Ni 6.404579645458246 3.742451106025856 7.440100908674969 0.06505662329001699 -0.5345508591740987 -0.3046024481722819
Ni 7.268974708570253 2.248943406289949 13.19503288310462 0.2169982785990521 -0.3494921095961207 -0.5485610574102617
Ni 7.527311323670343 4.563815946257105 9.390112598491184 -0.4290258434563901 0.34247608328960377 0.045764093608992154
Ni 5.654944022013795 5.002430105190255 5.635471270547122 0.7133402308035973 1.3523403561327225 -1.7148689871978275
Ni 3.1779249066742667 5.5504420521605216 0.32277051475361096 0.7218937768005632 -0.6866305827228949 -0.13100310538415502
Ni 4.323674237541748 7.424416935907287 6.021126560394591 1.8033897550480555 -1.0780797534770918 0.5209188702129609
Ni 0.8981625075968055 8.775279127103857 2.0919319596171237 0.3012114202128619 0.7383493512534253 0.5684616529889306
Ni 1.318582673544138 5.9010136896868275 5.807309921805458 0.10467346635069069 -0.5748518727859906 0.3893958877695939
Ni 5.041724526509089 3.5943434719754395 9.539184781795731 0.8273663420137816 0.3924855824385111 0.1240914658659863
P 5.683250254386428 7.8155434852549845 8.34978777038102 1.066075272817048 -0.09958088231913173 0.07324250153491903
Ni 2.762748563897353 0.46310786423500605 7.973210752348705 0.5487880858194033 0.3003092201135667 -0.24693209004400699
P 8.449013034702938 3.858754189859588 6.370351847920341 -0.41217894710238046 1.081365623317215 -0.7683587531313218
Ni 1.9299022993058594 4.684832168491702 11.977081194812424 1.66209606637117 -0.7426058125369339 -2.0901649452309297
P 5.347493947259737 4.923804726595991 0.4467032197234705 0.7480634932173955 0.28451210518030995 -0.2633727520985335
P 3.756590521228449 8.282052847049064 0.4379300231458926 0.379674546716772 -0.5155874306977185 1.0719870103157927
P 4.419361907866273 2.3254405654125048 7.949695297284702 -0.2995636001967938 -0.4641211444976264 -0.9027965952286386
Ni 6.831867657846683 5.153825975334299 3.010536334929306 0.04132765510419334 0.4236782059912316 0.11489745807154406
