# total energy = -340865.3356367799 ev
CRYSTAL
PRIMVEC
9.30898712938137 0.00000000000000 0.00000000000000
0.00000000000000 9.30898712938137 0.00000000000000
0.00000000000000 0.00000000000000 13.62464363068888
PRIMCOORD
 96 1
Ni 4.838997618914379 4.147228177460097 3.0201202356641987 0.7512328920843127 0.2564652263454228 0.25236020303811374
Ni 7.108593810816688 5.546471321426545 0.9505201821257083 -2.2343192432850616 -0.2426859131731433 2.2917916264699176
Ni 2.800618045954388 2.7541475828832853 3.0959549673073137 0.03341714200786503 -0.742575987740263 -0.2832985444881831
Ni 3.333101410964433 1.1165478269505742 4.779306532515236 -0.1709930155135313 0.8058912028591411 1.4991814569903987
Ni 7.0279035115578115 0.48309546541520737 5.720238458037732 -1.526334877476739 1.8022134753517673 0.6856265669384127
Ni 8.589877057156059 3.912995446731915 2.6124024306307296 0.1381404877598847 0.2481443651845533 -0.5491747797348607
Ni 2.700890868293987 3.7045951549104457 5.600791122330492 0.2041396774688291 0.6930526841991548 -0.7684765096561088
Ni 0.39818074785872015 8.377660080667292 10.276823753140839 -1.232545460759561 0.6038174067804053 0.31834987966536143
Ni 6.428963288401812 8.404088294741584 13.89332144784175 -1.1418384838912916 -0.03820273632196646 -0.5839857167664587
Ni 5.3704476863681565 2.4985134910572544 7.774316706663411 0.9398014545877622 0.6297971186736186 -0.08311759455678587
Ni 8.939587771537493 4.674693998480694 0.41197666658295373 3.769063170761102 -2.151650049119604 0.6772465704048336
Ni 9.90252800410981 8.567181746866126 1.0158748562116426 -1.3961599244208343 -0.08751906605859121 -3.1466659440959805
Ni 7.08531203434617 2.473211664409166 1.5548717194209765 -1.3052207769371005 2.434887658462865 -0.9604206735000105
Ni 4.53464028916484 6.340639619808339 10.319686052853294 -0.5237149449008593 0.7943333228182126 -0.8973731102202221
Ni 4.308003691823281 0.11409652998342885 6.79253880801123 1.4428401020861925 -1.1355063710256768 -1.5599132276528167
Ni 0.9230577395964495 7.326182072800654 8.330079986346576 0.8261926334206545 0.2746506390051979 -0.5062242443152636
Ni 8.913997366292609 6.164606675762955 10.639143490404843 -0.027493834544894586 1.2813403707750772 -0.33120359569957797
Ni 1.5332739386975656 2.361122152021516 12.176506867088614 2.588712903947858 0.22643679830413263 -0.8991623409101611
Ni 3.3455568355616156 4.434131156596993 1.3056552432282014 -1.0784291663967103 0.5874759893079043 -1.7662491414420163
Ni 0.7078469928906014 3.6905851294853633 9.537550551059184 0.8733453798470573 -1.0135370937090158 0.25968604727556566
Ni 8.002982663169535 8.433002008343115 4.167519907308332 -0.04841670074049081 -2.343099532715274 0.08448824965206739
Ni 7.023612068553849 5.423238951607784 9.6026482971041 0.23131932320741452 0.7732844725677134 -0.20625980913562542
Ni 6.830515751349546 4.886250036892929 6.877583851385626 1.1860378041163253 -0.34990091499876513 0.8610308241457623
Ni 8.913960130344636 8.862425578349118 6.812989721537053 -0.7039559613752199 -0.6114738948843985 1.3311356970306494
P 8.374001648778883 3.315842549078651 10.908638663864062 -0.7580013211563977 0.3199730170910812 0.41579726058125804
P 7.46651505172631 1.0098854539800826 8.141023769497412 0.10392784643391781 0.6271725365665779 -0.10342133911114447
P 5.402842961105223 4.948899519358578 8.367751594911507 -0.9559749790238311 -0.7356062412906492 0.3790906491888439
P 5.289673606226337 4.029720834642283 0.6358605964705619 1.3645610665686305 -1.3704391226159625 -0.460353192814762
P 6.8923739699207545 7.333806133148256 1.9983946811271978 0.5357572207773741 0.7434668749856487 1.8011235847216982
P 9.34966726657119 6.7083073701000595 12.892127795017412 -0.5269352516103699 -0.7550514944994545 0.9990607544697117
P 2.50125964222031 0.11310139927383332 7.960579296515852 -1.777923235345835 -1.0076343550713358 1.0408843753737171
P 8.077975862388445 7.421440936704219 8.668079995090299 0.07836516747346504 -0.896124839635418 -0.4083122650581226
Ni 1.1833304996412974 6.229406534224083 1.4471146095800596 1.2369235352225987 1.248844455029901 -2.2466235145737117
Ni 1.4552925546537703 4.753243230731087 3.041620272024178 1.0086656245493273 0.3781485969905487 1.418451645939499
Ni 5.454061007542965 4.128433332720403 5.418997777133587 -2.924957147395137 0.3800072474658423 -0.003120033686220433
Ni 7.471095073327067 0.702694468589749 2.7206100954421277 -1.1235052327997426 -1.267173849466708 -0.3917559033613382
Ni 7.0112218068656205 3.160624499950533 12.650372471899857 -1.7765865188122825 -2.1202370820259615 0.39799597073377907
Ni 3.357509574861154 8.062764977641212 4.234756858564333 0.6882969146817243 -0.6537060640807322 0.2734645891168968
Ni 5.516682563047634 4.312593022411032 10.855706832920836 -0.8368786523795909 -0.6760191257556357 0.930655783532752
Ni 5.076404714207315 6.144238612221375 13.467551655230661 0.8136361369118825 -0.44451494023092475 -0.525413672759521
Ni 1.4858632679401287 1.0829796198523378 10.15714462365746 1.2347218995855898 0.1054784787504893 0.7021675020162294
Ni 3.9928572461483793 8.191806155343862 12.434653454504168 1.0287389982604347 0.3710004159815417 -0.3395697082760862
Ni 1.7792918469594048 7.482694071120856 11.89983167196138 0.019054188417973638 -0.5595841479936426 1.8041325467513512
Ni 5.034486345775989 1.6765020125781718 3.211082933049612 0.9803089277835052 0.10143978990474144 -0.3495535589616754
Ni 5.056632425833312 1.4561955263921311 0.687554332143667 0.2860509104223396 -0.40165850718703083 0.36587877848426026
Ni 7.988563042316742 6.689084311958668 6.0550091791934415 -0.4946031151365676 0.7273591707905086 0.4771476386642815
Ni 8.703493243410628 6.205882724091736 2.9271318336883265 -0.7318490882410622 1.9637276048405856 0.6492832524226883
Ni 7.588714123988803 5.215937120251538 12.421069780683386 -1.2503238677889046 2.941788617130179 -3.54277909598475
Ni 8.20337722617667 2.7751672755144057 6.816068203535774 0.14161353391014966 0.22700475499246064 0.028060248571325865
Ni 1.1907776892360256 0.4645286908568511 5.4703759381476145 0.4615384713721148 0.6214680299826328 -0.521758849615753
Ni 5.999400083590909 0.8695012756259632 11.846191427107952 -0.3627520599298204 -1.7414660209600652 1.7548902647857711
Ni 6.372783551896583 2.195077751020062 10.184039217980123 -1.345383208088599 1.7725018072199472 -2.0091078327475977
Ni -0.258345799737212 2.1136892777366785 13.2160535463258 -0.9732810744024464 0.15758419830679313 1.8814350772882564
Ni 3.6530978388629016 6.566866621722188 2.3386567737103197 0.0039875238928382935 0.04487809145961303 0.574558767025604
Ni 2.8825650584573763 8.278761402849304 10.045858476847341 0.23951651430622617 0.4311300342835866 -1.1778197870819072
Ni 4.07756902778841 2.60330475764207 12.437745899983378 0.2004573435212354 0.22575494174575958 -0.42341466791719984
P 3.183785259590137 5.632430507323693 4.409833769645494 0.07956844375294685 -0.310325209588672 -0.5996686747193544
P 3.1197673560364563 6.76462674141019 0.26595962019912206 -1.6815325778292267 0.2623805633885933 -0.17870503944580834
P 3.2517874095769965 6.937745972526636 8.374169210544764 -0.16904540486885725 -1.6088377212676614 -0.7730615579236298
P 5.769142290308913 7.973677972114279 5.76618110154631 0.1342565793244462 -0.16406954892082068 -1.9645071633190876
P 8.785114441368847 1.1871099483606218 4.386317406702741 -0.5022392915255867 0.37419038367374907 -0.0521298879260199
P 1.5512775195428208 3.274585118723858 1.3355920145003086 -1.3568436433197149 -0.3200169829551392 -0.7185739683987109
P 3.908480588040111 0.6846173467472462 10.965399281157682 0.18464505907932716 0.7646368241950445 0.9660709298072523
P 6.117000516278657 7.0614437916950665 11.625403666294352 0.21626140043302755 0.1472913010212173 0.7070158312474661
Ni 0.5867435883972328 3.038788478180783 4.366943542972056 2.1322479904439082 -3.1741502655591787 0.8840077446569098
Ni 1.1127032153222958 8.563653640795625 3.049481711540113 0.663469057004767 -0.05876873339877621 2.6931166615769295
Ni 1.8078238920942067 5.814923888342503 10.033623675241904 1.772997001688811 0.24471939866340436 -0.6042776342462755
Ni 8.280558037339032 1.164703216667484 10.248252610260664 1.6318714631586735 -1.073845146570454 0.36265615778190446
Ni 5.437593409551622 6.279312013495754 4.320360441158333 0.5034315120614749 1.3749447237957997 -1.0968668042766077
Ni 2.205066294063991 7.744090425895809 6.262376173458643 0.6132122177317438 1.177347989651811 0.7442860284528343
Ni 0.781545312018729 4.704864425326336 11.957641412089155 -0.8051155010353812 -1.022839344946548 -0.12758970882723186
Ni 3.3610376809316564 4.402862269286128 8.463996280537673 -0.8106539143551071 0.9040219829953077 -0.5391382214344651
Ni 4.8681719841517275 0.2884073114350309 9.054938222068934 -1.101506102820832 0.9797435421983386 -0.30968243379835053
Ni 2.927639173479468 1.9780014833207344 7.185160228837486 -0.9235577390353902 1.255087607726135 -1.6620654702435507
Ni 3.0557401434957825 5.180898093208342 12.17137109896435 1.735399245940695 2.3161407447382434 1.6018551193022414
Ni 4.139529645216546 5.998338859073661 6.315117170168506 -0.8377152893482733 0.2901093967624294 1.5425395122610595
Ni 7.991299884492805 8.363798999034104 12.097743528137373 0.2950500285971564 0.046435408644403896 -0.3592553596304716
Ni 6.502494976662757 8.476893882017043 9.851979273836893 2.0317080866456174 -0.9406782007657605 1.0625497761622926
Ni 3.463399301911193 2.287031924540966 9.27669318663115 0.42774466275112144 -0.14825057961069307 3.3944727234354577
Ni 1.3183015020587487 5.675586971025142 6.526122116550732 -0.08762499550883619 -1.077788447488918 -0.825417702927843
Ni 0.4361102153633692 1.4479384549289764 8.162769563114018 0.35652253408034085 0.1498768023602064 -0.929315981675406
Ni 6.995806124404534 2.929258937216321 4.5234499559000625 1.7051422468283666 -2.931585708455248 -1.1225032738977891
Ni 2.262670305579212 1.0741640091695785 0.7485654328984761 0.23434345474571897 0.7529115653383163 0.6967357894776969
Ni 8.686839465679418 4.619398615739838 4.960351435157872 -1.4436659404215975 2.6429354127368483 1.257696248993576
Ni 0.09717558432550752 1.8711063856754078 2.2461859514112814 1.3735419299110023 -1.3062011385724988 -0.5707897869014751
Ni 5.302426918407309 8.586888872331174 2.5891997805496554 -0.5433064938795418 0.09941504616522877 0.3677752241760247
Ni 8.904353255767436 5.2135726375552105 8.128162473067317 -0.05199541923068464 0.24282192453037532 -0.3804705602555061
Ni 5.836641754998129 7.204979062146457 7.630563605916377 0.3176765077474206 -0.5041578487045382 2.635980321575254
P 7.400160592437283 0.9607246936678845 0.07642585231719665 -1.4567451422030588 -0.3771636073694601 -0.04535991619203801
P 1.03993486399481 0.2887796709147673 12.65046742356719 -0.2205343167767686 -0.8798716110013491 -0.7469530337620361
P 0.4170584425826563 7.341737390066642 4.9386196050217555 0.7848523799109709 -0.3702262568196785 0.10477091116050342
P 3.1204934570219423 0.40423996749273067 2.8205187983489 0.21439889330299206 -0.04227587795007558 -1.5565689937709322
P 2.7101626193394237 3.668876571816731 10.945316072618098 -0.13378143946024057 -1.0047866012098954 -2.5485018789466105
P 1.2177458245559343 3.5651186027881834 7.339322638840552 -0.5160887958141692 -0.24080335143844983 -0.25571806376675316
P 6.927189581276108 4.806360310515485 3.482649356114865 -0.8189359518582412 0.6382287943807394 0.7134687859616616
P 5.148009442160625 2.0233921039006018 5.667524457390149 -0.12944116021367386 -0.5617500452967099 -0.8783230355673065
