# total energy = -381164.8034091863 ev
CRYSTAL
PRIMVEC
9.33095270294121 0.00000000000000 0.00000000000000

0.00000000000000 9.33095270294121 0.00000000000000

0.00000000000000 0.00000000000000 13.65679246791706

PRIMCOORD
 96 1
Ni 8.326195633090418 3.5114240862522252 5.008970131846449 -1.2932252951381213 1.5521862913222042 0.6620408091986727
Ni 4.635318666239757 6.009534711899825 1.9644473192057246 -0.2504586151400267 -0.49154144549210826 -0.1974398968511503
Ni 7.606657884463802 8.601225461274634 10.924273419526875 0.07450722717995555 -0.7849472536176223 1.221168072160555
Ni 0.28988657093009973 9.30722399766392 12.85461983932354 0.8891676915912945 -1.730370425267536 -1.677440410037724
Ni 4.452683930801261 3.329834417506066 7.49617194079752 1.109535657993528 -0.32168357202428466 1.151540284560088
Ni 3.2243666601535232 3.8741275451614254 5.817971187908675 -0.7754287726042258 2.488584376655372 -3.3955165913189393
Ni 0.2852957422459052 6.14905111532681 7.244873524386702 -0.8334835106551128 0.09819017261919219 -0.4290440982888353
Ni 8.322239309183713 7.0867745288365995 12.627930877326735 -0.28768921735671105 -0.4315136428752504 0.829082810484256
Ni 8.479456529712156 9.104331764108785 7.024138643250435 -2.5628054400534768 -2.162279246698676 -3.5716489849415645
Ni 7.513908215518895 1.4662938860170427 5.525974888593419 -0.45292476156117484 -1.6084433140427201 0.21597009444485385
Ni 4.8777554769567155 9.080696461147271 10.626008586248119 -0.7766837280572494 0.17556315138271697 -2.1189139923391638
Ni 4.129170472854698 3.230422448397512 1.2014441271305016 -0.0670764819335232 1.8015174777260072 -1.132983347493507
Ni 8.207683203988884 6.470829016087886 9.17871625212639 -0.7466144194756947 1.1852510465489718 0.00888059031908148
Ni 3.1764148946899553 4.857787238370991 10.544791974729362 -1.150736814822186 -2.5675671231081783 1.4327305244560162
Ni -0.1178443328946478 4.34792532584709 13.506636015577316 -0.40223237741262985 0.2280689345909169 -0.18643608954147892
Ni 5.5857694991097935 7.264435866533884 9.038707174401589 1.6972723571619868 0.24166981320380315 0.3288039851191499
Ni 4.53265019467026 5.239787107277984 8.832489389336196 1.615007083303167 -0.6275121792941838 1.0254708690321241
Ni 5.21304459709729 8.802064885255536 1.859617799011716 0.33964581292966023 -0.44282932499838573 -1.0897201659294973
Ni 0.14563284286294007 1.648891297645098 0.6048090208084971 -0.5037377304479841 0.32002109672019724 0.5488837308570031
Ni 8.43035705707754 4.282851262343893 8.024225478530171 0.1298957312525892 1.5723257423845567 -2.4774977798239077
Ni 1.932207011747129 2.3136843473079542 13.110657446565053 0.33618279408172425 0.3077132258871217 -0.9699880054734715
Ni 5.440197307438819 8.455821226750643 12.574627810541244 -0.3725181381776488 -0.7200029875357535 2.0710403085863365
Ni 2.1981858158994987 4.8046474632561775 0.2951725555837506 1.9500521642360225 -0.5370332592763203 -0.6651981238807317
Ni 8.222174173392448 3.026849055301836 9.663054276880482 -0.7651214771409468 -2.256905870336326 3.13621929484136
P 1.497841836791965 3.2476473869158515 11.056620852063482 -0.8836511326484394 0.6067276384486648 0.2340601191773453
Ni -0.10572902402562705 8.752909426905257 1.5769767127833991 -0.4506213102389788 -1.6725709977605645 0.01899890970000599
P 8.834098045566186 7.092242467066148 3.47273142506371 1.0570884959374052 -0.4068261674308994 -0.35890954625527866
Ni 6.314768833683102 4.8150328135112765 6.791837113258624 0.9799029505943382 -0.1534146403101358 0.20080984176464772
P 6.798438762230306 0.752280994430898 9.695776061493762 0.10719211900748636 0.4713433732776785 -0.4756389153292389
P 6.047810279506666 3.0084110929441765 5.542185552563036 0.19626515981675877 0.15679589807754288 0.9401200142694456
P 3.81220734364046 0.777958842918774 7.895305304887274 -2.1238466537540908 -1.3595361025502135 0.8286896888108954
Ni 5.724819354906272 9.227929562382851 7.395426578560975 1.3445280591771553 -0.5482831211585267 0.8957026644963348
Ni 0.7374335826376249 6.426926884057123 0.8303194834906393 -1.4844755182387919 1.13782062098115 -0.26297577377043097
Ni 7.310176196228848 0.020298554308123648 13.500094084702338 1.7174521745439713 1.2954675542050786 0.31456547292226467
Ni 0.8410463466112695 5.575841365532591 4.835665415922843 0.031302923878339634 -0.5266328898786027 -0.02800728384620338
Ni 1.2605557119158113 6.365099992062259 11.989393262118325 0.6454291687839206 -0.4484613264731825 0.4075159944090723
Ni 3.590466585812819 7.80909290134104 3.326617105046086 1.535521943292646 1.6675756014285021 0.37701731159958296
Ni 8.1662444434472 4.997051706077502 2.9920940561148046 1.4008305904236262 0.31698436677640246 0.7529467894516259
Ni 8.977925349099062 1.9954708704439563 7.51303857073563 1.9320238459794017 0.6656375254109956 -0.6260265958875928
Ni 6.32882124831399 1.5006131297171799 11.751397051748537 0.5198729454469498 -1.34527290776298 -0.5978015396036285
Ni 2.5566156985132493 2.074457384288889 6.710729673885404 -2.698128255858908 -1.1758438943024587 1.2533922223015834
Ni 7.2582214520955235 4.855202564497979 11.838431512219726 1.7019455942679398 0.0001555517412577966 -0.12512890599156512
Ni 1.4718084790096422 7.197570260129538 9.051899275201821 -1.4882619818644174 -1.6089526495789712 -0.8024569803666115
Ni 5.492413318245227 7.821717680222575 5.324469234596154 0.02721229874873378 -0.11650156933387032 0.015903044383501642
Ni 5.3403374526049765 6.483435133064201 11.291094627822934 0.511563654250306 -1.1919649682340376 0.6587017175231107
Ni 3.595272026407047 5.927021097968255 4.450639519084377 -1.004245898215077 0.2823127835361461 0.6725450511641062
Ni 8.596252063533424 2.3509521720328994 12.278029485398664 -0.7689935585018434 0.4421279280559869 -0.7742486362531956
Ni 2.9928750568482743 8.91072382840075 12.51698305150625 0.003680277065064629 0.08488985596586025 0.03893087273724263
Ni 8.194386596519417 9.062361139268322 3.991593974475362 -0.1941653398649366 -0.6962297963755558 0.6238874380574029
Ni 0.808192062470926 7.993285905865431 5.464533364941355 -0.599362199222529 -1.361241001056462 -0.15429730002540523
Ni 4.272223307320931 2.3712563249125895 12.691611829605236 1.2876809682811243 -0.6560565665907798 1.9224344025187536
Ni 7.676462740940345 6.3376949842462444 5.253904838577143 1.0416539065498898 -0.053877466744745924 2.623892280062468
Ni 3.109549288285609 1.3034874248751187 4.482459933675516 -1.5237969415462338 1.5235837970941633 -3.2661209396312203
Ni 3.192202866506331 2.0251526306968484 10.826982375946608 0.5797315694757952 -0.8876057464208132 -0.5343608546504797
Ni 0.9371542254005694 4.382580483841193 2.214654014161155 -1.398359246064998 -0.578801601462358 -1.4862812039889628
Ni 5.496052389763186 4.658795343006899 13.139459297986809 -2.3510234155480414 -0.33147587552435814 0.593857724464532
P 3.506954559951963 6.235875629364271 12.880649464724819 0.38280769302911494 0.3431054893434865 -0.9653649048791633
Ni 6.470959649424429 3.5484679681145272 2.5648138734765284 -0.7795368812353284 -0.38704487103891405 -0.6635135370894574
P 6.676361909231694 7.535863947010582 0.5096454344233446 -0.8972293855535063 -0.6940772688089273 0.4680143089044456
Ni 2.3257679309381003 4.789549981932952 7.9252548634800775 -0.6208283395161049 -0.13268332130005536 0.015634621213463398
P 8.187481691587903 3.1485993249590933 1.361643520113149 0.9739667876155613 1.1919631684618246 1.1499917091260452
P 2.185906282264539 6.660863196946232 6.532808935705557 1.5837046736454596 0.4402407383356032 -0.38757966049646153
P 6.913302788861272 7.242760063620502 7.282116155539599 0.4215660447442353 -0.0930029719912979 -0.8123798959072783
Ni 1.0049435961133204 3.129134957814317 4.116826555646728 0.6528568287065595 -1.5711913716697972 0.8884554960156184
Ni 2.232999600087974 2.122782387856864 2.043643779484386 -0.44351375265992005 -1.1824372312492604 -0.304844646090075
Ni 5.082373936744728 1.7874186200954076 9.178675195934906 -1.0584966891388417 0.28721073505839567 1.1616547472862704
Ni 1.7749617983608554 2.3087016186141334 9.006886759810449 -0.5615165891296652 0.33922518045247385 -0.8825280747875899
Ni 3.5840935451800857 7.680008502932203 8.085612882657097 -0.7544678540818426 1.010196459371557 -0.2607101176647058
Ni 6.766825494787113 2.4375247503498856 7.752128368751325 -0.31085459972958074 0.1946055127261487 -0.9301713876971658
Ni 4.882943486607959 1.8084599182312995 2.631158812725228 -0.2801340307172724 -0.9893155021574898 0.6077247122546116
Ni 3.023573890935673 9.002838992568167 6.063192354884501 0.0919336501865191 -1.7989815986780306 -0.35931269523096826
Ni 2.4032241685549685 9.171458637186214 9.80681999612613 0.9998667953107748 1.4844644624951984 0.14248642343340623
Ni 7.011035186499999 5.558327167483337 1.0190361338404321 0.5029926247518434 -0.36969840934066656 -0.1336019764595828
Ni 5.410188963844571 3.354598765733409 10.934392837632583 -0.1094318069712825 2.1982880606931174 -0.9638536104409593
Ni 3.2580980538392215 7.009113010262308 10.489031135026355 0.3389816969831001 1.8930760039612948 0.47480536368435
Ni 8.702167706611254 0.1338674447168 9.04486653621955 0.9427741640628408 0.14313177032688898 2.1149485799335124
Ni 6.582296575968757 6.6578772921109834 3.432006482396704 -1.9034174950966185 0.9852780988633226 -2.3822762029147357
Ni 4.619605342044262 1.356347271411627 5.942166167149791 3.854194710424124 0.9784839587596247 -0.007183662232632789
Ni 5.335177435811563 4.540581504388889 4.34229969451843 0.25157858767708285 0.32497638384294353 -0.12324685847750386
Ni 2.284114558486384 8.348879178885696 1.2308618214245262 0.20833726048994444 0.2502799234703173 0.17307869439796644
Ni 1.2628604572105186 9.237801710244392 7.572281721952743 1.588263753771052 0.369361594826538 1.259370294261889
Ni 1.9607317338763623 6.3337013365291 2.7963782582121373 -0.490153049785014 0.5266107783914156 -0.1401822007802618
Ni 0.03086585813912026 1.3298193731409662 2.7277668305744323 1.4308407636324714 1.757636717182657 3.046632804730779
Ni 0.5255472438615648 1.2111763107028894 10.735631416797963 0.677937168713955 -0.43172138801068227 0.5839553777491555
Ni 7.248293318518322 1.070689488204448 2.2358082168236293 -1.4823993524360533 -0.10991800257908167 -0.04552266702214741
Ni 1.6733290625310848 9.111964483343888 3.6574255017432664 -0.8496580635324466 -0.2899636152131845 -1.4741679656651965
Ni 6.6744490639466125 2.2444206860827993 13.909306743801578 -1.4643388953899168 1.1207682934845538 -0.0013657699992750672
Ni 0.7365788673785351 0.945505427986655 5.514667640220438 -0.6958970956264855 1.4671470542626732 -0.9790532009995332
P 6.78260413565088 4.911020323011905 9.769317964490671 -0.7779170862437184 -0.24112782465740407 -0.508160542106028
Ni 4.385501072008171 5.960789815464393 6.66882996428478 -0.8989653944080066 0.43457042742370317 -0.7811219663342612
P 0.7716940413363184 8.083077662832919 10.81380333848003 -1.4159890433316193 1.1605088066072853 1.1052043776080256
Ni 2.851072570031801 3.977141261977499 3.227646489995992 3.1281069501468703 0.969921156791278 0.35918748250701366
P 3.576535473565863 0.7877908676840907 0.8639696978886289 0.08930803963821392 0.3862717403183154 -0.8163836177500327
P 5.20015855154267 0.20269814974084382 3.991293517801316 -0.08691331415379225 -0.7455533252010322 0.3851502251193625
P 0.8313113637530984 3.7192617246907407 6.260833128310643 0.0828766821905734 -0.1169635965719534 0.950510099254518
Ni 0.4487600355468449 4.846468792854877 9.95132192753272 1.1262866521996215 0.07602340671416585 0.4339988711909494
