# total energy = -340865.9314999629 ev
CRYSTAL
PRIMVEC
9.25860050941084 0.00000000000000 0.00000000000000

0.00000000000000 9.25860050941084 0.00000000000000

0.00000000000000 0.00000000000000 13.55089771920504

PRIMCOORD
 96 1
Ni 1.1762125855626844 0.9534599202914894 3.2992911162638534 -2.530996523072996 0.3500384690178939 -0.385413248972762
Ni 5.25122812335756 6.6554800349782495 6.378434937388574 -0.6425011965038483 -3.1568968777953694 0.8560719374785902
Ni 9.373777315232086 0.3546803130529946 8.065345435977298 -2.4268277642728657 -2.1941874082611825 -1.6588215093849559
Ni 4.7237378869181486 2.236155668216866 1.4329943104763314 -0.6803347224118542 -1.6692450187111252 -0.10188047698658582
Ni 3.8293015437123183 -0.060688273424482714 5.2070544153366365 -0.3642774954354113 0.2201620210390144 0.28191529098741125
Ni 1.2962873732056508 6.222612693882435 0.6210502444654508 0.34954867386566896 1.18486332419225 2.030282152832368
Ni -0.040084184256415974 3.613141001874063 2.146408351805552 1.1697928030123725 -0.4334692239397244 0.5762024732766141
Ni 5.144170927774584 0.0797424728977825 9.379863919087162 -2.090696906475 1.3710926970395614 -1.1679176974768468
Ni 2.8558615639148126 3.0580045848577453 5.752098957996347 0.9345720878680226 1.096551587029034 1.835284289763807
Ni 8.238228502306297 4.6926197312185565 4.310824681247435 -0.04438752497643968 0.05811078809980314 0.7127113389703468
Ni 6.5341368190904605 3.5168978514732117 5.751597141858615 0.3049932558527973 1.6805419317811832 -0.08618492062819996
Ni 1.8618674913910074 8.419419310708863 12.385452789912744 -0.16826044707371668 0.09122582548621708 0.45064290750553354
Ni 7.695628230132958 9.308689354932135 3.9493142987330927 0.99429444342932 1.2710461879379207 -1.2910845946460345
Ni 4.823425236640704 4.173397424871301 10.881573709471626 -0.27677488443705234 0.9250574635093681 -0.302557392717795
Ni 8.578593167533434 2.4086804267132065 4.345962921209081 0.039759282175808944 -0.7150070769830589 0.5675160012462097
Ni 6.262452451090215 1.2693170704526273 5.647580470623079 0.4839716035646504 -2.2050986558570473 -0.4741175935887061
Ni 3.69892193390522 7.728218503284569 0.8700640037046087 0.10375815362527292 0.1857526903212091 -1.941405544304618
Ni 8.00993919403946 4.331071388442873 8.309464173223484 -0.1302016925287822 0.7966090062262667 -0.4760757457563413
Ni 4.3989184116403175 1.6906296783401429 7.1479764656211175 -1.288288519958136 -0.7257067227887503 -0.05229109609423253
Ni 8.243691076499324 2.7894496237680784 12.25747763861061 0.6101022113478525 -0.1546623966743078 0.48791773269659194
Ni 2.618267362319177 2.925523272776381 8.811972854260146 0.4507092419670948 -1.2508116060586008 -0.8143521891423008
Ni 2.9711496551886363 3.1899026051184975 13.497533828589274 -0.7646782189559411 0.6656251841158214 0.2591941952408116
Ni 5.282050003846682 0.3373732114614303 2.4537827723469445 1.6764857594339384 0.20750859394106194 0.6993066355286666
Ni 0.1024621522406058 2.1789375181950037 9.25508668833803 -0.6626095372179492 2.23168540520664 3.2187974719549084
P 3.6314082203195537 6.188985457494182 10.727717066814943 2.0524358061112715 0.5663338080126504 -1.374407106124775
P 1.4427399131807022 1.5820170379022032 5.3912783412063785 -0.06723434766762615 -0.804669157526582 -0.33728245490380626
P 4.8116575556248815 2.6535981811676277 9.288869469211779 -0.7497763621434442 -0.5354216918148262 -0.28200759359090144
P 7.109132933808542 5.807660744419681 9.98566987811394 -0.439354736186224 0.4627196361644096 -0.6844243191001954
P 8.313565733168417 1.8026124492971696 6.494687774816489 -2.3203169876031198 -0.5302406618345191 -0.2819895958687724
P 5.9917680119253 3.0509217556074657 12.346073185141226 -0.1737302119390363 -1.195889500099424 0.9097956522542913
P 4.8881891459292035 2.518496685193677 4.730170762425461 -0.8653425641472388 0.9185322607963406 -0.2839004397382401
P 3.3559926363874597 5.455611725579665 0.7866486440570409 -0.2092805982398202 0.372864465773474 -1.0970935755754332
Ni 1.4914308923012483 0.7763271564123205 0.9954689675559223 0.4759932133448641 -0.39995258023951763 -1.0264221772018
Ni 7.319914228856716 3.5206198088047307 1.0164295128365848 -0.07116453595996776 -1.3607625187581467 -0.8881369363339351
Ni 6.520859986221311 7.372771578124485 11.62690029440851 1.1002195227989247 0.4784830696462533 -1.0645580648415731
Ni 2.642191585564564 6.609788842363703 2.6125585093574486 0.466375487749442 -0.9316564568831245 0.3449489703101285
Ni 7.635465845207058 8.72613822234709 6.438966740467528 -1.9099979765276138 2.215365327890378 0.9756097225356231
Ni 2.686855073542794 7.453441762775049 6.784975448454103 0.5099266328675154 0.2345144331059445 1.073579294503577
Ni 3.3998228503362458 2.3192053131515107 11.285255164756128 0.6186940667819215 -1.6065527818882268 -0.6292507592518454
Ni 4.316535385929228 4.709266694606794 4.719167841796661 -1.5022282142365226 -0.7750839876702975 0.7492551995326515
Ni 6.102121269224747 1.127780847251299 11.262882682925571 -0.38416549260859 -1.2060672119633744 0.9243326695282016
Ni 6.073845503825593 5.860768075896282 4.105867971665078 2.032198138908158 1.2944054314891513 2.4468569150095987
Ni 3.193883803259177 9.008034826508199 2.7173890115617425 -2.6503820988228806 0.848613681428332 -0.24258178349511125
Ni 7.458348820948445 5.605091827861698 2.2664692515480276 1.006419508827628 -0.4057627591633915 -1.1648945943798066
Ni 9.057410942052954 4.6268558930947234 10.826841493637607 -1.880076506377833 0.7128404083490433 0.22315118557432537
Ni 2.1654477375183285 4.392474425812613 10.516106201177456 1.1608057690224138 -2.0708860423966593 4.157868219024233
Ni 8.257199374376654 7.184331285665753 4.852901842502289 0.4244173981501014 -1.8157691025490148 -0.76400021905231
Ni 9.085223777435749 7.215819785378431 8.95635702292211 -0.13602806940257217 -1.0785705770705813 -0.6384123711464554
Ni 2.3461385815032254 0.4349171952082475 7.281913229673912 0.26917804592640093 0.8770531677159475 -1.6579825584234285
Ni 1.2761128830927646 1.7658280301973541 12.299729261203614 -0.5449270602021002 -0.32675044502423084 -0.16927011928515362
Ni 1.4503967756512655 3.9187951744746683 4.093495704047891 0.016918115911577315 -1.1115334051498469 -0.060259973232322024
Ni 0.09794951044114694 0.002347981042968331 10.572369789505588 -0.4261372090546855 0.21091402007818516 0.308265755956482
Ni 2.3264455386073517 5.922365543872893 12.297384983600777 -0.39297203515662643 -0.03358760614745829 -0.09992823835622146
Ni 5.235081124386989 4.17013839755614 0.5618229781725942 -0.2289760197862186 0.4191677197153878 -1.622664342738109
Ni 7.099355851863059 2.9244029821367947 10.206210663766976 -0.3971235954311548 1.7176763747396353 -0.8117366058963246
Ni 1.0514066531525381 8.54121619801268 4.906834115268042 0.8688904293994971 0.21199388340592526 0.5484247889427135
P 3.616862959205582 0.34925847670140836 12.876848372976715 -0.5696289338241545 1.8148319354467262 1.7156475172350645
P 1.2642989090753056 7.339088790134269 10.528003502597858 -0.30466286909657214 -0.4880971956972498 0.9907208671454484
P 1.7888171348096977 0.7722218930272569 9.251590640854495 1.2451482371252363 1.5990598159452911 1.8760059358528853
P 7.253372668305402 5.581880516841504 6.101941652378399 0.10291740289153242 -0.40987061068417796 0.5236617230654207
P 0.8211684095168323 4.552490815266957 9.016428673564803 -1.2818890441896957 -1.1346663916228845 -3.2376374874795464
P 0.12555680489667914 7.861246072785235 6.708236465502452 2.738552682422542 -2.3687108055254753 1.1245570711030246
P 2.8860816353826704 5.275846741627484 6.5951408107861 1.6052970551042547 -1.5764150819625817 0.08035031622429388
P 8.442732466332657 0.05857175738969343 12.586480149516253 0.3549778153010402 0.33603829808405994 0.9303431373883397
Ni 4.426518299215588 8.411123604815725 11.463760979063814 -0.35188966329401977 -1.5321185740380516 -1.067712808420471
Ni 2.057455423302309 6.235037735521487 4.973165505591931 -0.19388200429656285 0.01953447048850184 -2.09688118090884
Ni 5.49954378413205 4.635105305986225 8.382137704771477 0.8032830758123327 -1.916998576215163 -0.5418857022726152
Ni 4.864903766106391 6.644925230605284 8.822311933245489 -0.09137494946957166 2.4760561622813744 1.323422901767424
Ni 0.6832273008225411 5.472490153976082 6.8416584513770555 -0.8305316271156405 0.48793778730125 0.6832074159739588
Ni 2.650366929653448 5.628988275306105 8.791700222983792 0.9001069642116175 1.5290425062158892 -2.9786824048327345
Ni 5.762793567234253 8.654124829002424 0.12995834349221205 -0.9684597417544031 -1.2694562177429816 -0.16743229474546648
Ni 3.496019707735461 4.108096516763826 2.4529698672382194 -1.2177230510347479 -1.1139584696515719 0.8456911084648984
Ni 6.751963908987606 1.3151193662710987 0.07786112531130314 1.4861904440473694 1.0261820361665357 0.9181717921331284
Ni 8.672966080668198 5.2090089058657005 0.13236095027711064 -0.5163127388995173 -0.4446766626197696 0.06619485065951826
Ni 9.075418919689284 7.032323585494405 12.030947464405934 -0.8625320912816371 0.4304134678325361 0.5314922748534331
Ni 4.984756347341505 5.6357563121452605 2.279816449779665 0.29522897737718184 3.2443182419338314 -0.9574736750565447
Ni 0.6954440239542315 2.8746842983799334 7.210838658402419 0.9742969172614705 0.6110136674185283 -1.5134096847746388
Ni 4.800658338436212 6.007081736866427 12.726609991327885 -0.6671956139267348 1.425289494796939 -0.11185764280395574
Ni 8.671966151832866 7.642770880865189 1.0725199653385988 -0.016361472077158917 0.7808268036913456 -0.06944112551095782
Ni 5.999378581394227 8.151790209651912 4.943678715269985 -0.7252678354791187 0.5412578388806292 -1.6232083881670367
Ni 6.857447142514965 4.97276645991783 12.125803676477775 0.9116774426580363 0.3385299541576621 -0.6173534935936271
Ni 2.7590999318956406 8.067481395072772 9.33072760129088 1.483729898322019 0.5902622938037899 -0.2940565543356355
Ni 6.069095841857759 3.5293784447142262 2.9456940594491363 0.026558210104502645 -0.4619961277348236 1.6415411250379535
Ni 6.48422370472673 7.679870092376128 2.458132462780645 0.05222219052951006 -0.08917279961193028 -0.40876812164861864
Ni 3.132804816900888 1.8858843006396662 3.673729282415012 2.164880174656633 0.6026321282230525 0.2816622944363407
Ni 6.415330459692316 2.192982814891309 7.811116307173848 2.266269313829097 0.9555204079849157 1.3704131544740334
Ni 0.6348733347539038 5.73983223842289 3.1605843213225056 -1.7266083871219426 1.7107400526311185 -1.3929311330708913
Ni 6.846975665544945 8.172825749595225 8.802175403393942 1.7202109682360311 -1.1444388976286162 -0.2896237153752625
P 2.1062667642271076 2.66442148495008 1.9679562373797628 -2.010045771180835 -0.9509759831473428 -0.7644051678002125
P 0.999965869734825 8.064176074755975 2.7116023863572662 -0.8416189952780538 -0.0293555703439817 -0.8852310755410495
P 7.762345704090489 1.7022399631504042 2.382450811986356 -0.6408952854693092 0.48582511183362137 -0.2714997520810421
P 6.863307836522059 6.683172508556791 0.1381799805827321 -0.2148732618362493 -0.2786679876947072 0.7579702108081462
P 4.1876464107748035 7.532408364965415 3.667970433011517 2.936727143446871 -0.8871529751541108 1.4934826068334084
P 7.386140996996907 0.967366337982887 9.392208410903367 0.6344091635243332 -0.8763813384599036 0.43852015610007056
P 0.8773116360407113 4.0442399503073885 12.602957680518504 1.0268764911303991 -1.06564744125101 -0.010866253290542577
P 4.907011880394324 8.541429145820205 7.105806318710993 -0.398215800054069 1.8503378416628196 1.0026764968454278
