# total energy = -340896.25049978564 ev
CRYSTAL
PRIMVEC
9.03803348034444 0.00000000000000 0.00000000000000

0.00000000000000 9.03803348034444 0.00000000000000

0.00000000000000 0.00000000000000 13.22807557691500

PRIMCOORD
 96 1
Ni 6.260094447845478 2.0726741340518045 11.321526036568969 0.0641842479873927 -0.285909756858785 -0.0452249332760705
Ni 4.519414396357185 0.4577673559948625 5.987781211534426 0.28765527879498204 -0.4395226292226559 -0.05172802450191091
Ni 2.758814519154412 1.676428671722306 4.717303946259033 -0.09634797720413084 -0.8432848130162509 0.6776756875224523
Ni 3.4374985266642586 4.614223367203325 4.979854298841961 0.11008615272582975 -0.2644004220320995 -0.37495502975391554
Ni 4.932515791063046 4.6618809175628755 2.5064952204320963 0.43949666108072694 0.5253064577576952 0.5010714964697305
Ni 7.417486934844039 6.020107545759916 2.548573592745573 -0.5763392559647945 -0.38746678906768106 0.030674803376037493
Ni 5.2626841908705115 4.64605532099933 11.382692735519914 -1.0294244543632336 -0.45308288440559397 0.4610363349247157
Ni 5.511447023431916 7.935980837561037 12.242147353781975 0.345225878120599 -0.2040201211718293 1.728960432293887
Ni 1.7516703001583507 6.325349049323945 0.4797532761550454 1.074443699386401 0.40650323687384177 -0.3731976807431766
Ni 2.753473041387961 1.4662672800077894 0.3000139050189947 -0.27210267577236363 0.5225222101443389 0.5781354286332688
Ni 0.5400948026523918 -0.12292629289593329 4.651269362494195 0.2824814479035264 0.8274509313077878 0.09954154444076406
Ni 8.631285788577657 2.2758491259127394 1.3997157207298536 -0.39149287950793865 0.2801193754292531 0.20338197336719813
Ni 6.796293858082742 0.7471181891545364 4.67735493462538 -0.17245571610198687 0.09927826347704838 0.20375426910495228
Ni 0.7472221265391628 7.279593658561908 2.541708302540165 -0.1516565199684485 0.1975849070694468 0.07561177309804398
Ni 7.684542747099684 3.838678755255148 3.8320547805427423 -0.06209779777200919 -0.6881619317657567 0.03295614321104647
Ni 7.470034061297752 3.656896788560353 12.637216967960178 1.2828112988936489 0.14748490508926212 -0.053196895737953546
Ni 7.9919804927910345 8.99798591957293 6.899142159678894 0.18077554882159189 -0.3086547638647845 0.05594206258325849
Ni 7.0141195021592715 0.3487162520448771 0.4032183051329108 -0.30786106431889554 1.1924923014924174 -0.9026042767121746
Ni 1.7467807240641884 6.462284294060824 9.394764625875727 0.7313631497435791 0.6115633692744112 -1.5743191186655014
Ni 0.11928938823735498 4.793682559302556 1.3391175140826475 -0.37393455890920113 -0.96953317732424 1.3520027702876456
Ni 6.411617078563831 1.9429241259043137 7.019623664527748 -0.753275119325322 -0.05823754348565454 -0.3848725459779436
Ni 3.4960740214263013 4.161508271904648 0.4748402011739242 -1.396626836754924 0.42507354367686145 0.24880308181447472
Ni 5.922071996973637 5.57448730671617 4.697065077963917 0.07312885877519018 -0.010177454753634086 0.25432426874302005
Ni 5.466835290343591 3.0472362424758606 8.971545152727327 -1.1577173599050772 0.09981331004491198 0.6712199045947795
P 0.0992150121509527 5.431342933002047 12.51176183330612 0.985197366224058 -1.3686519488085527 -2.0916664694771203
P 3.956652205822799 5.970027802436899 12.66010126864487 0.204361563671648 0.9169086091499886 -0.031397540474674954
P 2.2402392741364014 8.383372531160154 1.3879951989573778 1.0810511774005898 0.37342008116662784 -0.02144351458575662
P 6.469379150315754 7.874793351133167 5.849586968738552 -1.9001303397049147 -0.014953021765406506 -0.3731532006584864
P 4.741451764019445 1.0425733101034842 12.532133560692886 -0.18266762363798217 -0.7201091740963147 0.3163189652782617
P 3.9026409179508703 6.364393353809676 8.326742924998985 0.41792253445437705 -0.6187940826948956 -0.6207239527277567
P 4.68614803736477 0.9009879971587564 3.6552609045066684 0.48457709835913315 0.5817979650865206 0.09223806880081534
P 0.20501603927383885 5.54993096984401 3.7124987703187373 0.4835088049956188 -0.7436265404919645 -0.11291050954850232
Ni 1.4638722011446603 1.1698107449530504 2.5998065891362714 0.4850982609699258 -0.3292498144073168 -0.22415263025564622
Ni 1.7781336620875685 6.571129330848245 4.930434331960485 -0.15296135482280107 0.010700674246955765 -0.5997977440980509
Ni 5.98235568005693 5.769157509104635 9.177837362323707 -0.5891253519858692 -0.2055877227692653 -0.13931368213237943
Ni 8.511947594959695 2.252332162886843 10.201333191429857 0.33438430742040476 0.48834042205630734 0.244164811711515
Ni 2.329851375751222 5.375930749946024 7.135594286883815 -0.24625820390543396 -0.4465247715721019 -0.15131970545432005
Ni 0.6027084907580053 8.970284347061641 9.130626290816377 -0.09825624997043722 0.465389726797405 -0.12099328655663678
Ni 1.3743504798642971 0.9470412965816833 11.348921219746448 0.11950461782625227 1.456141447180789 0.24691923452820058
Ni 4.075023329862064 6.782610275445845 1.5602510784003298 0.1715504306788981 0.1422244280212712 -0.5641871939832929
Ni 5.792394293093713 7.954228627088049 7.978765080286629 -1.3445465711199167 0.5362038213964895 -0.08813690214824821
Ni 5.003193212608977 2.8151395435884576 4.879413729355763 1.2397028977399487 0.12104625128175928 0.10948991390272757
Ni 0.8175226620904045 7.532694747177283 7.099177338720769 -0.18838164330362395 -0.2272767777069247 0.06222738137133799
Ni 5.025056215514296 4.765041031312907 6.922185529752233 -0.16563200831193411 0.19766692526029184 0.5691630499313295
Ni 8.103744814381441 7.210642501404121 9.071721811636909 0.0634396565118843 -0.16670621521271936 0.24320090513634893
Ni 4.622357597304519 0.26629571364285637 10.326603046398281 -0.6825785241407083 0.13123604733056754 0.22751589030092428
Ni 8.08883205919592 7.21632742444151 4.661269946501941 -0.10788657397134968 -0.6684986490088745 0.04283534999797139
Ni 7.074430299342903 6.145437955552425 7.041000421233685 1.2139430151670254 -0.5225229814752872 -0.9784047687822569
Ni 2.3570197042892103 5.18824694741114 2.6944799894807243 -0.4997131826696233 -0.08323123731651472 0.037874149337954126
Ni 2.2578815154225462 5.381037238842885 11.392137480470746 -0.39884443477700343 -1.244511889092818 1.219438491063958
Ni 1.1649753970595629 3.3371130891820786 3.9959631322951803 -0.7633990951332014 0.6975150908458827 -0.5490760493734672
Ni 3.7092812304120426 2.7379456999281264 2.73528851809507 -0.0368297672338398 -0.6700022301375945 -0.5050582490316206
Ni 1.291028849527733 3.348003919484233 8.352551029503385 -0.4489840317458719 0.07436453095450418 -0.949858324603132
Ni 3.77083927621119 2.788296584254517 7.1705958790092525 -0.8260501943055194 -0.0533421630665662 -0.29563701144887794
Ni 4.007961121694441 6.982748488069 5.908624307009674 0.7588886088573575 0.443825627473384 0.5232817140181827
Ni 0.797585664112378 7.3923069736641205 11.390616379441822 -0.44589870795232883 -0.43209522641033327 0.6099065503972787
P 0.1915584074730856 5.647469426790772 7.963301908864259 -0.1420526783300973 -0.9625356629604842 0.3763637371759841
P 8.678816806468967 1.6269273625398173 8.081599824832612 -0.3294735003823487 0.6224548193759345 0.31793361806354925
P 1.9611448013309882 3.203521916820135 10.497258290117987 -1.283431448976151 0.005797066297751306 0.22659029316286136
P 3.9221811462606277 6.4123310832060465 3.747553686841505 0.31777215278502047 -1.2043394306389903 0.2455874030906545
P 6.906829007124523 4.050304308387879 10.19829098937201 1.452082960840699 -0.3280802195792479 1.344429328815762
P 6.312352357228926 7.759549386666139 10.232379740119427 0.09226995048001528 0.054045616891494015 -0.3457164446037723
P 2.2403477305377506 8.57154438750111 5.844521150992198 1.935115597530848 -0.033934190853599625 -0.2079171422333903
P 6.795028533400334 3.8055182105426137 1.7838719095222886 0.9808092644586914 0.764549920908193 -0.9090163508861056
Ni 5.34529181656486 2.8721333824974904 0.424639348202733 0.248437728055256 -0.706805515008873 -0.36345757063727724
Ni 1.6113186787789706 1.2511620839984363 6.972743385044532 -0.4410781466352339 0.44206956401422576 0.22640671639714557
Ni 6.801029787608326 0.7781457579738688 9.26700750410303 0.34113371032909634 -0.27460821580303674 -0.589870714792326
Ni 2.6964159362448084 1.5093244713434433 9.275778011758806 0.27542556949800956 0.20021463138281 0.0566894822722443
Ni 6.353348876938945 1.759235134152461 2.3476129190788515 -0.35218071217187735 -0.15550700406279022 1.1291783719251198
Ni 4.218520186880572 6.861069443788583 10.545289111258848 -1.0198218982764629 -0.4672164955934986 -0.5134230760565481
Ni 8.26406145164253 7.012320933503564 0.22167584632442877 -0.20151046737609812 1.7119939796428771 0.953761259201964
Ni 7.512937606064828 3.8690284715660472 8.135544231257041 2.0387611368376564 0.1981844883266587 -0.7018003484847979
Ni 2.9961984676075915 8.191531233240216 12.46018539164448 0.44095884744855024 -0.07537574582783792 0.09500611846425573
Ni 0.15541440792010222 4.622800460943361 10.043906013461383 -0.5877516115667941 0.827393081486659 1.0003655893240644
Ni 8.492678507653311 2.278623802180591 5.940504162382943 0.810339982659114 0.7501892813111467 -0.821452804742824
Ni 3.7312436516852663 2.7790235619391566 11.603204483136528 -0.09584815474957686 -0.15730934737885166 -0.3630312817331361
Ni 0.9874232300173887 3.286382607450965 12.786482801727121 0.585647677849914 -0.02976437574662616 -1.00134877917294
Ni 3.1560993553301744 8.516032786077183 7.925033067648174 0.1428029262325605 -0.8826095787578025 0.6083309783800426
Ni 5.800374876626328 7.7434164969654375 3.5288007405334385 -0.7881667889961845 0.737988882590213 -0.35232212284574804
Ni 2.9819274127967184 8.42980090897108 3.597163521713907 0.6517237435433808 -0.17532763833314322 -0.1353256440189089
Ni 3.4862677551376398 4.432658313311228 9.527336308064987 0.4776032381444613 0.25670382471879016 -0.8911836935800589
Ni 7.298365654028775 6.021969380649745 11.376912009327999 0.5475614125011538 0.0753664898564573 -0.5524279965648358
Ni 0.5848366834223373 0.07979679729271341 0.20363683537001415 -0.43139177258540545 -0.7355849011344106 0.9289696540795807
Ni 4.500696629090992 0.09371175358582266 1.3660761602446936 0.5596355700568684 0.41851954460842755 0.5346647590441437
Ni 6.125129494399777 5.444249244762608 0.32574518623910514 -0.633533188677283 1.0127729618494814 0.7984856544236895
Ni 7.943283568585221 8.761017720658256 11.296141815833176 -0.16330490284065424 0.19429466635394926 -0.046756282318932384
Ni 9.055838371659311 4.8450276273079815 5.838859726841767 0.07627511771365574 -0.1860349974483183 0.6024976595277173
Ni 8.116904191078483 9.005713438169064 2.5487986397783726 -0.30101858747576543 -0.5873608038862788 -0.09504031413630083
P 8.696106564450728 1.6491880389167517 3.7605304952629433 -0.9314399699969443 0.5015949730733684 -0.1136029076298366
P 1.8102909850876223 3.186394843440399 1.8058966932262885 -0.2465752209252205 0.08854030823425396 -1.8234682709654855
P 4.6804360002270435 1.14431445260253 8.274134339917842 0.6742977721891549 -0.7880451758166558 -0.5793639017237312
P 8.446232053775493 1.5516224678696522 12.372165791522804 -0.3894264838972132 1.3146999200721294 0.11210652558996823
P 6.513032851858829 7.594587200213924 1.3365254060904004 -1.4979326721849622 -0.6137315805703236 0.5507251549411161
P 1.9393812167935713 3.336841948178705 6.023166016277965 -0.18218965556029912 -0.14321070319394047 0.9754050627239848
P 6.884893699951637 3.9639910889807646 5.9735210023636895 -0.713543605063655 -0.061479704572036054 -0.3405773236049941
P 2.3934972072763423 8.445373440598145 10.231863668409673 0.9877108766745313 -0.1523491751600989 0.12126916592584278
