# total energy = -381167.30771815043 ev
CRYSTAL
PRIMVEC
9.26999920234623 0.00000000000000 0.00000000000000

0.00000000000000 9.26999920234623 0.00000000000000

0.00000000000000 0.00000000000000 13.56758085851016

PRIMCOORD
 96 1
Ni 5.18707447700474 9.196386268700746 11.442002819221603 1.446478213059412 1.062074636298087 0.20366916559031376
Ni 3.85923050248814 2.648550049546476 9.641733722676433 0.9446423276198312 1.013015416877591 0.39503431700229386
Ni 8.32102023164709 6.726765746287697 8.891676755611979 0.411964002878097 1.1043322594157174 0.37381243150904003
Ni 7.266085037506002 3.9220718279693085 12.618772687601732 -0.7032432515789114 -1.7855182740842734 0.28585679213366255
Ni 1.556043548107088 6.452948505977512 1.410255195590524 -0.5208147405349288 0.08422239758519044 -0.5464900338138459
Ni 0.35774317927518906 5.4419252986787745 10.452206983396437 0.4055640128890241 -1.3711803716573612 0.7562450005869233
Ni 1.0764694025925932 5.205327105692219 6.1645523377156755 0.8943021846043824 -0.3752396508738699 -3.58604227754876
Ni 8.990351263516432 7.735629043741751 6.594088880828306 0.26376818776473926 -0.3465032021711258 -0.9038941991681917
Ni 3.9535990957022267 7.216981851036944 10.89061584287107 -0.014485080990052473 0.02425527300293887 0.08915274500727227
Ni 0.3440504632598131 4.963621143072956 8.103482084289954 -0.3466330428807708 -0.7293474048651309 2.133294429430552
Ni 7.565255725993057 3.089505377837996 1.9930915716795767 0.552304583613094 -0.25063627836847163 -0.27046128351419874
Ni 8.827171465250464 1.821286039033872 8.90430805670368 -0.8529614168740665 0.3525967166633734 0.1807207843242565
Ni 1.1456421376184787 6.834279198556556 3.6409146021869305 -0.6365784032615102 -0.7468100804262686 2.0381327592250384
Ni 7.914920100849183 6.852216647266698 4.231769527699381 -0.46978554187225546 0.9274223641971188 -0.6033713203819222
Ni 7.424805966092603 9.18970259918136 10.426889688216967 0.18217422894133142 0.3899353052128317 1.2200159608339827
Ni 4.523481574722776 5.289248409657556 9.44877590555176 0.7863256220223878 -0.4236830910872381 1.6241720376318867
Ni 6.344044553808643 4.743588438895199 3.4371294258408374 -0.5330092257185918 1.7999488476873065 -0.8806496268179543
Ni 7.187994563121379 5.16824710835859 0.863081433937023 -1.2824855401231139 1.02560199529335 1.3845840466577766
Ni 2.869259463675571 1.486453663111199 5.272117450889419 -0.48375871622289596 0.3010311858812557 0.5391307652352972
Ni 3.9178168982752744 0.7713232725352238 0.34199159640786336 -0.5391436207511038 -0.5617011943366454 -0.9178933416607612
Ni 0.5886644246699658 2.621843181466929 4.889742956385432 0.2706865121511274 -0.22618868684906854 -0.7848037860612226
Ni 6.359136112723429 2.6709000179393207 10.95249772342123 -0.6982987630894426 -1.814141851358237 -0.8032046571659135
Ni 6.643882682247702 3.3850236865876884 5.395664294005338 0.4543756350750885 0.7487695181454846 -0.06580944229564151
Ni 4.7469627186525605 3.51972604690143 7.59235008004474 0.4159965210762578 0.8080167338425761 -0.35831870674881516
P 7.961158857524218 5.391811682282373 6.5360327290030416 -0.1714470723318144 0.6371748991949285 0.016140357205288332
Ni 3.1700431320466387 6.3696946419641804 5.339616951035624 -0.13455662706336827 -0.5498630640511368 -1.3870101396007661
P 8.907041779507102 5.645494484040399 2.551017605559897 -0.30460579060639154 0.10110734626598716 -0.5673154551996294
Ni 3.4949936886798993 8.496946278996495 6.119549271951783 0.7131034322024428 0.41428622325337033 0.6545481003660534
P 6.287163837898855 1.8985607534771554 13.350282239999904 0.3179729559419169 0.6294950140521675 -1.248935214971494
P 6.760248983879965 2.55927068596643 8.455940436945168 -1.0138224861599185 -0.1105494655154935 -0.08169808850143995
P 4.9157786765132405 5.597030927525346 1.8315553442954207 0.5581574428494452 0.10655499964411971 -0.009560904215557728
Ni 0.07485802561706424 4.3539889069107565 0.7177130123902625 0.3928745903468137 -0.001378368404765368 0.005511159626216315
Ni 3.1446896838697698 4.909855146939194 11.250184285015006 -1.3500888410943845 -0.23318388721997907 -0.8546215781853087
Ni 8.335527780603874 1.0277370160968706 5.860082917609645 0.2023782146930321 -0.05733328650383029 -0.8100831294533017
Ni 1.5145695710894236 6.072025693369137 12.681523167089432 -0.6200140711449258 1.2853453781694122 -1.2504915037150206
Ni 3.2223259282870558 6.313184726027729 2.9669995556472175 1.0504429655964296 -1.4533872814744195 0.059400710555820274
Ni 1.827951168554592 0.12884835573469522 1.5206683036508721 -0.19082933351316814 -1.2267872181195452 -1.0991820826733456
Ni 7.0031878564105705 8.623824759872841 5.469553604692061 -1.5530203571877252 -0.7573402905336312 -0.06369470994548385
Ni 3.039475191435596 2.743595352711901 0.9323737519543094 -0.23785995253940975 2.1575710425897294 -0.7328914134626475
Ni 8.21747433909293 0.3601014671056079 1.3768924679895913 1.5474197231714961 0.7543778654711976 0.465292024877276
Ni 4.994416080858535 0.36330425187530013 4.516864649198589 -0.17287814835138612 -1.1854873309294938 0.26771380267604866
Ni 1.4098093086225874 3.0791415185832465 9.517929173579045 -0.792978351452215 2.221843479415554 1.397653221136909
Ni 5.388789662499684 3.505478057925983 0.9412182583183133 -0.3751427202846894 0.634092660725179 0.25105768217660634
Ni 5.647960303863085 2.588962493831333 3.23992502202153 0.19211282821128203 -2.851492759657399 0.5987898716588268
Ni 0.4709688051332929 8.936307167402669 3.3702547236497034 -1.3623046664342862 1.6379372097367793 0.1631339244804287
Ni 2.2298334496558 1.00341253784601 9.406309111605488 0.1914065461728768 -1.3218619850382074 -1.7221778621544146
Ni 4.937507554950748 7.521399359146708 12.95657887931056 -3.1438786111588306 -0.8925407218285853 1.4466795304369406
Ni 8.520797987281352 3.0207683327807806 6.851275742334358 0.15974289652100873 1.6666361203333684 1.0421943524343922
Ni 9.256696884363894 3.3535149588534368 11.777311673110013 1.4812968634004942 -0.5364874140751792 -0.18029218142727016
Ni 1.9126048024672677 7.03814502389685 9.697089523695876 -0.2777966408333474 -0.7633587288135693 0.6342142739047077
Ni 3.6130934801875085 8.18945113110804 8.672194689394626 1.0193390451027735 1.4823738985147568 0.13283835882068093
Ni 9.258309864247906 7.869302434129485 0.03457246251394265 0.3643692838182693 0.8342538131622341 0.31909061448612785
Ni 7.818651157771747 9.121252924103478 8.20776216079132 0.11298609998144413 0.06933802427419027 -1.549994682987524
Ni 6.0833907125518945 7.722613964677647 8.95726292789577 -1.4754699723060718 0.041850360376882764 0.15103816965815925
Ni 5.347603055461355 0.7707327735776858 9.215535306323764 1.5220071966356628 0.6245404982603696 0.6232696019677458
Ni 2.5880354938979924 2.391752528012426 11.51338181408884 -1.7248862622245134 1.2077389432388426 0.9852768133117419
P 3.304801112356381 4.287958701658896 5.8633654243736055 0.018768024636122514 -0.4730140761118821 -0.4289679936352612
Ni 4.4763714381104 3.333890370264613 12.30385597824695 1.3820833917231101 -0.39454863561512693 0.37307221090890585
P 5.7773973045554525 9.299199831307565 7.145448047180839 -0.6718500819796106 -1.1804677662277154 0.10096259315800676
Ni 8.330874240938503 0.8435152463440001 12.756117924725428 -1.5303941351477772 0.16141308513458008 -1.1563495330232731
P 2.0594415919084397 8.302804682956944 12.862677494062877 -0.20557461014314274 0.2890197632426764 0.8508019473289025
P 0.6439358686954736 8.6938503348374 9.044732787605934 -0.6143725565884322 0.32516793102845937 -0.26132641109246607
P 6.767553743354689 6.148855447844417 10.354289834437521 0.7025631947927513 0.026983213457063206 -0.784812527811971
Ni 1.5133088511800803 4.238049025247831 3.236261518284967 -0.27610691183575026 0.5341348546826028 -0.08178113513354947
Ni 3.985691833394483 6.231525301899744 7.5126818517735705 1.1602570956077953 -0.6829644467252174 -1.0258570487269494
Ni 7.400407327847074 7.29325540555222 1.6308098007307517 0.3920387247090797 0.23855363617232464 0.17204356826523273
Ni 6.985454347685762 7.656639379421787 12.35556218052883 1.939888336329143 0.6852378161404263 -0.6548730878056398
Ni 1.2054707133162894 1.5983425550654256 13.406235028976417 -0.22570377679285 -0.06654940578545958 -1.1382826482192332
Ni 8.459421321694862 5.8963684760004025 12.551261136456393 -0.36385172075190236 -0.5276127372933688 -0.38176305381468445
Ni 3.554979854366378 5.34160536589264 -0.044155787824819145 1.6871725497238235 0.13838937054589717 1.6994593375109763
Ni 5.2978602390382905 1.802486480385722 6.047301678147006 0.0948161139406367 0.769112600578211 0.6145623040017352
Ni 2.661778338595248 1.837258247885333 2.8924863740053564 0.46093837589427067 -0.19164874409066995 1.7208612002255201
Ni 2.9872387451918456 8.65345167774241 3.5619508938651006 -0.5502173620667621 0.02453269503404162 0.8781188899763005
Ni 8.417150124734524 4.675342703802655 4.5507159057643936 1.5413100107293327 -1.3407616501561876 -0.3202828350220161
Ni 0.44156807524745817 0.8812886396277683 10.808518874774547 0.06769740334697373 -0.022803628158076857 1.4983301647336968
Ni 5.71391634912028 5.6300784751489426 12.032002123795579 -0.6964899920154779 -1.6556459398704517 0.0006923980813342914
Ni 7.795948929404233 3.9732514942890504 9.601994162534048 0.7738930526859897 1.3841482446719389 0.8862996260148801
Ni 5.937323333055395 6.441694726786755 5.9546619398086005 0.1703355844351905 -0.3161500438005652 -0.16924929334954725
Ni 1.8911076740130959 7.112796328528779 7.360018867751352 -0.9159308186177516 0.509747941197806 -0.13390639507387905
Ni 5.987297899461794 9.158833501401112 0.4277752432392814 2.2380355157943845 0.5258353336779719 0.886169528194919
Ni 9.256900824349227 7.638878060698978 11.152388573047357 0.3652262325019259 1.0679843169143028 -0.11915854734074319
Ni 2.1849481128834416 3.0468726509036554 7.386150068872294 1.018048094205492 1.813787810452928 -1.2242227998264787
Ni 5.260678271711994 7.342108302039276 3.7745685255760644 0.6325098896190913 -0.7026827510897511 0.4988973716365473
Ni 0.5699538580154164 2.380341158833001 1.9326882560230945 -0.15694219384742003 -0.8474924233396952 1.0822889064624328
Ni 6.400285639764424 5.518857023146722 8.178443006899618 0.36868873712922956 -1.2287255727928388 -1.1216013309088102
Ni 1.065790363360508 1.17881019523341 7.191238135888138 -0.3352284005882549 -2.241105927189592 -0.8740151522205721
Ni 3.783513147932869 1.2292575316058127 7.694948578667026 -0.9615969531962989 -0.32343526460806876 -1.2405498191212765
Ni 3.921469278012637 3.90969637885921 3.670641636049301 -0.9795306548565841 1.1196123255032395 0.698533504808068
P 7.959462447646204 1.786671861522929 3.6794462814161717 0.5976143632934869 -0.4468492447910562 0.31998175884182956
Ni 4.278596002332154 7.95439175801083 1.6669535281317067 0.09871364922282999 -0.489713391144434 -0.9508415144520075
P 2.5049206798746626 4.9668100228436485 8.776447882897926 -0.4986148073991219 -0.277815924107057 0.5172365362653674
Ni 2.997454284457261 0.25507144765816947 11.340937578489063 -0.5361518851126313 -1.854095251822723 1.03146488183203
P 1.458708555106311 8.685776165418002 5.30858748226691 -0.12725469408531634 0.20437056253271252 0.791496881810682
P 4.655681035216498 0.6675706589959289 2.5351297537023707 -0.6989297118052221 0.4551341105076678 -1.9158876025391716
P 1.8656800658415595 3.9867578833178245 13.132129491686962 0.11081814579584784 -1.361008830440998 -0.9844085517741756
Ni 6.799340571068943 9.063723308240352 3.001338414177958 -0.3480895728216392 0.776186733816173 1.1880885159977668
