# total energy = -340891.7870032927 ev
CRYSTAL
PRIMVEC
9.06064702722417 0.00000000000000 0.00000000000000
0.00000000000000 9.06064702722417 0.00000000000000
0.00000000000000 0.00000000000000 13.26117278858245
PRIMCOORD
 96 1
Ni 6.321314253863954 2.046990380148693 11.386228486226821 0.4941673131507296 -0.09506679649886209 0.30154926316825487
Ni 4.712632661475996 0.23235394410279314 5.990416715431739 -1.010938479743904 0.14866786965376977 -0.5057033388147871
Ni 2.572236073719542 1.7997978148218017 4.6141053763107704 0.46470864156998026 -0.8939232039984089 1.2008661273784094
Ni 3.2494922382415403 4.399967862549951 4.853337257380781 2.1364126633445597 -0.19465873456158733 -0.8509317880385473
Ni 5.229533499366687 4.551769938625265 2.961750560400631 -0.2306374666490415 -0.26760684478453917 -0.6625180059454073
Ni 7.253074925660604 6.2970498417993905 2.518495565565196 -0.2722541137485634 -0.1211886903968945 -0.2938403245597714
Ni 5.205839908048975 4.5616007403765915 11.551449380176527 0.05559444943585264 -0.48643883415822026 -0.39008494341681854
Ni 5.756636625526496 7.8176075836496555 12.138707046342999 0.3367191262011685 -0.5314948459565942 0.9308079928399001
Ni 2.0313698251078764 6.594864240660529 0.34438884148080845 -0.16326427941070593 -0.7652636591457659 -0.9742323825721221
Ni 2.885770694736027 1.744011412625567 0.28485223758422934 0.009681231843505908 -1.086383645357097 0.5696037370131738
Ni 0.5119664096567996 9.387192485201695 4.511477242414991 1.446100260894703 -1.6403573891424974 0.7382300520667415
Ni 8.606907706196445 2.3016036151846504 1.478063308473565 -0.7182309832369953 0.22363815251307292 0.4806412536398368
Ni 6.886553642301488 0.550031998889676 4.995284974023154 0.0693807045866676 0.5334565976686555 -0.4244976165687334
Ni 0.6921129070396475 7.363768847315858 2.14450377893975 -0.3167537388228352 0.28904418872270865 1.3362786746841697
Ni 7.596908349494079 4.16870391425424 3.689615873551391 0.07296456528318403 -0.7303694183717422 1.3013862336823587
Ni 7.540641733018748 3.7870694720737297 12.518864603099116 0.9639502839198238 -0.3127268770516291 0.736441592707751
Ni 7.780359264755921 8.84013781484242 7.259736313169889 0.25496730164365766 -0.3750308772971735 0.34226679549227507
Ni 6.67791412900399 0.8190000166119241 0.47809589988094053 1.2872459376262348 -0.38454087367013773 -0.5545417004737289
Ni 1.8482269718363986 6.584888468560797 9.27969062940542 0.6995352065997049 -0.30162073983613863 -0.5628731031575597
Ni -0.17326131189820942 4.680974761642693 1.5290131374210827 1.2830905206969645 1.175468513240911 -0.7027321162704478
Ni 6.4679698825708325 1.754449277710846 7.229129448362536 -0.20659225277437968 1.4670843193455378 -0.40133737640218625
Ni 3.412529516318371 4.133267724715589 0.33833451730547565 0.40100724675627714 1.063269942157769 0.6052831926926544
Ni 6.048398512341657 5.880740304409365 4.879793439900318 0.04487320636360659 -0.7970216682836532 0.007614322012148176
Ni 5.1537140071500085 2.7178044248133704 9.36958855458174 1.0926579084015828 0.22403153129674963 -0.020230468114261935
P 0.48892971523030515 5.554031502981425 12.415348525819347 -0.14573449805705868 -0.7670264074731435 -0.716479033542895
P 4.099199692840026 5.9850555307347255 12.82863271325106 -0.07705339064057697 1.257642255827189 -1.6758473545189911
P 2.425553263072337 8.547270529120658 1.3796393146815793 -0.2210973883690902 0.587883252048652 -0.1423648102538774
P 6.467471546998185 7.705672353386169 5.868744914143392 -0.4829483045064586 -0.10226022892350775 0.43529007919854706
P 4.792837506731976 1.035459774141283 12.585423208246642 -0.2805456643333943 -0.39252980541288524 -0.7118705882366063
P 3.8202767425056283 5.9778070133143935 8.251631591550296 -0.19625024741842328 0.7853136358181055 0.021918397339646126
P 4.6363057730398936 1.0370182053866546 3.9037841935112474 -0.1430970604342116 0.7541276971336044 -0.3526517382710249
P 0.2773781100591889 5.7150754387676646 3.5320340108980384 -0.05035582674473263 -0.7576305680805403 -0.0669965206252072
Ni 1.5442150905808754 1.3073426019311822 2.3403578135724583 0.2879794949036202 -0.771622254373942 0.585951839353894
Ni 1.8917543189454957 6.450283500065221 4.924099096567423 0.377073361648499 0.8442906285729459 -1.1300327495056153
Ni 5.705733911942211 5.402519367602923 9.27979754503737 1.8534324214277436 -0.34890486963408296 0.3204790101932223
Ni 8.85988096416605 2.2985139346342334 10.393258615138851 -0.0402930431920919 0.16693375784249315 -0.0605736478179989
Ni 2.2122475166855002 5.132022818769663 6.96246011672721 -0.019486390859385794 0.72167549014217 0.9283852423310204
Ni 0.6402986923897551 8.771566840046074 9.26999754948508 -0.2839657457585368 1.2996692509912517 -0.5435165530078188
Ni 1.7018250412392315 0.7856704274485574 11.612305214243607 -0.927736295893112 1.1964605421115457 -0.04380722699293745
Ni 4.148643642293469 6.8808001315990985 1.5448864845069334 0.80598890477927 0.5086770767311303 0.8799477156549232
Ni 5.5766287560393115 8.078119299736409 7.993396815998206 0.9091240801085634 -0.28557834166129525 0.2733941408902775
Ni 5.419390291898748 2.815994653918551 5.12450157588139 -0.7987371083128632 -0.03762012434561909 -0.3625378870364853
Ni 0.3772925802457306 7.458044877014058 6.705671420400476 1.2108360941069276 0.5828084086289059 -0.6136133098249046
Ni 5.099295762616861 4.492196186076907 7.210722744438279 -0.5285205938196188 -0.757567576053089 -1.043363690152145
Ni 8.297894347920892 6.847302920470387 9.366949188176061 -1.2921644579737748 1.7047617235604964 0.05312593329070205
Ni 4.763417586652201 0.23949645195585337 10.29048369876531 -0.26403609671414524 0.5158980199596018 -0.01728321256047991
Ni 8.287728302238875 7.327272562104483 4.449415436262104 -0.41889955365566567 0.4329143798775189 1.0048763327102244
Ni 7.077180589809458 6.044792374925041 7.255771374140967 0.4529908389124198 0.8014771329518454 -0.5563443009001063
Ni 2.374849883717111 5.32058393881284 2.432576170387962 -0.4858721630214729 0.051365498956169604 1.0850960368939249
Ni 2.6363854528894852 5.131886909068032 11.23596581403865 -0.8247836688882698 0.504685181962918 0.9756287486990165
Ni 0.8486582317018924 3.3056591876023425 3.664234283739419 -0.14993053841627726 0.5083955409349695 0.1338565156725501
Ni 3.5484845211834832 2.8372599919004515 2.717041518354881 0.6917085114664345 -0.11565233395969761 -0.5132083889425806
Ni 1.078026692692186 3.2033373035675727 8.138010174921906 0.3042242388972567 0.749252114208858 0.026812235096837694
Ni 3.3796574898171623 2.77227703322717 6.981675936408513 0.22669082329646764 0.024533209254673876 -0.48655016292510395
Ni 4.029722653366138 6.800531861815691 6.287837882222825 0.47621124289294114 -0.0042423202161217255 -1.4954153050797472
Ni 0.7611477869508947 7.5122184840842685 11.382819870909913 0.10541471539208941 -0.39113421061693926 0.3807513247207185
P 0.3073978449554962 5.759690063489811 7.90124550796884 -0.2960892684949481 -1.4943182153608265 0.6549759319320914
P 8.73825084185287 1.5956070790910333 8.002348735012317 -1.15230853018468 -0.9977422927686043 2.9984909549182297
P 1.7381129315747714 3.296933784757617 10.305720988447527 0.3604990022295856 -0.64899091799325 0.5817110617996691
P 4.042045132980704 6.182070234219365 3.813250210931294 -0.29943015994272304 0.7721357036752509 0.04426642601754312
P 7.09463139549891 3.8891467186455633 10.232890603602058 -0.750125775063063 0.2424007778325567 1.0524944488088197
P 6.319348093513689 7.633993576745856 9.981711353693983 0.7700158291187705 -0.14003410523817172 0.887291300504188
P 2.271313873014435 8.487832686273931 5.795570224720457 0.37755235816744653 -0.108025156431743 0.17550992954727837
P 6.882132046675085 3.895135806164113 1.6133278920543912 -0.8682160290402919 -0.12839369278576596 -0.5816452415587402
Ni 5.274202487969486 2.8334817021951033 0.4305066648224246 0.6523364374267152 0.4837499744721475 0.49676515578489283
Ni 1.5935140696859122 1.0750094973159725 7.117642720114432 0.21465317540564324 -1.2202507025526081 -1.1139615549753652
Ni 7.131716622750686 0.8727477732836901 9.393962600472285 -0.2431507686247038 -0.540174118898147 -0.6141658398942648
Ni 2.565449649284756 1.432008040914127 9.330654049323101 0.682374121439386 -0.058211832454041684 -0.07765631433189853
Ni 6.269007140029479 1.993043289247868 2.8164078194115096 0.4131991608367787 0.37528747339266977 -0.35322560849662393
Ni 4.1836992846675525 6.759505253216609 10.256575134272996 -0.40343256836831815 1.662676621464988 1.1437503562020237
Ni 8.405045556686957 7.0000926070442215 0.15902250549064365 -0.8546984541698313 1.1210819680702306 1.4024262170455204
Ni 7.83157004033057 3.9114630916534123 8.20297682443099 -0.31930890114452104 -0.40336289147264726 -0.7057212808057588
Ni 3.4283312842946954 8.340887116870238 12.648585882982744 -0.11137864628500818 0.058781331804266514 -0.5119444346284926
Ni 0.1694839282575386 4.9001427464932235 10.09383413934572 0.41425999800112523 -1.2819340384950182 0.6224098250706119
Ni 8.70477175201771 2.123779361570341 6.031459633195017 0.1956241837986502 2.119032520194899 -1.6241995484357123
Ni 3.574633547777333 2.7404922843390116 11.38199807024738 0.4570837780348708 -0.6503579735441057 0.04813747893717516
Ni 1.402542817600475 3.471731782348937 12.710395803155274 -2.0900834412607168 0.1131701909677922 -1.3311313261552753
Ni 3.310687846562698 8.383907067759912 7.949304084530323 -1.868067140621783 0.4831213397492132 0.735961567747539
Ni 5.457898040694264 7.994562015173524 3.6038160789115916 0.682557955315418 -0.34109797199515446 0.047413456286957055
Ni 3.076035216372982 8.55627681201542 3.528851005685835 -0.9102749058835549 -0.6048803008272808 0.6004369203439466
Ni 3.278649399564828 4.038185297454376 9.07452768627565 0.3754201423157921 0.6592563044750002 -0.16031033898870456
Ni 7.516884717173608 5.970866557884425 11.549605538557731 -0.9314299426946152 0.2116025615047775 -1.5392410440154458
Ni 0.40604654278751234 0.10990473932111505 0.45562458981323206 0.043032810720758145 0.1335685521184861 -0.5572842962158724
Ni 4.571331875013388 0.3790159152624147 1.614759474244907 -0.24012020932849615 0.029578484988065194 0.20973902593347749
Ni 6.094363173433341 5.5649948855796785 0.31439175820143966 0.4625409444947001 0.5111931582847647 1.0457679287182635
Ni 7.755107242192837 8.944308070819375 11.42436746669858 0.8946197158448013 -0.158361699902766 0.594373487758686
Ni -0.01051759877690256 5.0864840080764235 5.800304412660612 -0.9583931015470205 -1.0200787514822756 -0.5640411553237318
Ni 7.891451854869294 8.988025691510755 2.607464774447036 0.3480546058186457 0.15186632198640942 -0.15002309813008355
P 8.2686647014234 1.7684479769788632 3.875537627188889 -0.7076516650592523 1.3274469353251526 -2.0518161702494018
P 1.743504016406144 3.414966830300957 1.5723239350722475 0.11452181989968019 -1.1178292654608877 0.5176083177824892
P 4.518916033417607 1.2453405960470127 7.987469340877729 -0.3803170653967773 -1.15670305970795 0.5769282956990451
P 8.782095311599107 1.9383804072517852 12.607767669259497 -0.6407412763899482 -2.1415553838877632 -0.7371687006817628
P 6.419142057098117 7.889295420936744 1.391627456430132 -0.7074369779452848 -0.03585017692938987 -0.6625306043508977
P 1.6259783670822268 3.484425748481294 5.733772989453412 -0.9328268230421418 -1.6686143271056617 0.8959636314672054
P 6.904883330728154 4.036364107452518 6.122325235446951 0.6257424889882707 0.13466641316835515 -0.5250069242394055
P 2.644458489166381 8.413526322068748 10.327588859439993 -0.6831588221242105 -0.08181430236433007 -0.2518511246121792
