# total energy = -381177.2839559753 ev
CRYSTAL
PRIMVEC
9.12803064995864 0.00000000000000 0.00000000000000

0.00000000000000 9.12803064995864 0.00000000000000

0.00000000000000 0.00000000000000 13.35979553169737

PRIMCOORD
 96 1
Ni 0.36034909013904515 3.7036710373746664 3.6416533717797734 0.0689389890635587 -1.0890357382679632 -1.2306101914100613
Ni 0.4449102529403356 1.1311181695449541 7.728280892714177 0.4282370290065077 0.4557892275931634 0.22026177984167225
Ni 6.823394572305767 3.2024508763821196 0.255881518175625 -1.0048436797000757 -0.5276297065742332 -0.7303694183717422
Ni 2.741950859956823 7.916795719355343 2.6037972038169888 -0.7509809239745067 0.3021730127951828 -0.041213498123832244
Ni 7.707608641783566 1.0887184673448016 2.9091754679948374 2.1806063271426384 -0.7001458436005104 0.8946120025353173
Ni 6.53231080406881 6.042792778322893 11.232648684065468 -1.9478435866204777 0.3350941890032358 0.9659560014959429
Ni 7.113309952624184 7.9313001600003465 4.202577242606667 -0.005757985529699761 0.255545799854947 0.9825079923173532
Ni 5.310460010224713 3.763167540914084 4.31437188474362 0.3056334605399575 0.16449558071464573 -0.4702210867477773
Ni 0.18890641915448836 4.531163524619582 8.42042568042988 -1.3350391458501139 -0.8247934390802828 -0.9781779974834315
Ni 4.416469819959751 1.0276336864786182 9.680160539729581 0.10995656912650095 0.8564738009026991 1.2079364039616294
Ni 3.295903653804113 8.492728810920172 5.889665500764515 2.269973245043245 0.29039967430933855 1.9440144426823744
Ni 0.018879505718100247 1.4593986625323145 5.3340723998159625 1.890585633439273 0.8039165956312735 -1.156953742266175
Ni 5.772721736558433 3.7728158692726548 6.830008743288378 0.5471209825296255 1.5429125793297622 1.1863005708594085
Ni 2.4557962282512076 5.0946642384886935 11.593497077479078 1.0002365199453678 0.9833574848018418 1.881662105697398
Ni 6.801277354129024 1.725115633694089 5.11629401983067 -0.1486691552053504 1.0262763956525551 0.40663024937000936
Ni 5.928162969877356 2.153202013410506 2.323843243307189 -1.7473276219471647 -0.07015023576284048 -0.23122162128728568
Ni 2.426906011359177 1.9196887342534976 11.845849699019487 0.9515531958070514 -1.0820719053556203 -1.9683329648230812
Ni 6.292143190594489 5.89761145141365 5.372401000362451 -0.2224683005746878 -0.7798047901847344 0.7601983288077167
Ni 8.808376109538315 2.4109137017241573 1.2395016666416068 1.3263058797421738 0.562202045232464 1.0425748757022626
Ni 2.0220048294012933 5.50904031622349 9.39002608667644 0.19473149678105173 -0.05312799017323108 -1.0249239953897187
Ni 5.6352809796095205 8.304353643147394 10.474680754792068 1.4507958665981595 -0.46107798679592854 1.2721975279335445
Ni 1.2728947410353244 1.66962633559404 2.974251023845285 -0.8714103676078734 -1.9077300064290437 0.2875568055439048
Ni 1.2212483438235993 3.2451335475312937 6.641943015753402 0.22312058944670607 0.6511776412319237 -0.3569164270846498
Ni 0.7420020909271616 0.6179293348118604 10.030013307466055 0.44964763347179976 -0.25222187768803656 1.6733179032289183
P 7.317951270950388 3.4368952146617144 3.536043883186592 0.3763979328480292 0.011314139461238578 0.07358934335137648
Ni 3.8271093953623225 5.354703574608811 5.489206018503207 -0.5626794990895149 -0.19138109225158006 1.1822837363905316
P 4.473949028733563 6.857296078004661 1.6005974296848442 0.3247131028792279 -0.10934104702968911 0.8974350738064093
Ni 3.7385036021961477 3.5922725517663423 10.2430752340333 0.23700068986290795 -0.4934026670705631 -1.2542160037544592
P 2.5979653050579627 6.998698400239874 7.914836843985665 0.2716977270244611 -0.4002785961203687 -1.0018079781975455
P 0.8160194655666875 8.452036050444761 1.2940964177415235 -0.11070218904327388 -0.7255581130260279 1.1683861524728332
P 6.040702459312379 2.6090558622534816 9.529087981862327 0.15383424434605766 -0.26418573491813213 -0.9266160662457398
Ni 4.612037875856041 7.463926736523013 4.207374022694111 -0.08840661086986709 -1.1063019815475785 -0.10719674699317668
Ni 8.273062754203988 4.030518429555692 5.697752308325909 -1.1338696067532021 0.021252224510556948 0.7723375352734119
Ni 5.913923242120146 8.670716279854677 2.437534690205648 -0.917942963951774 0.008948467442539429 -1.325983720516065
Ni 5.901719065189769 1.7015288025885573 11.563838280409383 -0.8323799931782891 0.8918717207860188 0.45298363982356826
Ni 7.615661989412816 2.2245832128088256 7.477758441311795 -0.23814611632126081 1.137178102301145 -0.3838230216675067
Ni 7.532167893390255 0.12031018189637709 8.753324956907719 0.16489538725622566 -0.5346192505181889 0.04952407487205664
Ni 8.180623188180103 4.712911742166889 1.8277539483225447 0.15121891821039762 0.6279037583056477 0.64603157825461
Ni 3.3139954104802603 5.104997169143284 0.8751426326540092 -0.46435871442972926 1.1599351934920024 -1.611046298883206
Ni 2.941179256129166 1.6008740090124363 7.120209830965 0.573544981049109 1.08339885169716 -0.7057675606626619
Ni 7.9080967061805865 7.234621479478872 12.736414139395167 0.8870357328499563 0.17314785707300503 -0.5415625146052415
Ni 4.987172549982989 0.5984081285416243 4.433902532825596 -0.951470149174942 0.6167207451056347 0.1280090557528376
Ni 1.733942439297436 3.5960698125015984 13.199210768322844 -0.6213302188531881 -0.1774220589683267 0.8212697421977405
Ni 4.345006468285909 0.14263186795886432 12.189450678588706 -0.864561205896524 0.6632865086803158 -0.11416880743563565
Ni 1.0350821594593125 8.366177794493279 6.402615181095532 -1.06926626895052 0.8847021996207731 -0.5214806562537019
Ni 7.860439258347002 7.490169824537101 1.857973206471915 0.8913608425878713 -0.9821786340023924 -0.12117634910172036
Ni 6.059944347845839 5.7853366748664214 3.145056558293013 0.8967904982438748 1.2972058770524242 -1.1528111808527113
Ni 3.5603609567412113 1.3920976928182724 2.5668040341492695 -0.14176085812129133 1.3183429161413553 2.344692331123691
Ni 2.029006028881921 7.053229255125497 4.65650325138405 -0.2556175336331469 -0.929993724468721 -0.8489085869609315
Ni 7.252877540706063 3.6892122368827303 11.085491138528385 -0.17269842824041223 0.22550657318037937 1.833376788328449
Ni 6.46722794579387 5.5994352033899295 0.5518962485500468 0.08757357344561048 -0.5834887225253822 -0.1277912833150767
Ni 4.192376668395974 6.566960808278019 9.51920141190474 -0.7323288560909581 -2.486425935551473 2.744457735053067
Ni 8.040672222812452 0.34801894638619996 0.4119480215915797 -0.7801945694239854 -0.0202320107761587 0.7423810981206375
Ni 2.384040779597731 3.4675015013091013 2.186410701585829 0.1864646287865692 0.15261271323413073 -0.22896599248388952
Ni 0.19043080026695888 8.509570027402257 3.5607059962984056 1.432379825984817 -0.27553484138236417 -0.02924758401120769
Ni 4.903085131970545 4.140958471949587 12.174808404681437 0.3609682285565203 0.5363658008956504 0.7368359999326923
P 2.575583373993426 1.974694246731026 9.294263004706144 -1.651767173641336 1.0449400335003296 0.2778123245626312
Ni 4.086874890564033 2.3831005924445305 0.41847456348030065 0.21685249704980716 0.447670455140771 -0.37546436529016625
P 8.027308785994148 7.528680985695862 10.392919158979968 -0.0994970643560738 1.4673671406932791 -0.10468092254985843
Ni 7.781153184437309 0.496483625907152 11.38185090846 0.1143744956885385 -2.6681746469196113 -0.745718904244619
P 4.616638403285294 2.4894786612153763 5.854462337900122 -1.5786727676485068 -2.995590750552299 -0.0020067460173836408
P 7.9009312021489135 0.13156321803681803 6.2912075674565955 -0.4574429611465025 -0.43559578336442395 1.2643883163017706
P 7.265045205513987 5.102541728908227 7.559332912496316 2.016746066019146 0.5351213869655881 -0.9607016950755389
Ni 3.367339621386114 5.421137381414562 3.301899857114184 0.5280940478051614 -0.13481707981360652 -0.9576240845914797
Ni 1.9497929792171367 1.1249384928195498 0.5199463157963387 -0.524634114281019 0.1553555660865905 1.5271218921544085
Ni 8.000326327500359 7.023106754100629 6.408292816137189 0.3973907330496124 0.42531677003591906 -0.15454926813521125
Ni 4.9102415079716035 6.339353364928007 7.392856802968617 -1.871858489343415 -2.8906879417996216 -2.5589675543646253
Ni 0.33539305444147416 7.370309654549974 8.47805915292106 -0.20757235729946188 0.021023396329202502 1.4853571495127968
Ni 5.992488201611366 8.17089270754601 6.382054292138408 -0.8545634712538638 1.2678101974991263 -0.9319305364801176
Ni 8.568701409717129 5.469798912615641 10.420907526447374 1.3049155869918558 -0.5814459810637406 -0.38273878746439244
Ni 0.8754557241040554 6.042208584363622 6.440623387767484 1.3191019057945668 -1.705358476604231 1.4682775683226905
Ni 4.74862972595789 8.2640077478353 8.40296375786607 -1.5038163846592487 3.178575648320384 -1.558707894490806
Ni 6.090212897360522 4.82514087856105 9.308798480655232 -1.2187736037864494 -1.2408987178202628 -0.5204159624346133
Ni 5.593693672133978 7.462995677400426 13.139452290304815 -1.307790851657122 1.3343284929363342 -0.41913506670523937
Ni 3.420008358026562 4.245374014138511 7.734920622182507 -0.18551897704384823 -0.28585190703765606 0.0589098869623308
Ni 1.3001510404475218 5.962959022576383 2.2883863211917377 -0.7253871346658023 0.10947371595281145 0.578855337518429
Ni 9.042446198562752 2.098707670647339 12.286522720148993 0.8872640468106783 0.9738647148200582 -0.5574673587609561
Ni 1.2318186032741434 3.560981662822936 10.55232834720662 -1.2086550272952088 -1.5019189105262198 -1.0811509362032474
Ni 2.606089252304063 7.365572206661518 13.102499283971795 1.6235614006310815 -0.2432369005806069 -0.044845952670096965
Ni 8.569148683217195 5.9364055815214325 4.155070407278207 0.32112435708670506 0.6900704616423793 -0.4325953059752034
Ni 1.188305281339132 6.954536988131298 10.97622130965915 -1.8063519230001732 0.25434175224451677 0.46141325864816013
Ni 8.292049057880266 2.193493140538918 9.779891576607607 -0.18881333152440385 0.7752089432839359 -0.6172035982793241
Ni 0.768045275070812 5.847964092906303 0.04231116030320074 0.0329142342295175 0.9241647764917696 -0.42597651510710505
Ni 5.089397364824649 4.221330781502299 1.9177189052470838 -0.5392688334750583 -0.9985701879865384 -0.7750258807388523
Ni 2.272505373530204 9.060446674932765 8.516749223479849 1.055770034236298 -1.5609061876937054 -0.8987072556506136
Ni 6.677227418090257 7.032800722612268 8.425007951797904 2.2866319366458487 0.07515514517659959 2.0818811079555823
Ni 0.7784868292897041 8.656312247546422 12.531260738551538 -0.21804574602695995 0.8469841162447092 -1.2405228225380829
Ni 3.9668869281483152 9.082883374180982 1.090616184909368 0.9592742186003932 -1.2818689895850377 -1.8833065832793563
P 4.254273843986766 6.234271476504292 11.713133610716174 0.6954306975130281 0.8519139494461586 0.2647403218700215
Ni 2.771379630655056 8.397295250855027 10.64472409868356 1.4727230056885539 0.5328840129946372 0.8002800273199508
P 8.672395837487578 4.2439500413627895 13.03214681362363 -0.7164260688177726 -1.2336147825643398 -0.5186365019366874
Ni 2.9423567720783197 2.9604120166320125 4.596597812073144 -1.0627590639596214 -0.030090134517161086 0.09873498937906867
P 1.5515643876377914 4.865641950393574 4.841202561228733 1.1755831844419045 0.07161936410919924 0.1215491590601068
P 5.905561966078093 0.9325652476380177 0.42166207177056836 -0.18349474752496786 -0.026053759664258356 -0.2988496048489047
P 2.0198323581152575 0.40741047757356125 4.6184010259967785 -0.698761561658474 0.3275562287549778 -0.8774540026987921
Ni 5.508930779856127 1.135527008331321 7.60530441307557 -0.01914443413893477 1.492561637681036 -1.2927457843985415
