# total energy = -381174.1166638206 ev
CRYSTAL
PRIMVEC
9.18691498393225 0.00000000000000 0.00000000000000
0.00000000000000 9.18691498393225 0.00000000000000
0.00000000000000 0.00000000000000 13.44597870658385
PRIMCOORD
 96 1
Ni 1.652560609394686 0.15995061763816315 9.446619702147323 -0.04814853468076869 0.066400281802105 -0.48846949143500384
Ni 9.119776834042483 8.809038627595113 5.769897885002669 0.47675194588775954 1.3127633651710489 -0.7459677870306314
Ni 8.726071599968984 8.683673988132576 1.30087999841641 0.11137941761595657 -0.0423614956853464 -1.5358523300488711
Ni 4.222278484762064 5.299591236573125 7.867335762639861 0.7728322155216433 0.012256448769849859 0.054126863751390655
Ni 3.5738292899926343 1.3293649464684063 7.6787835231316475 1.4465368342114893 -3.0967947702971506 0.9258437068560894
Ni 3.595666586489956 1.1573675274432271 0.08484023955536957 -1.0897304503421428 0.9307342021791712 0.44623989334183145
Ni 6.7826440808554525 9.022570088464796 10.690937703477191 -1.2953174017804596 -0.872950972622116 0.6560632514589991
Ni 5.3364123911214065 7.710559224067674 7.4630830316759225 -0.5862611430641969 1.042579246577637 -1.2262087199082559
Ni 4.490591518628605 4.450444700920025 10.159202749187598 2.532446882366277 0.21301332580937507 -1.5672452425378558
Ni 5.5925343890384545 4.278043057643318 1.6466616913968193 -0.67786312094291 -0.16797865416723973 0.16446755569018773
Ni 0.7084443419195169 6.479824994972108 1.4844768160774828 0.7065237221023961 2.438828388278168 1.9318477254128534
Ni 4.33118017288964 8.8689097513953 3.0495072572611766 1.3746863279280905 0.6151276895869019 1.6991073534881966
Ni 7.592397125814182 1.91833805477437 11.407003509920973 0.8062884382975598 0.6227677226306629 0.6445614214669867
Ni 3.633250254967256 7.115963723899548 13.220031960257481 -0.7759265381762508 1.094975500791166 1.356504000592109
Ni 7.421088725399563 3.4635771253883627 5.405713882971445 -0.15134721625814582 -0.16216538991957233 2.2003174324183203
Ni 4.727329126301923 6.529526204080442 3.4820510923746744 -0.060768280327308244 -0.2825493250269843 -0.09937956494160305
Ni 9.07870213793835 8.95656210557323 11.955209683768853 -0.2195470131628348 1.6693692029938154 0.09173336125025491
Ni -0.16228868745666053 4.655992732822032 4.196530318631209 1.4227338182546208 1.1491391313177628 -0.9815898513784578
Ni 8.377060706433753 1.9192383724255007 1.0761570379282832 -0.8602862326702538 -3.52802687737624 -0.5847652752449607
Ni 5.024452325004645 7.01457693208447 9.588730249920888 0.5123313856542661 -1.0112495832264197 1.3726505284449844
Ni 6.809497432837644 5.2783970241123255 3.952996231383336 -0.9693917666503692 0.18149880014086162 -0.12555185246159667
Ni 8.145265658926848 2.4212481451640917 3.5904796543896667 1.020123745787598 0.19087818447323254 -1.211401222581778
Ni 0.6639714060281061 3.0326556994298612 5.750347211600923 -0.09113455132399143 -0.9813170573330453 0.2268666867526996
Ni -0.005344028343496786 5.462613039831421 8.916512669161609 -0.14833799711817677 -0.45340607207296757 1.656656383412837
P 5.0792247110866935 8.257796178403368 5.162381907849337 0.48947787809486026 0.439870756590694 -0.10775107683474992
Ni 1.9036665518268638 5.202439612484285 0.044845924632593376 0.16159974722408943 -0.16317069125563513 -1.4402651422701647
P 3.6897773417775284 3.721196590419026 3.5503567226595862 0.22185869201514696 0.1790446821734142 0.041064374140477665
Ni 2.357931928311109 4.710765118904081 5.259555580533715 0.00741506151714852 -0.2813221374881026 -1.582944141330351
P 8.946676985240408 7.115283892203796 3.5053665634645155 -0.5989654780047425 -0.2415759679384162 -0.04775721277962098
P 2.6509577630097056 4.78770553041652 9.372909409881185 -2.185458770138933 0.05490256557515061 -1.526267000353281
P 1.5020054495301076 1.911236569628207 0.9454979794622107 -0.08254423855181912 0.7612743354807147 -0.7012406193265859
Ni 6.295048577449759 1.2057182600748646 8.657327753847756 -0.30373290108313494 -0.8403385859037333 0.6001006200504503
Ni 6.808450124549594 7.974260426700873 2.416229333604779 0.7320599187002876 -1.071343977415155 2.231043400747267
Ni 0.3327022823690346 7.5862327059783805 7.774854766039131 0.8210658537170503 0.11774598326393268 -1.4674329609342083
Ni 3.1115069892222507 3.5441188075053236 1.0541029302415057 0.3639347673840119 -1.1510139797429726 -0.1415140322178079
Ni 3.1840836162011477 5.9124411364636655 11.292994815851932 -0.11486891882645378 0.7394256150367394 -0.05058825447051288
Ni 7.325811231931443 3.800663403503515 13.48443412449049 0.28707498081147975 0.7325178321733127 -0.5184930343802877
Ni 5.627297674669865 3.9407730412320165 11.912424384127572 0.7151168630880459 0.05482748936284106 2.0713308432435618
Ni 7.366463329954433 7.090947754878847 5.495223831323445 -0.43422204294534894 -0.4097502830562298 -0.12530039857242292
Ni 1.9269094462897256 5.687802695591767 7.290516942624161 0.852300643361616 0.11760740080353939 1.4727960250183345
Ni 7.650862651648829 3.8213339618202893 7.956065741924707 0.7099983109145579 -0.773205539700662 1.0521136684306331
Ni 3.577017149430821 1.6411504612038266 4.6005680757886545 -0.9505134416886277 0.23331141393677884 -0.5388453727843946
Ni 5.204993574800757 1.8158212724379754 11.050134129459446 -0.910140951408852 -0.2102229075484315 -0.4316815359116824
Ni 1.1821538235937414 4.62238699845636 11.07244087730343 -0.0325751057225439 -1.6309384098214426 -1.2136110857489035
Ni 5.82873915565294 3.00865029103798 3.8713254774365384 -0.3952127515616871 -0.7453124128348196 -1.1767455801811217
Ni 0.5381446647507552 2.874989867504312 12.641626560054535 0.24058095101499857 0.12113135479639785 -0.1630591053784353
Ni 5.64244689718736 6.537096221881786 12.072485244743424 0.5136341636260896 -0.4918078117796175 -1.4084148305287874
Ni 1.4715048923693559 2.7983709980101343 3.425779401796049 0.3886237854902597 -0.6797050592476552 -0.26232091379525146
Ni 5.303523236110716 8.942212144643985 0.846372087381248 -0.2822901578283267 -0.46817063197665176 -0.5459480452674468
Ni 2.7674662165978545 8.442361296885146 5.256933635047668 0.6058539775944598 1.4954381878978826 1.365173760451965
Ni 7.682373769438401 1.4554186045415016 6.750190385606635 0.3518297565903618 1.3762025074623008 -0.7707344524523501
Ni 7.625727252735631 5.7920466179119625 1.7670709090122136 -0.7298667677037107 -0.012229966407288614 1.0381860026059475
Ni 1.3789559125990507 1.1569541162768915 7.218890242636355 -0.7014427080350628 -0.6369838662300448 -0.9225732636349337
Ni 5.560655794656585 3.189807064126193 7.9034651425031415 -2.5771773925044323 0.19068355196392323 -0.5110034108714618
Ni 9.134852561241518 3.7912100681666434 1.5288881996396835 2.48936084981008 2.0120985399448057 2.3117307885960057
Ni 7.191333172979912 6.390601678362102 8.209885498991007 -0.5877156161225362 -0.49399453501829116 -1.8451097604946611
P 0.6619061875793901 1.9098493454922811 10.691919784670107 -0.17012886774102312 -0.02876730194067949 -0.7781587699408792
Ni 1.644081087027405 6.8792261162262305 9.476321916411306 1.7469113603453525 -0.06753928050255464 1.0323341718108607
P 2.6595750890990986 8.106395822376504 11.11642231325264 -0.27261921039746595 -0.9440481456792581 0.35758259991373903
Ni 2.0949197442884695 0.4818196900662464 2.3214617139084726 0.8464269581896584 0.3438572799078465 0.5072794250526553
P 3.0354209607869054 7.816374108819945 1.8486470377364943 -0.4432419870557721 -2.03111081938125 -1.5108558080045336
P 8.865960751742106 5.333729811997629 13.581514090643832 0.04372340902987954 -0.35259620244274115 -3.33400320529549
P 4.256876405926941 5.064351096013423 13.304943857748349 0.6927703770720456 -0.6257118928606514 0.06626941265119554
Ni 4.595395842752056 3.710328470201806 5.685968068704717 0.24127232065506835 1.1324634704342948 0.447584580295184
Ni 2.9324356457953304 7.99449001310689 7.779869902832521 -0.12462008467594667 -0.035665057501777286 -0.6661885128184591
Ni 7.966231063159157 4.5700215840538645 10.908682283477575 -0.24466720526923025 -0.12572874435909315 1.021941001501995
Ni 9.256643490843953 0.24357083490710263 3.286869575141401 -1.1977460936921889 -0.12424701760724409 1.7908240025679028
Ni 8.651391169499178 8.128205558129402 9.804578650705015 0.3498656908854555 -1.1698974469110368 -0.15381650373424477
Ni 4.36457460821474 2.003372138232177 2.303793439350775 0.027679982413771682 -0.4830056401069553 -0.2576523046749885
Ni 4.0317234978258245 6.433633187320223 5.88070585795279 -0.3011360868902362 -0.05979434644981314 -0.6254118451217293
Ni 3.223743527424933 2.6011095632644525 9.588555698539546 -0.9091837297019052 -0.7475654705350545 -0.19261496465868116
Ni 0.8882717684350905 6.756764541842851 5.493368074532339 -1.053372737648715 -0.39795174775940495 0.3700318814206853
Ni 6.625915314240264 0.9807674640995125 2.450099651116905 -0.5956456696028903 1.7696432547252297 -1.3256173383155816
Ni 2.6149358700496728 1.0325173552099087 11.434217907655098 -0.9277113561924474 0.8549154552766439 0.2924915238413608
Ni 2.133486412650167 6.944848248695885 3.7478919274665294 0.7409009140306853 0.6688683736434674 -2.5086667492275443
Ni 7.1555868874641035 0.4839841271948828 4.498916700827122 -0.9289588554463034 -0.9711935957457984 2.118441937798752
Ni 5.546801927126941 6.711454678012481 1.0792282235484154 -0.6058316089969565 -1.9229115992654884 -0.3144950246956455
Ni 4.112476478983358 9.121026254456297 9.57504266554926 0.2602997696001646 0.9378201624916752 -0.298082387665577
Ni 8.752419671636765 1.181033019987232 8.835715590813 -0.3947016162532235 0.32855844476724705 0.8077351980464152
Ni 2.7624409741981766 3.155696049446111 7.158490871234739 -0.0626277021335502 2.694834929819617 -0.856053425535829
Ni 5.843723013703899 1.9424812668883626 0.3211460622327365 0.5728307285909038 0.8091163946646581 -0.7798405285186762
Ni 1.6910170347786944 8.501469906756315 0.017644388579198776 0.2799550819372469 0.24596047015935704 0.3083333759696238
Ni 7.7951523356147225 7.223928346716764 12.999854685216084 -0.097112109063665 -1.056884093236083 -0.24491660227587497
Ni 8.976038364965035 5.1151822956430735 6.685461221256267 -0.6414156767491535 0.011653525078528317 -1.4944436851950973
Ni 2.2260997008241246 5.022477138321042 2.6194916611026904 0.17558397731832343 -0.9300603160405982 0.05826145474505451
Ni 0.7723503587031378 6.72698056403708 11.701402788383284 -0.38326252117834636 0.8632427441954166 1.2425159417087117
Ni 7.501125127202115 8.521874044543672 7.383335098998325 -0.579779391994595 0.8558438806281842 1.1963638686326816
Ni 3.138727817796741 3.3914965918090676 11.879320255310388 0.30959578762181517 0.04115436275112267 1.3414154816901027
P 7.1760920813143425 9.274006759830042 13.20321163793651 -0.1326807501968941 1.299826602504723 -0.5178924246818113
Ni 5.186674866674691 1.3322496377179474 6.154291262227332 1.890366061229299 -0.8931379890929521 0.06676280734784631
P 6.442461812450188 5.053271676755632 6.441537608820558 -0.8159714699132786 0.662809054823265 0.19061824594362656
Ni 0.8286514474091474 3.319269067592854 8.352628106503326 -0.25205424176192076 0.0020872215463318897 1.0497587950452114
P 6.53505672679453 3.2655623636284696 9.917645686006288 -0.2260439337410881 -0.8648429988030009 -0.6542750492103249
P 1.4516060348964077 0.9656458023264409 4.834649746391136 -0.07048345073254313 0.9501334326413894 0.42490359375790043
P 7.234805653848791 6.500072955207741 10.266703432807036 -0.8099851704228568 0.8866282129988923 1.745991676744561
Ni 4.57097702319384 8.883324020728196 11.875569237994505 0.7891651483537119 -0.7932850840593564 0.5310515877715887
