# total energy = -340857.5305309187 ev
CRYSTAL
PRIMVEC
9.40866968583043 0.00000000000000 0.00000000000000
0.00000000000000 9.40866968583043 0.00000000000000
0.00000000000000 0.00000000000000 13.77053912811365
PRIMCOORD
 96 1
Ni 6.068112108978788 8.120481680842916 0.546230668487095 -0.46892910740923116 0.19436974256625883 -0.3228521384110891
Ni 1.5083885163003126 1.5985423892859825 1.3771507462389567 2.625247251428466 0.8307134041091436 0.0520488981764394
Ni 1.156146740383228 7.298624974605048 8.472737569764536 -0.1390822828478637 -0.257841280757343 -0.7805720073680621
Ni 1.0020891828516734 5.942882715382538 2.6424427593805087 -0.5500504974715946 1.5309291817156407 1.9418927683536815
Ni 7.614775093584853 1.7194720208331349 11.215870030451459 0.10423663592358823 1.293824619285017 -0.46118494468743804
Ni 1.3748794933753854 8.87312821282879 2.241692705134034 0.2552768624642765 -1.7164335034714695 -0.30045217344933417
Ni 4.972190263291998 3.2810007035520514 8.12479743763049 -1.0431844842618034 0.26419550511014495 1.6344243114875143
Ni 3.169799636466095 6.9146759818270045 1.9897050091166364 0.1953868709768635 0.8236192162665233 -0.22008797326796933
Ni 0.22664732593679784 0.9759142637694218 6.897277469833152 1.8270189644312211 0.6505888586079892 -0.2816242421095537
Ni 8.724217197618584 3.750107565709483 10.242375676526738 -1.0649815255322366 0.1635779539963828 4.7258632167893895
Ni 0.32541295429126155 1.573863448684708 9.92002053988527 0.6322589499505498 -0.5357505359091547 0.17791159701023554
Ni 1.0804916273924356 5.161144576709992 11.65355287670565 1.6430123102668412 -0.1612264230450707 -1.203105301121573
Ni -0.24200227487361822 6.83592541650765 10.951557918004932 -0.4989667914219019 -0.18116995604653313 0.151567559799068
Ni 2.1359373760656215 3.558208338677995 12.736013738664555 1.031086929667321 -0.349100787694973 1.8101692398637341
Ni 4.546071612955849 1.8621544967074495 3.6107595223738995 -1.4944804519703034 1.0584702067762803 -0.984831241133891
Ni 4.08117983482029 2.0129754718650665 0.6287832772288573 0.07380403046534387 1.160142938627434 -0.4466859797403146
Ni 4.080389506566188 6.83139043771626 5.385010699885929 0.6410500658796185 -0.35743733258512633 0.7663036703745061
Ni 3.8742643709608813 7.665610135928994 9.055065540390729 -1.0248499476186737 -0.6579825799688991 -0.9582671174921173
Ni 0.48688360267289027 -0.08422358847900442 11.755950251561103 -1.7358057373504945 1.0613729822453721 0.10314186019751269
Ni 4.665288866619116 5.150954987433903 11.434642299856321 0.5450880112599967 0.35366860957131346 0.860260521638641
Ni 5.031427247670811 7.95230171010415 3.2098579885453886 -1.1541453262831027 0.7027683688250219 -0.8210823087772827
Ni 7.681576648395774 7.448392178757198 8.909084384922512 0.12004403526949001 -0.6647895755884035 -0.9418125714805199
Ni 3.6558703300776245 3.474367683055442 5.238808440679957 0.20248902923928352 -0.02077194244002874 0.983145625901352
Ni 9.41478532697876 7.787612355820999 13.323753576097399 -0.9095855931260142 -0.6983311589892747 1.476343890270593
P 0.2936069463985401 0.7196973707256147 0.06514374721124823 -1.7380945333846711 -1.9448256257297603 -0.5001512986483064
P 3.8291592084589716 1.2554928836576682 6.121004827384501 0.8305511674996664 0.4975318587475883 1.1798761553903034
P 2.994092729973987 1.1170913524930677 10.235256136171042 0.2850895749503348 -0.09291478315286579 -0.0460361163234562
P 2.346842115874302 7.661554999291881 4.129453837274357 0.15544761157976453 -2.104979641646259 -0.5560491382571907
P -0.22034069464246528 8.614380387637922 9.79479208715599 2.111298127665119 1.9307647767613199 -0.4918929152942561
P 1.872024191214021 3.5188236473486256 9.563667175312922 -0.7577043587412693 -0.7758941422764185 4.491820324003226
P 7.252550719124895 6.43187950526818 11.923881833420008 -0.513012985102323 0.6137549776090914 0.43259787707836467
P 7.418124488359066 3.018028385669618 13.365974040471842 1.9384017244812874 -0.3743634189165036 -0.9845540762131043
Ni 2.315078446995193 3.3942246346217186 7.661391288439245 1.5367218771380178 0.6463563085838804 -2.325046274757989
Ni 5.39120536801093 7.836923193675089 11.704049206940892 -0.5215996983300694 -1.1222420498166028 -0.6591148938011294
Ni 3.9122377618364985 0.09694881423700048 1.8656328818924632 -0.35128339716858853 -0.6819388336741804 -0.37728444921804055
Ni 8.041768750202328 8.79182789802299 6.571989650848789 -1.3436605689705374 -0.9997045587012976 -0.5592735587317594
Ni 6.0264881542627995 2.7365774405127277 6.413559884511511 -1.1295722649294286 -0.40489398340519306 -1.7088875728034119
Ni 2.4021839110007583 7.906801383475189 13.045478997828422 0.45572649267602805 -0.7893286705147696 -0.07471780052886487
Ni 9.393700498199706 2.7477455314367516 2.422581906892319 -2.4782639685659706 -0.1803574874475668 2.406629949168752
Ni 5.474773172212425 8.220881595122824 6.7119539620491775 -0.2645652297447379 0.24151966077918402 2.1596168693751645
Ni 4.164230162188741 5.4406949705891625 3.53060142006867 -0.6434149665673693 -1.2742238143349538 -0.44246397123916703
Ni 8.71466739788153 6.427767916612916 4.763050589917478 -0.7504924143738623 -0.10394995792110484 -2.8839156560727948
Ni 7.106123592713293 2.2310778439878813 1.4299465553468451 -0.038597914877856104 -1.1856264276105193 1.8692081962047615
Ni 8.74818107932329 3.0199477542867212 8.332057258800612 -0.9806853372863173 -1.959034827350607 -3.651286591369551
Ni 1.4142077326866043 4.086166429756879 4.186780861705758 0.22772929186331103 -1.2283561052685619 -0.9453228986266236
Ni 3.12214472447774 0.1150924928704346 4.486827101641284 1.5100402540817737 0.9120337975561906 -1.5649492474148272
Ni 4.95701407907932 0.738861890020596 11.441280116323801 0.0087530636022817 0.40842333671469017 -0.7473536116345644
Ni 8.348679555544901 4.615121839823082 12.382593056435104 0.9309509461756676 0.7249402769363709 -0.08895708405669842
Ni 7.238033141790635 0.6023693779364371 13.130470333754266 0.27796864763483736 0.1096521505122047 1.7495002041184515
Ni 6.41977995604468 7.580753343979739 4.77390160867289 2.0553156987622283 -0.6322859465337433 0.8914107219892002
Ni 6.468864985826171 5.053368265391807 3.701424286123828 1.3134969009029636 2.5391158097460207 1.4674465877809633
Ni 5.587394948421825 2.740801933204292 12.47667316728311 -0.530122648199416 -0.06274443021707259 1.1573085545024326
Ni 5.830806642015257 5.674152291648798 9.24653102774943 -1.2459884736383444 1.4086367167316065 0.36741655528502526
Ni 0.23124157934724476 2.2672918136311546 12.316204542223646 -0.18816489930712754 0.8969018270107586 0.4524359948502143
Ni 4.440750964427193 0.81720600080927 8.366814766375613 -0.8702587705019335 -0.10826606879795547 -0.4987076242232444
Ni 1.873077962219489 9.612555563897857 8.552358437030373 0.2710007009574365 0.4242351069359661 -0.4687941244932636
P 4.252888056693434 -0.2204018509954612 13.279702184600959 0.6697512904690531 -0.7412986636897362 1.2421256482488285
P 8.635785111186491 4.068534582754673 4.271648944058643 -0.9297684958317922 0.07245908640167521 -1.3555105263305882
P 7.622970044886304 5.0724396388568405 8.705114775543567 2.40755786029966 -1.3677908863598378 -0.060800162006508195
P 1.256358481269303 2.7931894060475617 5.952521897481664 -1.2348000611216927 -0.7364174243380349 -1.1387477607811098
P 1.5335943424043212 6.456765436602671 0.6663229284316878 -0.7251786181994221 -0.4196109779003935 -0.8708071868062357
P 6.230195261757345 6.586454539632777 2.07913065106817 -0.2778308365053925 -1.013601114177732 -0.15285851069634965
P 5.802759397664361 8.387245692611094 9.314640387647497 -0.6320206086874985 -1.3744521004300974 0.4048862700957091
P 6.2767399507220825 0.8313933338373531 2.9540560178349846 0.8563275051328221 -1.4010738167826837 0.21930918612041586
Ni 1.1731387978464005 1.0970414773800994 3.82378968066593 0.8820650191082422 1.7716404876609166 0.7899711891947749
Ni 2.412618125688831 8.38883575778899 6.326323639997232 -0.6088367143718675 -0.36837583387450107 1.6096494185356796
Ni 1.4826840307026452 4.093825086885906 1.5102975353807544 1.10177786842498 0.4976429304041559 -1.528921921477625
Ni 6.255419905200737 4.956186116146452 13.393116170798397 0.2840356797645237 1.2634321230360885 0.09281553857084016
Ni 8.280720734361903 4.436037220911661 1.1832653490355547 -0.046668864811448656 -0.8522319949072096 -0.0036771917412710864
Ni 8.471434469012241 0.6080108162835679 4.038430603209176 -2.140015035983837 -0.37629868826600354 0.5419129559661249
Ni 0.4584872966764334 4.893816044760311 8.816450386606116 1.5089151393383948 3.268178593491197 -1.4603778538596397
Ni 3.7144957509264773 2.9807888710299526 11.148297905592788 -1.2076484404075654 -0.6838332224834158 -1.3135020431092863
Ni 5.680051527545481 4.0806717666569385 1.8205615906014434 -1.5609005312667505 -0.12401176166798641 -0.5646283952857695
Ni 2.212843842125407 8.553007635239098 10.67417810422363 1.0397924278611188 -0.984071223039415 -0.5392230678387875
Ni 7.467510595570689 8.764373399862672 11.200516022381608 -0.01254209833106872 -0.9316214898801309 -0.8303778751465958
Ni 5.978889694292595 3.300824770592419 10.336786031680921 0.5800233896846011 0.41885995866698184 -1.740382043867267
Ni 3.734837294799888 4.789840835997564 9.35449268986054 -2.097052159269066 0.33975148526958904 -0.13895527035169616
Ni 6.61857573796017 0.811165634867212 9.325945845149018 1.0017506425970488 2.2330624880598253 -0.19144896937503803
Ni 8.200079026434521 2.7138460945376313 6.072793863017368 1.5068343455499662 -0.34726270604496967 -2.779978039446864
Ni 7.984611081825376 9.113472680102735 1.6996978197421326 0.4720506837573483 0.921520139780071 0.026287730051935368
Ni 1.9342813585638619 5.786021374282864 5.693567081557577 -0.2853371721847666 0.7249436193704806 0.5162646592704012
Ni 6.66990003112828 2.9036189622188 4.086187128830201 0.9909414677966869 -1.682432978156309 -0.6555976246764903
Ni 4.428143347040343 6.53530901118881 13.393846283566472 -0.8981737517446468 -0.40971660160481693 1.2020017836447494
Ni 5.78286006126646 0.6533991797431974 5.254506806060524 0.9787192146988822 -0.6718156291972494 -0.4809747257198555
Ni 8.365746882365608 6.641843378107692 1.6260251134553774 -0.4925143509283389 1.2946913381606864 0.02439616945617734
Ni 6.942422148747766 6.118890699304781 6.880188503072155 1.2584542102055232 1.678665540694077 0.22593209075357215
Ni 8.997887172940455 4.773827280182327 6.272329166370623 1.4698819366953333 -0.10341028336755094 2.1108096180644744
Ni 2.4193641418577645 0.8855552817844734 12.868734315069322 0.07871843704782572 1.1140697984184555 -0.6538677864695772
P 7.491267486542179 1.3257944635938952 7.413906581736286 -0.7562390870496525 -0.8598013226140353 0.6313395234600739
P 4.243262987598847 4.21179098748018 13.634610377508665 -0.8900632068223703 -0.0849199378728473 -0.6824314570398828
P 3.1564393255039107 6.596286599460582 10.867695622442087 -0.43027668514435574 -0.4446859185911503 1.0321760489664418
P 3.2076224886266456 5.965482339981952 7.570656900533599 -0.3239543703363324 0.8607225488767241 -0.6967630431712064
P 3.3853052157540064 3.374823957717476 2.276407873695422 0.5626231919302825 0.1918469761444051 1.2056715191868526
P 9.119785897465851 8.004049393408385 3.370765998479455 -0.8508019473289025 0.5325022041751861 -0.7288162149520093
P 5.546166157832887 4.910808102223483 6.098627247389812 -2.012933634251591 -1.3514906065379177 -1.9513829672323038
P 9.20740883830446 6.9557636423705675 6.645716927419756 1.3883885080055316 0.33089223510674626 2.6334562696018198
