# total energy = -340889.01427076175 ev
CRYSTAL
PRIMVEC
9.06363033334993 0.00000000000000 0.00000000000000
0.00000000000000 9.06363033334993 0.00000000000000
0.00000000000000 0.00000000000000 13.26553915865471
PRIMCOORD
 96 1
Ni 6.513795425345155 2.2002325041454647 11.43688476355149 0.09544269178104209 -0.4053377558108309 0.5156982452439699
Ni 4.842670465851889 0.2509864241651818 6.0354623375020005 0.3507735474117055 0.7461433933765472 -0.8289887081085529
Ni 2.815317645600697 1.6410880887568906 4.9901638277046665 0.7713764569117232 -0.7868269871388385 -3.1861382911589904
Ni 3.5702636658528557 4.25283659834703 4.757977185459036 1.0931829276671172 0.0480919704112204 -0.8503021248743485
Ni 3.833000180308513 2.6174767239248977 2.6746908900454076 -1.8853141006276886 -1.8198774682904335 -0.4751653181269301
Ni 5.296368606603471 4.157215298929782 2.6811913256797246 0.7494467467181672 2.472872879457386 0.5347604040817435
Ni 5.215448515494732 4.717773640641492 11.474505173740226 0.45731929108444463 -0.3803810858654933 -1.3510969706439246
Ni 5.550784708465286 8.273308907295009 11.844401895318166 0.3395697082760862 -1.0949209934041466 2.3785522170959297
Ni 1.908419863762742 6.821224700694314 0.23711635075302873 0.6946498534829456 -0.5660877534401154 0.04409339077478858
Ni 2.72448194296945 1.631145286343552 0.19297012676520026 0.23840605485086683 -0.012766041416416723 1.3082420802619277
Ni 7.800849051871038 9.086198715904937 7.193902144041088 0.05380547585622991 -1.4065093859759583 -0.9773092217252329
Ni 8.884542005882722 2.201265757996987 1.3276813492403678 -0.3245189845905508 0.5337178217498422 -0.17442543823384798
Ni 7.190558570832081 0.567636130594642 4.701426477074767 -1.7646846251683739 -0.8045457445748403 0.6519921667134191
Ni 0.9935914054328349 7.664087934628681 2.5092832629510933 0.5119619181299893 -1.1384366572985942 0.12860298058309466
Ni 8.01585648929056 4.023871170301672 3.4662458193474426 -0.212155348684454 -1.1462450975994194 0.6122948481237971
Ni 7.670305584998372 4.127196555453959 12.618220206532087 0.642172866630152 -0.06572073923657713 -0.06536258456621002
Ni 8.574067350760652 7.306219556790707 8.987999720037045 -2.376659113838275 -1.066015880334022 0.2590090758131991
Ni 7.059027168259275 0.4635185841561874 0.07797984944703658 0.19599056599913342 0.9407990426143411 -0.025274972516704856
Ni 1.7861696185930889 6.732237978639476 9.029971579121538 1.1376758678731698 0.9950426344492541 -1.0156027179887928
Ni 0.17920972327939305 5.046565892552401 1.248685466839334 0.14325749727147585 -0.7952766605680884 -0.6416226505536369
Ni 6.560137766948982 2.0069415248684757 6.827707009068079 -0.7278865040488883 0.5219282853140818 0.2233573880478605
Ni 3.205443483592793 4.552715869675852 0.00511460656503821 0.7720863384945542 -0.8527112485364733 1.447887691812429
Ni 6.323132898848355 5.658678163276937 4.613277234457479 -1.1057134560339603 -0.37332700723218926 0.7610370226589279
Ni 5.450269048698719 3.0459960997683164 9.39230651395978 -0.6399681456693495 0.7128180397515401 -0.6074686303797473
P 0.5044481257588802 5.669491074196821 12.36901387935321 -0.9143647596822123 0.19704009030957034 -1.2121280734454736
P 4.154795309645952 6.366593006024251 12.34931498531023 -0.05454826755952541 1.5401558425202313 0.5548471475292897
P 2.585445854527688 8.855148652895979 1.4824772780069364 0.5450173059230613 -1.5302231567875517 -2.1290752491428817
P 6.524635527155868 7.694423905164181 5.712618546141569 0.11091430505407995 0.021327814943498752 0.22798125997311705
P 4.6875464336693105 1.2700140016060324 12.620130819794374 0.9527495301079979 -0.8582841146385606 -0.6937592233478761
P 3.850764895650485 6.442156491639569 8.069679044961596 0.5437494949542312 -0.6531129105814235 -0.7743743631977824
P 4.962981094142367 0.8424154905987071 3.6586222783295312 0.26283153488308286 -0.07004944851891808 0.07012632450344052
P 0.47778201912234136 5.638493458651135 3.247616555269424 0.4106812795109315 1.355381971172524 0.6927652348657231
Ni 0.6379590251840775 0.05993416156649241 4.610623403512515 0.2004969385099192 -0.44418738168817695 0.6972829202304185
Ni 1.7590331095451988 6.813901287430889 4.854948965787484 0.9381533774613778 -0.6121459812507587 -1.0968390363624656
Ni 6.131147082331184 5.554083869885938 9.002432644889371 -0.2738757085123864 0.6586778062637108 1.5364922776257153
Ni 8.714997737930206 2.557013246350256 10.081663573715925 0.7918491229437782 0.25632124456839084 0.6105724661160516
Ni 2.508486569849788 5.259697158504685 6.70639303690599 -1.068275108681844 0.49931569012088844 0.7404188321879442
Ni 0.5507415237592155 0.15328955341461142 8.85319544057139 1.1399649210176626 1.6235315758344102 1.2656417290928978
Ni 1.4640844530868018 1.1865560940198692 11.459608191017745 0.3976545282339603 0.908591347533545 -1.3163842497530878
Ni 4.039895668630553 7.226994364543677 1.2183114290566721 0.56330941936403 -0.5302234354433385 -0.00923797365850022
Ni 5.620828443242205 7.860569311763004 8.015330798734523 0.24737869066312235 0.18305997398039442 -0.4364686728876806
Ni 5.365043733208635 2.5941922577445267 4.782332972738091 -0.3963594635716206 0.34090822458185155 -0.054411999091977255
Ni 0.6981234029595935 7.882467042511068 6.677275218279653 0.027049033697992123 -1.220582117750098 1.0012955573375013
Ni 4.962391958174393 4.726538171118883 7.074551354196893 0.7384588802480959 0.01007615328907942 -0.7347055838532508
Ni 0.779243800297443 7.768192791984749 11.223455304163108 0.9463253717492089 -1.3818095692364332 -0.27271074167000775
Ni 4.756846950763554 0.7102405702762683 10.289587784074351 -1.409397763267347 0.01032452185445964 -0.1678740102685754
Ni 8.281937483318252 7.045948349770263 4.351467929379108 -0.017254159094757384 0.9081192929931329 0.35477958324730513
Ni 7.383477941267733 6.126098640267165 7.0740347272711315 0.16641568055549402 -0.017456247803234452 -1.3357405427925124
Ni 2.8572097447387566 5.359823082169361 2.237670735365643 -0.14527478481182077 0.4162240637060316 1.0991872248796681
Ni 2.549390733287706 5.409473648824118 11.305966968748402 -2.0542708024374816 0.21380394003147052 -1.0416906733250964
Ni 1.5011456372874772 3.68176444551456 3.410477302256037 -0.6659257460753757 -0.7873355513441408 1.8651193708473686
Ni 1.6388946902299737 1.1171468133623066 2.6872005125530554 -0.7304912886615871 1.951280123105852 0.29337958287326893
Ni 1.2357534791608003 3.585336483002702 8.097762703373382 0.12311213267185248 -0.7175812654681383 -0.7461264240956827
Ni 3.713441833330985 2.7013153039826743 6.796996710602158 1.234744268183093 0.5460670873438144 0.6440649414465424
Ni 4.114743127454026 7.028818088547646 5.918486218790252 0.473043643798237 0.11296321716330868 0.38045976162222866
Ni 0.7716511972148051 -0.19451366300129103 0.11747371201392919 0.841339516364422 2.8093639488081488 0.5095715635209417
P 0.39703685607793954 5.671693536354015 7.625853916670224 -0.16275545809508746 0.4163310215975411 -0.04177836948836676
P 8.439073641422217 1.9410308054976484 7.972204233152801 1.9887804340441555 -1.608542558624746 -0.7485273202276914
P 1.9153626045545538 3.5270210858035953 10.228963880243816 -0.2825408403865521 -1.078542294935807 0.26548208513205246
P 4.075615435550304 6.166613067603193 3.981916532114705 0.3451747131676894 0.06131129731497183 -2.23833530642299
P 7.12109490839286 4.094839395366796 10.406510427367468 -0.12896833434231336 1.2397602333404454 -0.5816565544126499
P 6.436328577371768 7.964075969520822 10.000611153605151 1.075285478561406 -0.8809622729623666 -0.961741449193963
P 2.5949445390574772 8.73596191475979 5.691619021153908 -0.7559040723077369 -0.7959266354472615 1.442251062351942
P 7.0987711870218 4.038744587585436 1.5198855992472027 -0.4861056191885176 -1.3154157151922314 -1.4708959797821444
Ni 5.242131843028797 3.1707479068942885 0.16969109876299554 0.3387904069079004 -0.7265261333662519 1.156397869762705
Ni 1.4462291014420645 1.1788520082848304 6.900534184702916 -0.3454084264450503 0.9101725759777357 0.32929583715390387
Ni 6.791205957218492 1.061958368608598 9.145434977940136 0.46790760812325227 -0.7912305155231729 0.03814154406672786
Ni 3.0914683328656 2.0057723165628047 8.920318873673216 -1.4456017239917296 -0.5368113730735014 1.5861281954852877
Ni 6.609117624963278 2.0684291926643628 2.6371230489122746 0.32414823151469335 -0.25844060490423876 -0.6595152145633416
Ni 3.8653845312865065 7.018730268049883 10.104135938623521 1.6360127390205568 1.2407953594731793 0.8845739015730251
Ni 8.383522651457447 7.300246624438484 0.2944909431294329 -0.9774274924706521 -1.6996115468181245 -0.5426709171780718
Ni 7.873367157713446 3.9188327590271235 8.13149662889955 -1.1197501366326845 1.2677749733858168 -0.4221450571761568
Ni 3.1591192692495182 8.491742396959054 12.032148651955008 -0.056051077357297016 0.014727278907845606 1.0407681615108269
Ni 0.4566012215291501 5.111271149096452 9.878674510043066 -1.4746618745824798 -0.6282755398227696 1.2291199800177801
Ni 8.810084283161139 2.48399664084264 5.557504483952295 -0.2825092158176683 0.16032987937273036 0.5143232192733141
Ni 3.6161800168336877 2.874204051507225 11.394527700180245 0.05178767409525275 -0.224969983950619 -0.1783160315375058
Ni 1.0829678635895632 3.372069262596271 12.69717711532293 -0.29206986292290993 0.4953993857856177 -1.1695763161261923
Ni 3.2392598881544763 8.633823865173724 7.956126259405289 -0.3377910191091086 0.09040975734282494 -0.04792304893352392
Ni 5.859038774169608 7.606008191816764 3.239842679581256 -1.1637982759918344 1.2219566295001212 1.2693230345992268
Ni 3.2163651580759955 8.457092138411932 3.5982639388660975 1.2636095291542173 -0.567602647422745 -0.07819290356165888
Ni 3.5446498466914202 4.603454071963791 9.190272756918063 0.21263820185814344 -0.43523917135595364 -0.3832841184449012
Ni 7.617437429595451 6.359867792359076 11.174160938178218 -0.28421462854454926 -0.5200477804619174 0.215262526854868
Ni 8.146481528835714 8.866704781498537 2.2225353791668887 -0.957508899169854 0.46260933583879044 0.5334789662661586
Ni 5.1289271008751065 0.21188320406320707 1.567588391755536 -0.9610433946856738 2.14326439615907 -0.4793040228856519
Ni 5.765556491497619 5.4900040038309665 13.63286189328213 -0.001248784805436559 1.4901103479270659 0.3676705802773603
Ni 7.989010016411518 9.125625507607781 11.069708037419534 -0.12077448567761136 -0.6526696523964179 -0.41456595927731826
Ni 0.31941502002682537 4.849477252189551 5.264707533321542 -0.03986212630226038 0.6401080136813233 2.05764331845414
Ni 7.216516807944024 6.064565654319894 2.224644485932234 1.156931630778988 -0.25217765471366244 0.8736546835573599
P 8.633461319962665 1.5582918261809133 3.575115427139875 0.28120386674268344 1.5439207088793023 -1.8791095144788734
P 1.9104319896841289 3.415529369772167 1.458718783963104 1.351205214087015 -1.2559283584598755 -1.662392514565666
P 4.883311784011787 1.230079646607701 8.058973991242004 0.46035679235918775 -0.10376021050780194 -0.30143587751884215
P 8.626826742600255 1.7254795502615348 12.227497075304768 -0.8641439158534471 0.6320440057262663 1.8786238330917062
P 6.41532814602108 7.677193944008525 1.07311569747899 -0.06811237939720527 -0.6334288018889348 -0.523678178125653
P 1.9349581732123824 3.34137074684971 5.787953628273918 -2.2290644226440257 0.08184952647763968 0.6721115631711134
P 6.728666908310529 3.8918140771728282 5.859839999086053 1.1748162243688927 1.3574303690611202 -0.007041737338129808
P 2.4836522228921325 8.968389649570776 10.034770163391286 -0.4267511884896005 -0.5001654397156934 -0.7513933289215768
