# total energy = -340892.1799989421 ev
CRYSTAL
PRIMVEC
9.07133421322853 0.00000000000000 0.00000000000000

0.00000000000000 9.07133421322853 0.00000000000000

0.00000000000000 0.00000000000000 13.27681456557734

PRIMCOORD
 96 1
Ni 6.318810079735474 2.0852456980556884 11.653803140479889 1.244690323652211 0.43832886602487087 -0.4114400120538269
Ni 4.514748522865455 0.18383602708688906 6.110786247568821 -1.328883410661363 2.075046858642568 0.059253900565310845
Ni 2.9407813538773118 1.8711440720833632 4.6801298279847945 0.23789054866702905 -1.1798062213843166 1.063126474601369
Ni 3.687533571911453 4.149854111174209 4.94597162191146 -0.7928518531766797 0.6619901584663954 0.29754811242866175
Ni 5.109202113730316 4.2986058467345085 2.87658080148794 -0.34362639484396307 0.972186298676371 0.15637218027656297
Ni 7.2039999265283505 6.068504759616231 2.627003909491974 0.4101907130277581 -0.4146168671199117 -0.7219734809985631
Ni 5.0906240216198455 4.608192334794143 11.39125424080913 0.3680516177658629 0.6747546572209154 0.6870152197558232
Ni 5.476210146252489 7.957401432412578 12.443641473795818 0.600365700786379 0.5744003870708687 0.024894449248834546
Ni 1.8333256804776255 6.567999625768004 0.42866316858039316 0.7112931184665814 -0.14196808903609098 -0.9273190058500351
Ni 2.672777861049315 1.6187432738012693 0.5006950036450423 -0.09864114411368173 -1.1167347468451283 -0.8780109036435266
Ni 0.17482184245301483 0.09418403278621577 4.991497926049555 0.8199620791299105 0.7312345945855148 -0.24176905778582877
Ni 8.340892078882371 2.289840565955859 1.3436269479538294 1.9239698653266735 0.5620670623164965 -0.13280647714148094
Ni 6.908718932247139 0.8415023020643486 4.81581884252992 0.6346079097987006 -0.707003232841976 -0.4474262003404487
Ni 0.6631426393363907 7.37483128913791 2.5149076205137004 0.9263067625354369 -0.7440805973102476 0.47907725158682646
Ni 7.620419515557229 3.9091462624675035 3.728249347609029 0.05512239489544055 -0.5624293307519217 0.22357490337530528
Ni 7.851529892851396 3.9256651617512768 12.913003182539114 -1.920157947779751 -0.08663383524016047 -1.8982531772868598
Ni 7.753632055909894 9.138824763560688 7.111605667947894 0.9224521646760372 -1.2007889942835708 -0.08288696660321852
Ni 6.865775236909752 0.606151076107269 0.36202061306790745 -0.399449415350854 -0.2008394094510025 -0.4155388647135489
Ni 1.7393829451768288 6.672220182534212 9.144644931479672 -0.1902742323406465 -0.8588304740603339 0.36520977744169364
Ni 0.20172560494385128 4.785591343247444 1.2131104080773518 0.5445534789127653 -0.04779166556198221 1.848300499517817
Ni 6.524194153696978 2.0678378080361606 7.006573226785258 -0.9706382374629606 0.16626732790308785 0.8066671617932172
Ni 3.08059782540987 4.319424558352442 0.3824483501887904 0.7534106164619219 0.5872443329130725 -0.19992538227716536
Ni 5.8618325562212865 5.727032532411917 4.917599210439821 1.968334764595294 -0.7663342665021254 0.4767987399652949
Ni 5.383238043693792 2.9347398454077926 9.424480165293845 -0.9300970828158047 0.30943637922581546 -0.5372140078285587
P 0.3512420539635808 5.454738298583796 12.315001792931868 0.1506609888243986 0.9965487866811354 0.6906803273122363
P 3.9760473510000818 6.183665345232648 12.673422900653373 0.15684346348602665 0.05130584936282777 0.38697133748850127
P 2.379410918250187 8.461885532285423 1.4277218430226306 0.8013017837162458 0.1651625248746833 0.5763492832671235
P 6.178685182845612 8.062764977267614 5.8671701291694305 1.9836343710668418 -2.005506488549585 0.6079599681938691
P 4.630462459858208 1.1265236175482254 12.609069949852158 0.33475660315815897 -0.4351036742193539 0.27672603347698793
P 4.004984906582308 6.219714826700914 8.307090473988799 -0.37615393515802314 -0.03455871181147597 0.0909741144867272
P 4.996917141004045 0.7792085440898314 3.6380857300685947 -0.7721025364444702 0.9487550642366241 0.4994280473290367
P 0.145453398503968 5.6118991607976145 3.6501415330055162 0.27620075710113723 -0.19129521740599312 -1.1338405532874796
Ni 1.5725973975483578 0.8477832937524783 2.9771664747049953 -0.1217263080679194 0.4524123407011305 -1.0982785970224698
Ni 2.0565439971584576 6.301674329737096 4.779493592506888 0.06928197422527423 0.21912663779596456 0.4000160864876014
Ni 6.019329057794522 5.511352494316924 9.187488842142637 -0.7455235004043612 1.204904044893209 0.06307584541456233
Ni 8.65515030397174 2.5029987731881995 10.511944432739892 0.308015844729205 0.6498144423358099 -0.40108952205743825
Ni 2.382286531140333 5.118364161109015 7.0772189620088515 -0.6683086444852554 0.7705318495232407 -0.5736393405351282
Ni 0.5165344600093451 0.07361659712114277 9.11266122192738 -0.0898885947320323 -0.0027528801547888077 0.2554157020349859
Ni 1.394608752382567 1.0334880156512605 11.484365134778615 -0.01623368825004301 1.0729686575027715 -0.44339805301766216
Ni 4.067631539450916 6.731292709791724 1.6848542491391099 0.4732169361513076 0.35421856853751255 -0.3866334945331083
Ni 5.682982134321855 7.886826453594482 8.063792759414154 -0.7397174352455453 0.6665006447422392 0.09951814740199635
Ni 5.566097995238159 2.6628084649412056 4.851427457163924 -1.5886175375660447 0.7068350826952278 -0.6588230735923234
Ni 0.5896639264926303 7.462061237250354 6.69300170168259 0.3365283503466011 -0.3238533259820939 0.7125611865457276
Ni 5.022035664956141 4.502946717281606 7.059508089432444 0.21801592123028904 0.4369235010369121 0.2815553365448312
Ni 8.01651931634028 7.115808417007846 8.927980653641523 0.2802307041961367 2.1105869605307075 1.1375825368284151
Ni 4.691557894606264 0.43799031423858925 10.48868371799884 0.30863779458392004 -0.6435887731410723 -0.21835607817852717
Ni 8.058809875626908 7.229054951142178 4.723837329648206 -0.13962992782121758 -0.3710374398670642 0.15682546576389764
Ni 7.1170602611051335 6.03059565467011 6.9723724831939995 -0.020973774038189685 0.2282599675558004 -0.40874446749953475
Ni 2.2815493666448385 5.304752861594285 2.5555744110074694 0.03622195844651181 -0.7801950836446175 0.43819799687396144
Ni 2.505166822023357 5.198436826665226 11.326476751574923 -1.171655310142408 0.3040974835114053 0.7989456247792434
Ni 0.9962955460941663 3.4406027880544636 3.817575681017727 0.5858993888494038 0.06085389806257906 -0.40127952658105726
Ni 3.854736400905687 2.4112603720587136 2.518465397723528 -0.6761278834193581 -0.24914143899049995 0.3306443807619983
Ni 1.3889391686086197 3.174585917380858 8.167179660582242 -1.3728688151033777 0.13379223809351798 0.6367552951590066
Ni 3.6357453258867096 2.639476993794658 7.2825050655627415 0.24070770640084996 -0.015642077412631124 -1.3603678544228894
Ni 4.11602710654533 6.868959275157201 6.227649522584228 -0.21298452945396867 -0.17320107890844363 -0.5916108374118844
Ni 0.8539962504353207 7.501376398972413 11.366320772071417 0.21273898910206587 -0.6845760141867113 0.13719303624495083
P 0.03905481443516024 5.667116371088841 7.974625174351128 1.6496979498171331 -1.0170399646559516 -1.0628878762280018
P 8.641534231580227 1.9045447240124413 8.002201122694203 -0.0048069344703401086 -1.8205467264433162 0.8103973182596108
P 1.7106358876094065 3.215542990563853 10.391390939037695 0.8370478309676035 -0.376681525526719 0.5746721526750167
P 4.168903912654672 6.045137003133529 3.9041007864753925 -2.48841185563325 0.644178327095955 -1.6747055276050642
P 6.957359425360587 3.9820072174632553 10.35591476588065 0.9195864130924679 0.23375775744557803 1.991956260668976
P 6.321014413906784 7.7058986962002765 10.127035936759908 -0.11107165656755065 0.82054520532689 1.7264556635941621
P 2.2018486257841974 8.440295757274233 5.399853099118371 0.14215757933907774 0.541575370121048 1.1706006436256486
P 6.710700781524747 4.055666449854377 1.562362211352926 1.3202162219046685 0.537688633472132 -1.1555267800116615
Ni 5.001470950691279 2.9537896468882563 0.39353896318403514 0.7633409882017563 0.5793605592896216 -0.008511637015436955
Ni 1.6309895747529954 0.846848039213128 7.044611144674723 -0.6292571870097485 1.0062868399045057 -1.5394901839117745
Ni 7.121586856790254 0.9372955895089615 9.49822013255791 -0.8694869253329154 -0.5856492205118108 -1.128084881750625
Ni 2.8762932401989256 1.428671611696442 9.122007417387055 -1.1891881768198487 0.09999380148683423 1.6229584769397598
Ni 6.343475036985654 2.053468814919469 2.344101657639448 -0.5580414860968712 -0.6320650887721889 1.395753690121351
Ni 4.174682352437078 7.032061861166116 10.617468540207405 -0.25004518175169194 -0.4828516310275942 -1.4949357943401675
Ni 8.392943393594226 6.98400193343112 0.3929166696690067 -0.8502036516232713 0.07500756385514179 -0.1402415932632875
Ni 7.661857369444255 3.850672443256521 8.267260060493362 0.7924191365146352 0.295113277734924 -0.3775341033350014
Ni 3.108746174930763 8.57273723423364 12.428956798254593 -0.33665947660782664 -0.6007865903738814 0.5455389827544863
Ni 9.119774962080225 5.092420145759432 10.161516077439545 -0.16605906854702368 -0.798375096987754 -0.0348729006177851
Ni 8.799393586514995 2.4384290175034686 5.818643934864865 -0.32400065019323554 0.25903195863133455 -0.0506630735725063
Ni 3.7003604382416317 2.744586541296621 11.386594296513648 -1.1495448513966138 -0.4359624226752234 0.03002277161433539
Ni 1.1257434828209303 3.3080705977546727 12.684137053286026 -0.22395594086380785 -0.4739203899762354 -0.5665492664575663
Ni 2.9015387628275575 8.25650145832392 8.015505141194797 1.431404606555741 -0.07167489993748301 -0.20712961333508845
Ni 6.00043346899271 7.850132907409495 3.71361819293863 -1.4522505967668151 0.40096173823032233 -1.1986750332643614
Ni 3.3081613110950556 8.206137411743192 3.5412583105436135 0.5720156888887761 0.12588249632813803 0.23105347114053754
Ni 3.26650574519111 4.422756124382897 9.275315684034801 0.7618633752149654 -0.5973377125933326 -0.4479869579399252
Ni 7.304492165004811 6.297828084104849 11.500615522574853 0.13657365749339703 -1.0951238534435719 -0.40225963110613944
Ni 0.6291287652263224 -0.16162123716045793 0.28424299502338934 -0.13114065940328382 0.9148414422083148 -0.1583169627077596
Ni 4.594648833074939 0.31365135284220474 1.4345062937498867 -0.07015743485169208 -1.1486133407212797 0.20725328339714627
Ni 6.065375149373012 5.943601561242663 0.2957291181827046 -0.21571324123904143 -1.8299425658359196 0.320522461836648
Ni 7.914902232443069 8.703001591023854 11.453762082266953 -0.43763183995784627 0.6223262642178701 -0.041598906487709
Ni 0.0032221378504097087 5.081289618894418 5.698010613423133 0.10431762567316873 -1.1035444734070996 1.2198023021612798
Ni 8.228570820819947 8.995978466459334 2.3168840269908855 -1.4790281219709753 0.305402575476074 0.5252324099866503
P 8.688433028558318 1.6932098549218022 3.4974845881417216 -1.0583653057673 -0.014368352906530095 0.7974466716362136
P 1.8969066607521794 3.10273188046336 1.7408162159548826 -0.9552409290712839 1.1283286223303148 0.8872167385125107
P 4.866997494907289 1.1621104609805375 8.389340259714206 0.8397922264819601 -1.1530654629553625 -1.5748207408922683
P 8.541676986486449 1.5412831524480923 12.495486869225003 -0.3682565346878174 0.12064387363701802 0.39787564310583085
P 6.349026693417103 7.779331145240443 1.3913965929995993 0.47533886759031685 0.250511065644517 0.045937128851746695
P 1.7940649467597953 3.2647912630578686 5.999500028720168 0.8820562773574938 0.011357333994348181 -0.8145375656802295
P 6.880198658030674 3.980383448670396 5.965419026738217 0.6897174491783348 0.673374231933621 -0.06843248174078537
P 2.4695255505868148 8.641026236874081 10.287047919261969 -0.20599292862748392 -0.7568651506694255 -0.847524047908579
