# total energy = -340874.29589132883 ev
CRYSTAL
PRIMVEC
9.25843553028181 0.00000000000000 0.00000000000000
0.00000000000000 9.25843553028181 0.00000000000000
0.00000000000000 0.00000000000000 13.55065625557202
PRIMCOORD
 96 1
Ni 2.733534482978109 7.940126632345879 5.148652861736772 0.19924018328468268 0.3076263226002702 3.093416083632905
Ni 7.230310179037195 4.089969310757321 4.722295438772756 0.8703243336325462 -1.1938267040331247 -0.3641378845337535
Ni 8.312880492894237 4.829968262895833 11.120549118396944 1.4393485439931661 -0.004643155198966197 0.9956769255991432
Ni 5.774291621990002 0.6949418512780106 9.028354775968232 -0.02155972844864674 1.09979477655668 -0.3374308075562124
Ni 1.586118088813058 5.14879173826513 11.169060541439473 -0.7844410034051651 2.6410178839991616 1.0951901879051333
Ni 3.226314697768759 0.6784470230831582 9.324598779513547 -0.7074711736173299 0.6936334964032893 0.017031758671306154
Ni 7.305534965231164 9.149028294832673 6.731722147830609 0.340529243975878 0.1053075003902638 0.008919671087133025
Ni 3.9624158486780203 7.897213785083228 8.567659668445915 0.057431759754907545 -0.02074983095284168 -0.1997225222377399
Ni 3.1744582020798457 4.1262994105757995 2.1229406799636727 -1.4621254326783657 0.01528777939700593 0.8334233468411388
Ni 6.290125340488097 5.786512756485514 3.4037896425751843 -0.21749064485443834 -0.6820015685913158 -1.4976629634633434
Ni 1.8845174560784907 -0.08315463596321698 11.138828972902958 -0.6208764191452211 0.6483301444807995 -1.1839850353523544
Ni 4.432364762206599 8.824186836567858 1.2357113133645625 0.1367567200384806 -0.6175026175769817 0.38404722186317086
Ni 3.3847265244492295 3.992089133570534 5.024867582793588 -1.1228930531370402 -1.4047692633564 -0.7651664714462694
Ni 8.228693541403558 1.7920442050624454 0.8583402711700588 -0.7062681544481644 -0.2491753775522289 -0.674246093015613
Ni 5.338571143484083 5.301037447086501 5.71595144411381 -0.9341823086287717 0.29715499075530116 0.22516873022498643
Ni 0.7473844059165954 1.656491454949718 9.792259007854785 -0.7259121539313369 0.6502546151970221 0.5856096255231269
Ni 6.135120617970012 1.5254105290501214 11.355355071640158 0.036947523758626685 -0.8161249647720074 -0.25050103834218795
Ni 0.008310371456948568 3.7897645486232334 -0.20595481739858132 0.46515627063036014 0.08991713397712257 0.10602072440720452
Ni 2.6006481622098576 3.079587016340817 13.31110692833113 -0.3617503581381834 1.104903558538155 0.4758204352124257
Ni 0.8230850756810721 8.829538212127257 8.762287716191608 -0.09525577258121659 -0.6940664701756498 -0.9460991146710158
Ni 7.038188389706602 2.2552714946184924 7.237771551984113 -0.18516853568296496 0.15180307284864178 -0.927972580273634
Ni 5.104610485376807 3.278624856783643 8.206439966499458 0.49179444204317885 0.5911644939030851 0.3654357774095706
Ni 4.635976269650018 6.969861137754418 13.183406257131768 -0.30499145608058437 -0.23877038016882102 -0.26825527700181545
Ni 7.261659240705229 6.858454386705551 5.371845959678683 -1.1174148036312885 2.6064810265645564 2.2826873501758045
P 9.129854075484031 5.987050463434608 12.894587518636001 -0.9010922109430224 0.9764162775973183 -0.46981716644113924
P 8.906938730598837 3.52062183666524 6.237353185555541 -0.2790076304223131 -0.828060796977645 -0.5487294646673259
P 8.215129933800585 7.276241276182829 7.524164580451227 0.9254323303502836 0.23115965770109864 -2.5438687510499736
P 3.4764683590825887 5.266234989079961 12.328536047483617 0.5594414517681914 -1.4799094961346642 0.9309059518703451
P 8.106963635080074 0.9161934553534751 8.74942774966565 -0.13290649305445498 0.26742841022514585 0.06771180152467693
P 2.5174981554642524 0.48201543215585274 -0.09467583275580477 -0.26046997662944177 0.47995168377197983 0.9194390888813262
P 1.1607763161931 4.062730994328686 9.434277906549639 -0.39744318355410263 -0.8204984112493546 -1.4373556819328537
P 8.448581377970546 0.7602203005109732 4.795035260952638 -0.3369392126317745 0.07754678533722774 -0.13797336605440108
Ni 7.193665292421104 7.972188593526152 2.5145002741387623 -0.6035993772323281 0.3921066018325376 -0.1813350208694877
Ni 8.750887804900454 3.2275368112183105 8.411664293358875 0.7792887697802644 0.5074120939757778 0.022635478011328758
Ni 5.136996491789916 5.857358302818592 8.2537857525473 1.202029037338259 -0.3573314031348814 -0.3964800483098849
Ni 7.044835946197343 8.029766802183419 9.19918771934505 0.7504687602247785 -1.2153383528526553 0.5030016236129078
Ni 8.968396223614906 5.852099511611432 8.862101980496664 0.40022074629923976 -0.6227965189860694 0.16180466414604391
Ni 6.4889132031798775 1.8452709491644923 4.7042998182281135 0.019304356755566753 -1.6257859190862258 0.5043583947511184
Ni 0.32308142972875614 7.745949470395587 3.76725821843752 -0.9515033164057226 0.8658261886518767 -0.27481467538688803
Ni 8.781625809843712 2.083860824883704 3.169322548061163 -2.0056574123051525 -0.12604447582729905 -0.546384104363601
Ni 6.0000030143128065 5.311351343925895 11.512406834186242 -0.9144614331610766 0.3187656270465413 0.5707653614214429
Ni 1.6855814584231277 5.684595901541118 0.43922109286406613 0.9510436031604846 -1.582727911554487 -0.1609752262662131
Ni 2.2425689214913382 7.864059328546537 1.0241847696482544 0.019982356659197842 0.11458146949302203 0.26278319814365064
Ni 4.821061648210467 1.0731452267991406 6.686706709928615 -0.6377343712428243 -0.9356681491456789 0.0897636391183938
Ni 4.135715239198479 -0.08379994889832094 12.162282326168526 1.1473491292968756 0.4211968343302746 0.022655018395354533
Ni 4.8827043099310155 4.788508989963329 0.6278941150737658 -0.11992010809711603 -1.1859848393912025 -0.26860186170795675
Ni 6.582090095272937 7.778409544290486 12.08760471349629 0.4468728989401401 0.8236318146720139 -0.16716644267858952
Ni 3.9722668237562218 6.130324748524045 10.35562831032281 0.4028648687903062 1.927649628171106 1.2099927722700259
Ni 7.5070448078787635 4.9362736161363445 6.870440356946378 -0.44719274417340404 1.0295121289810334 1.9887392963935748
Ni 5.345357576503182 7.811628809873744 6.4677012022384615 -1.308666569393856 -0.37500722314808965 0.24801658135743737
Ni 4.557631390785604 3.1895957436708784 12.049134989297574 0.005233737595113567 0.5188751003100548 0.03829246782229534
Ni 9.090135388373614 6.700866560760006 1.6577468987660753 -0.03539457744921001 -0.8621474542487088 -0.4677816240683492
Ni 6.875267705072106 3.3527849229268667 9.988446176092179 -0.585849509448075 -0.5753635223150866 -0.19366628874133096
Ni 8.16229204397794 0.14813033436435896 11.248982131822512 0.6039439050559405 0.9958389050983042 -0.5801532303942459
Ni 1.327900330419235 2.0512618744604465 1.6147099884714233 0.7797909062276634 1.2964756837546187 -0.18769798697303802
Ni 1.5675827014948638 4.3249669136096704 6.8762935396949105 -0.5031324927638174 0.3685344709395524 0.4129430789619146
P 6.904866922482828 5.55456117882182 9.577861423375552 -0.8073857851267966 -0.030049253976896634 -0.6254802364658196
P 0.8676912907461707 4.286359238726119 2.279612846665577 1.2856577672035083 0.1452686141642337 -0.3868602658319337
P 6.2521842729406645 3.0791981620614144 1.4960872130090705 -0.9642762998006748 -0.28859527411074815 0.14170917894774948
P 8.28611435666202 5.861515340234111 4.013961260943412 2.7000498983616534 -0.7949251907659407 -3.0004848454198068
P 5.924139396088389 8.611270601724447 4.541935565550571 0.9306174740956489 -0.2542131970864525 0.05365866586572049
P 5.233395319340883 6.688052886410166 1.6940760727410311 0.6589354308004717 0.49239608018291975 -0.10599321360337877
P 8.490577640146036 2.4152665137222447 11.695299815285678 -2.853876172287911 1.0526520574326066 -1.0066082277996664
P 5.2024814041283705 8.336757997336607 10.438666290002207 -0.4585094547378039 -0.17608997042046448 -0.37513397853394104
Ni 6.0911986012679575 1.0924768395465878 2.3745766167568445 1.2728863264704529 0.09110755474079793 0.16461847944575522
Ni 1.382441772323072 0.8274319110186805 4.056321379623199 0.2233895268373766 -1.267075633325947 -0.41410470337018357
Ni 4.345400280148759 0.3783348453013089 3.66424609060614 -2.059984307882491 0.04452559321620074 0.28665357700334504
Ni 3.144072017675094 4.715182182990254 8.89610080632577 -0.6952347794521382 -0.6221797113376768 -0.7750531344323619
Ni 0.4237993173116606 9.219031323560378 1.731516258942852 -1.1852803571250103 -0.575400546200609 0.14115819154028594
Ni 2.914129520454979 2.6286456703268497 7.8201373118444835 0.06398035950670272 -1.3129757382921712 0.12196773465476414
Ni 3.770775497979069 1.896831174926242 1.473592918789148 0.5139393535713342 -0.2963785176005928 0.2856719298163661
Ni 0.9142538131740737 1.5644626088244185 12.379594466056234 0.7934997711733238 -0.18840144079796586 1.4950841469925735
Ni 0.45152184990250405 8.939954310607169 6.010406717973872 0.7487337798115427 -1.977930892924161 1.7416663098963294
Ni 8.004870869866425 4.24436297655063 1.983721589502292 -0.22326714232689937 0.6455163291810884 0.5433800274299545
Ni 9.680156948320604 8.273809896249492 12.922054518414665 -0.8829469074925632 -0.06382069400038687 1.2036182362022498
Ni 5.68811410692619 1.2122902497787305 0.045535761961575466 0.46353698985938235 0.4980905594645357 -0.19757899353217584
Ni -0.015008849341420816 7.312654701918323 10.776836191615308 -0.04356065819977014 -0.66048760577894 0.36860903293122965
Ni 4.256139706155397 6.682534859016737 3.653324840416059 -0.18037471383874742 0.7076485797354587 0.29829424656606696
Ni 2.338671479115142 3.067838062041722 10.94169374089864 1.550473936616788 -2.079497438214754 -0.6420162864476298
Ni 1.2463242576616884 1.865648765092237 6.288682876280217 -0.19635540553771988 0.3092944543313125 0.43906702974247613
Ni 6.902968943261934 6.034407359604719 0.15108747857486407 1.2456277478648161 -0.307220088300787 0.6175704947004396
Ni 0.41852663845166477 6.381117241868322 5.619212831990127 0.2156916439724866 -0.9103183575269806 1.4429002659001664
Ni 2.5487175990391524 7.34606839464128 12.131386927826462 -0.19815800596409744 -1.854893579354302 0.690703724351004
Ni 6.769582666991593 3.3665799914104375 12.959562291193622 0.7399580905014417 0.5939479701854933 -0.3539221203430163
Ni 1.8311796107537572 6.790867809571277 7.699428610926192 0.48258655029166564 -0.07118330501304515 -0.3387724091857714
Ni 2.0596592752084995 5.816528603481312 3.7032722467618098 -1.1600781468277699 -0.9474402020799426 0.08810373491746762
Ni 0.919046905089473 3.277930474141852 4.450915888864674 1.0702908535602922 1.6711558625805931 0.018543053109510002
Ni 5.120553510832317 3.48512499601691 3.511923536772411 0.38818978327663467 -0.31943488519942403 -1.00793491703089
P 2.897427303311112 2.185407342419145 3.5505025105067682 0.9790030644878881 1.227588630974918 -0.75525435453888
P 5.1001664364693475 3.0759021591217155 5.988928999941532 0.9236708675744866 0.5065566879540179 -0.3487326057222769
P 2.3666597287969107 7.887520203403832 3.1683874461035515 0.2702070014115476 1.3537732319245073 -2.3318139324991263
P 2.9454508068173424 5.7991875543069975 5.937951129755364 0.019881826525591565 1.5830662687305124 0.4196063499147031
P 2.016477933324355 7.244744079551213 9.929839355281539 0.2662732135747801 0.09665265292874321 -0.6044617252326235
P 7.304572087967881 9.052009152121705 0.4785620358173481 0.6376027307609664 -0.6828099234252241 0.26402324119833886
P 2.6890477017273984 0.26905660851041135 7.06903842171607 -0.3278218237115386 -0.12912799984862922 0.28704129936006695
P 4.3984696308519995 2.315099503035161 10.074451484260827 0.5504027386046909 0.6899164525630183 -0.2877182708224335
