# total energy = -381169.046395509 ev
CRYSTAL
PRIMVEC
9.27722501734749 0.00000000000000 0.00000000000000
0.00000000000000 9.27722501734749 0.00000000000000
0.00000000000000 0.00000000000000 13.57815656916006
PRIMCOORD
 96 1
Ni 8.444157770917235 6.14890743486108 2.78292435241542 -0.6275918834921838 0.9355457646352017 -0.4416638439353749
Ni 3.2396625352266732 1.219639624909394 0.5941505799042888 -1.8557245598960297 1.0661673183102218 -2.5685292299111313
Ni 2.2499310933037897 8.56051272334306 13.281595899710268 1.070390098142318 -0.6102474786764651 1.2388186953627824
Ni 1.5171138355244558 4.820807775761737 3.23742579634692 -0.6090837973856671 0.2825428972690811 1.2276811906887244
Ni 0.7328794151849515 0.9893696301588419 0.5160224319331445 0.222256698784514 2.4383103109911684 1.6481578590235229
Ni 4.615363634359256 1.905189422745371 4.990488215872434 -0.11976069970111633 0.3635053931560772 -0.3290752365026655
Ni 9.160415182573134 1.7900497867577356 3.140193059511918 0.5369072752214172 0.8690372393900065 0.6288905476989491
Ni 8.969749660148038 4.0762733831622935 4.723447013225614 0.10552990081371502 -0.49638951761302896 -0.9342856669758555
Ni 3.57917185104357 7.171740014581391 7.072372588338545 1.260057807247217 0.048260891888916885 0.4348897584363349
Ni 7.856278594922996 5.20355823599394 8.143458796989844 -0.2736299110501675 0.19500377660583187 0.3510666531720921
Ni 7.575596161049343 9.001106679698292 6.383498760885746 0.12670164979532372 0.10573018974997919 1.0241734903769395
Ni 5.9174963414700885 7.392797725185966 4.245916714374114 1.0248766870915509 0.2123741495634794 0.1864252909082015
Ni 4.332055745890123 3.4494484177976505 9.35790224833412 -0.6863662733179148 0.3606861785397272 -0.97982247506539
Ni 4.554792634168839 5.798942686785858 5.387730628838203 0.7174187717483451 -0.9697684332634976 -1.0065812312164728
Ni 7.914140645495463 5.949159509436071 11.797937591967507 0.6385177863760682 1.7454499453084777 -2.478090933323216
Ni 5.4367598337557 0.1612066230523525 10.050428519158794 -0.1877082713856832 1.467954894875949 0.040288672316717705
Ni 0.6666891999822294 0.1698427915432791 6.770598384066222 0.16424361260483972 -0.6154130820378046 1.0119831189583346
Ni 6.327503287926744 6.370874313488118 13.45126799031872 -0.2280823043273556 -0.43950668838305595 0.34985129270775234
Ni 8.316299059839835 3.9405197538490175 2.29504809255728 0.3831740752295982 -1.0003617326693224 -0.007820781595999434
Ni 6.020853902064582 7.947789139551313 11.627056678978171 0.0381975941156439 -0.8135497478456634 -0.3868389256756951
Ni 1.5252870705019037 9.072717577304331 4.688985834284378 -0.13786949348668515 3.608469239093708 0.867908525102202
Ni 3.8300836707939196 6.958911202302578 10.968543497140807 -0.23820962256934455 0.7371666437992337 -1.0188353659934775
Ni 4.68085156365075 3.9457521085905394 6.756015514530409 0.13711153227473805 -0.6728219589745768 0.7491577547228387
Ni 5.0083932595801235 1.5958774733888523 7.4405309018102175 -0.07158799665063154 -0.8829857311502987 0.8958114221600573
P 9.074832784540266 8.152194231785264 8.281982605604217 -0.47290583266879205 -0.4580363717561272 0.5441462161720176
Ni 2.1633282005518297 2.436588854650275 4.223512216677704 1.0306351868418833 -0.9486817877965276 -3.587867760793272
P 5.67061083724779 8.64365521127483 8.164504181264919 0.12370245795768374 -1.0054923690276683 -2.0527520518001103
Ni 9.039031974349605 2.315790111584043 7.6474074467093125 -1.6332804276910582 1.5194849444344414 0.9565334226304621
P 6.405404143892273 5.411349515250331 3.992208739093454 0.9910612812040028 -1.809727010119993 2.2681415911511453
P 4.227761185599011 0.6231511843759145 11.835657859952532 -0.18793375713292795 -0.10489792365667096 1.4139054213297133
P 1.2222094161565598 6.072843469389914 5.278182376188715 -0.18688834658754908 -0.8368076899323394 -0.5663896009512505
Ni 0.3873556745827202 0.9068923192394256 9.310595824046944 0.7611172410775602 -0.9648524840191188 0.2272865478989376
Ni 6.898108271494186 2.167762713967517 6.121901433704041 0.4823206982247888 -1.159964761178357 -0.7401131280220673
Ni 4.131853236453884 8.986587823013041 3.5501443426202592 0.6245546393277566 0.9455478701532363 -0.36039461544123735
Ni 1.6898835914665826 2.4008715394820856 12.379137166164059 1.1736157763028885 0.2084827849288732 0.05946524524516855
Ni 1.1196868057867781 7.4909785943872516 3.428036583146175 -0.4280801917136692 -2.7279473961028695 -2.554040035156021
Ni 7.572265637375218 0.7937834677427815 11.221124289618105 -1.0160176940390242 0.3043165415007469 0.11605008361874854
Ni 5.343078418543135 8.814597353947311 5.758319575186256 -1.3101819775971177 1.7192208364086197 1.5037132834224811
Ni 9.213026323954642 8.62172385203909 13.03930726033624 -1.5411799129093717 -1.5111856805401265 -1.1885073487027402
Ni 2.5635662293793673 4.8336196230986905 10.658689757860696 1.5561131371804362 -0.12309593472193639 1.2433494933536007
Ni 5.2154145291848355 6.1592793720969325 8.805950052786722 -1.0759313396755212 -0.42171953960296404 0.8158814813026336
Ni 3.160546362822954 0.4390149727080565 6.3789770415577 -0.728557561973984 -0.2329046654166634 0.29182303701942647
Ni 6.84642485258458 0.6758625197843867 3.7739666661910993 -0.22405030034982704 -0.41110448309127906 0.8871054097456269
Ni 2.2261813980231238 8.72378260117292 11.025639248951483 -0.6594069711202514 0.812749106321239 -0.1908732993772261
Ni 8.928679386316979 8.264680581503264 10.637494082545174 0.9865132568220044 -1.1132046222046827 -0.11127168839349869
Ni 1.8470397782066152 3.280593650686946 1.47249687868332 -0.5084960710685759 -1.3602716951646574 -0.07722462611111862
Ni 6.587525342351162 3.2755746721139616 8.046130504740237 -0.42142283429815164 2.0138036955613705 1.4704604349066226
Ni 1.2805074962908198 2.380739961841834 6.137285855455575 1.783966356216121 0.054408656657867586 0.9095945919870786
Ni 3.002944869296409 7.373361939399639 4.811161317498911 0.4364730437630548 -0.5916694585639616 0.48155913746841583
Ni 2.806026497410699 4.158924178183955 5.4384724094388295 -0.7105482698807569 1.6735565016022855 0.037551218780896616
Ni 0.7068234018391394 5.763911886246875 9.549856377272688 -1.5908808796789247 0.18393594882744452 0.5269730468268408
Ni 8.391166263322248 9.163216904438276 2.14589165669245 0.9077737367282561 -1.8724161616190977 -0.7858687369906272
Ni 6.158861896984578 1.8279008636112972 12.824527447699019 -0.6868473267193913 0.6135045521611822 -0.05147142840641458
Ni 4.417313441057827 3.428008751472018 0.8174079204897409 0.577051965761103 0.23471035116683447 0.44568530638994214
Ni 7.285404571838704 1.3043128549198 8.646243556971433 -0.7915313345930433 -2.3560686912814326 1.011898015443696
Ni 6.584807115508492 8.928707217991136 0.03469867589404192 1.730898272746548 0.15049952354586985 -0.7276386497041403
P 2.3036647788762967 4.326452302159841 13.189495323589824 0.6526873930082308 0.9132920954433239 -0.7982252016734511
Ni 8.501166316815553 5.095793993657918 0.17010440928035517 -0.14655159464171535 -0.7096517262084165 1.6443446559250199
P 2.671914936872687 7.732603912193872 1.9367069382832645 0.8104903921940493 0.2864250059323067 -0.894997153788878
Ni 7.464325127769535 7.025085646223278 9.417551092387468 -0.9790583432058557 0.5726620642235234 -0.18090024732491428
P 2.796331797579333 6.293084784219216 9.065428461842606 1.305260114815468 0.6131152871425635 0.06775062518241236
P 7.990733412775611 7.348267046534717 0.7209034457951813 0.9027657419907033 -0.4132415840389399 1.617906516338149
P 0.3774429599704578 1.00485331821487 11.505790363786101 0.15870828460890732 -0.3405392712782071 -0.13031224996471752
Ni 4.134627126644867 5.770081240685017 12.86949879452442 -0.8919743078021541 -1.316132795863914 0.37531601263776004
Ni 1.3641231226832586 6.741926193349649 7.475955984399758 -1.1491635567977951 0.7475181622368867 -0.8478282094125592
Ni 6.20260401153471 8.253241763424723 2.1955331584414015 0.5114111878328418 -1.0610953031039532 -0.01771181545746627
Ni 8.48936568697297 8.000966191640678 4.440410019718275 -1.0057921596562744 0.9556715888507993 -0.27205356770198313
Ni 8.441884850861078 6.49596841159925 6.18814916770002 0.45368555098659935 0.5601680455215706 0.3051241250037068
Ni 4.273850438003053 6.466225629150103 2.734749579894544 0.333069188153407 2.683380151015456 1.4773656466668879
Ni 8.53220791072536 2.660411178221115 12.776705209717466 -0.8544274598966318 -0.41568953135880027 0.561008539144995
Ni 4.315430959193657 3.1890645516091918 11.978541036462365 -1.2932193816008501 0.303027133265362 -0.25890983123117345
Ni 6.945394285886981 4.546944102056557 5.99284132202553 -0.45000270281837335 0.6070742231548061 -0.6275890552787062
Ni 7.347608363579667 1.8552686765323771 1.4109063114962832 0.3757708407869916 0.27996665190147263 0.006957148044123503
Ni 2.160906844900168 0.5468042635508202 2.450911034171483 -1.0041962759240641 0.20499534060090505 0.33749328536303164
Ni 5.777066990898432 5.495679487946134 11.077087026353224 -0.2647338941121183 -0.5460493467320016 -0.3087822905815843
Ni 1.1343633752922522 3.1862349980698936 9.79138521194223 0.9408540642219925 -0.9183893074605731 -0.9083285807904615
Ni 0.9743219716646074 6.7517786060012375 0.8545780490489271 -0.8558505654964034 0.31455518850961955 0.47509024191462046
Ni 4.300234865103918 4.196450552172351 3.232985716596402 -0.8030719882427911 -1.0250780044690797 1.1917366542733152
Ni 0.3978491434623926 4.510317618865904 6.867831120901224 0.09696787017631688 0.09721392474885193 0.02419356652706801
Ni 6.0364025306936435 5.2834351408246185 2.063784507039322 1.1796948926174329 -0.9779268007045739 -3.2059874646744335
Ni 3.0303590683410846 1.6236627614222878 10.301380230975434 -0.15109293415549463 -0.07988597499336565 0.9431490309037563
Ni 3.3129526105068536 8.710386288678668 8.885708209140995 0.3190530763799731 0.352707788319941 -0.3860218290910384
Ni 6.105323033131169 6.784063348023393 6.8218967981499885 0.8508094035280701 0.5907816566423697 -0.12917119438173882
Ni 6.630219130508047 2.993547040656052 3.9819165859901844 0.05524580784718227 1.4512458096513845 -1.1884191598643081
Ni 1.1699786409885324 6.762178374911248 12.041936951579723 0.3200324095741069 -1.0202805830804365 -0.6547414473237821
Ni 0.39498248102421846 4.416228005765703 11.735994490241149 0.4507382954328173 0.29511404906587235 -0.06125884681048159
Ni 2.4628062917061975 4.402460604282692 7.857013351120742 0.9253125169429678 -0.22879604256492855 0.5945727482536857
Ni 5.152143856601186 0.877243236759941 1.2992289357737823 2.1227205105694478 0.2803165790417237 1.439472214055224
P 6.375485094173466 4.177172479206249 12.788328644567912 -0.18937897421988675 -0.7692257291173075 0.07564828276293423
Ni 4.552900080326161 7.793202744058446 0.5014952257456464 -1.55523690522307 0.2874223368485695 0.2717378362337772
P 8.457322152793509 3.8372642427264334 9.736882444440518 -1.4256003411691383 0.10927934055381826 -0.030161868295360956
Ni 6.189105649568551 3.0086503624986003 10.572345699678396 2.239712389276175 -0.20543654190338165 -0.056193259362116124
P 4.2838512862501466 2.055461908743898 2.816380807919586 -0.8040042702490734 0.08503975128016322 0.5199840171035174
P 2.9496286588362572 1.7333937753987405 8.25270832300338 -0.4965121592338223 0.4642638407230778 -1.6050528003039326
P 8.812565641733848 1.4830385891315312 5.304537116170478 -0.6934095533179413 -0.6195880393511007 -0.5587421117083216
Ni 2.8533032345787745 5.440275901924205 1.4706497832417653 -0.3731377740395187 -0.7675614540410072 -1.5277338147067947
