# total energy = -340862.4106633591 ev
CRYSTAL
PRIMVEC
9.37760038241371 0.00000000000000 0.00000000000000
0.00000000000000 9.37760038241371 0.00000000000000
0.00000000000000 0.00000000000000 13.72506606203876
PRIMCOORD
 96 1
Ni 1.2612403268274157 7.881957291062004 7.130693364469982 -1.7191154211790072 1.113008961254109 0.47985886694785745
Ni 6.754019549801723 8.381755244137738 1.6308668750128257 -0.03621038848228602 1.5628514843455343 -1.400792280986523
Ni 6.5603158419245 2.0069470875941064 6.824349675108539 0.6957158328536147 -1.0409021159855298 0.27507075726175206
Ni 4.418715794347384 8.84096694393633 3.4303467510479027 0.2703036748904119 -0.6463845907186545 -0.4958110194017396
Ni 6.415300633819669 4.625670051180383 0.41035627874423763 -0.5007822473640859 1.356304740097109 -0.08250130112902566
Ni 0.49710470632407106 2.393913756143371 7.898143966612299 0.9545829837723108 -0.05790509984690028 0.21343370117624533
Ni 0.6423309104313819 4.5649594680666565 2.4595869652354394 -2.5978233508895583 1.414160988983945 1.7671595690714277
Ni 5.05562363863501 3.0233476531431327 1.4334318200517362 -0.9038582037239336 -0.6530589174150365 -0.41947805186695497
Ni 5.4758245219749835 3.7798105212362745 7.628954328887646 -0.09698021147149105 -0.1105918887176547 1.030415357521593
Ni 2.8933084724143634 2.619876408399837 6.965868913892271 -0.20348301772143662 0.6495791863965523 0.5974102177024808
Ni 6.351908057074413 5.512941063211334 5.4700150987066865 -0.3565310187207731 0.09830715781303069 0.20456133838727997
Ni 3.776462717996917 9.10033260778549 10.188280511135641 0.6778834326578841 0.4161762411872316 0.32029234810371293
Ni 8.31104813930649 4.110033331518446 6.787085905550458 -0.9559811496714182 -0.4572568132776254 -0.26613334556280616
Ni 4.294715788089613 6.760621380279336 4.74479651866086 2.331386358043404 -1.036545381678731 -0.6562350011501731
Ni 8.988082734465856 8.983234515208858 0.627798443540535 0.3448301853440771 -1.3418194019967409 1.8640492777116415
Ni 2.0304098430699398 9.289525690009684 0.7108717896371635 -0.5472505661289543 1.062682445085415 -0.32659643594486976
Ni 7.05077370529043 6.031794299711086 8.140569933622311 0.21806502930066962 -0.7446081876789434 -0.04727744492972503
Ni 4.210476806299281 2.612843208317153 4.02278882889278 0.5584842300612446 -0.29349014030920423 0.06122259425590746
Ni 5.3690980551202845 5.036877816014631 9.545701094301338 0.5004528890491252 0.6576653058387963 1.355376571855885
Ni 3.775112343581042 0.4025981901730319 7.2786081265289 -0.23384851738717147 -0.771624054146155 1.7415940618974972
Ni 7.160566647381179 1.131745046905041 0.6971495473958418 -0.32869368479353067 1.0797437714430758 -0.9915240797730344
Ni 7.8909691647679505 7.78422394271303 3.438348657221975 1.2407735050963082 0.2957198009706714 1.9694660499862597
Ni 3.2767679185223964 6.872468016794229 6.926135084465151 -0.8794705189081886 0.9745555702394958 0.05691779623296649
Ni 4.496887468866387 6.989509843770199 12.218602204764544 -2.0712233711314196 0.09602170421296366 -0.3327629697668979
P 3.793361153395579 1.0182198199704136 1.249706816451825 0.47359643097791343 1.560219446039326 2.0575579578291854
P 7.558233157656233 5.010939374109694 3.2076024911492724 2.0377308958009293 0.8665237289395336 0.49026926364790396
P 2.089826317368453 3.9847110836451303 1.3171739604449835 2.823679336989556 -0.7500458137547469 -1.4326050546217457
P 8.150597401420196 5.18909502100413 10.309651976082511 0.40925354592546936 0.8943860025674403 -0.5028522425192372
P 2.110297618409118 3.1484448386138024 10.033558549156698 -1.1629109882908746 -0.2270471781946219 0.6371635863410188
P 6.294273326796846 8.339302848438658 4.913271668961491 -0.3311714569100619 -1.063805760056581 -2.0699326773444544
P 1.2345891873140988 0.2377999968756285 9.088079835481444 0.34867706989399305 0.28307562984409956 -1.5744116783793078
P 9.115364900762213 8.015062947026824 11.599711543568732 -1.8899487711862226 -2.010513454845873 2.87053383544925
Ni 0.0760935983345729 0.4755062177501545 12.317134524642913 1.6922473931435693 1.3097562029136087 0.6554641844224195
Ni 2.9670820524816617 4.536807912535701 8.53431473153126 0.057794285300648854 0.3744359240256519 0.32695150529144335
Ni 0.7394284574928818 2.1292122378314824 1.8407778891605853 1.0788333438136646 -0.5076440074809258 -1.9275760946206932
Ni 7.5814427179290895 4.15919071129635 12.13873599790562 0.18294838810319458 0.047220366439544484 0.7776877438417317
Ni 2.505113338250657 7.074311481567145 13.698562863283286 -0.9266021822886688 0.13193975826581147 1.5747268956268814
Ni 2.1155678296710754 5.798066994563336 3.827055808351701 0.21338716420902606 0.27312340372739413 1.162134000915534
Ni 2.7277375648678763 8.175391776111685 5.0815405120596955 -2.2872086350849257 2.463176735215545 -0.06711376292936183
Ni 0.05184312444947905 1.6594788707091945 10.40211792644956 0.8102057710740949 1.152786755372679 -1.842730204518891
Ni 3.809218675182003 4.691275741551658 6.059931788841876 -0.3406084339532457 -0.5931367871381075 -1.6805591581723638
Ni 2.4611886593342693 3.1952390631639256 13.133158282076266 0.8866724359732665 -0.1815283678272164 -0.4616222893351728
Ni 8.267348522792748 6.537312588854069 6.012965016449725 -0.06138457375506847 2.1080765354040274 1.4812500693229589
Ni 5.550198268449337 4.600538082884927 3.2998902671142276 -2.1288988714660175 -3.5733636536398263 1.1789063352778666
Ni 7.763452558468837 9.419986862743416 10.40219951157052 -0.4987096811057734 -2.200559373225797 0.3419333234122563
Ni 7.782957966698147 9.241268559842363 6.161195803632358 1.0235371423445212 0.049203715418160425 0.5523341512994487
Ni 9.376737371034965 7.301240026634966 9.78900480468167 -1.8089168555138717 -1.598383358703557 -3.7206508408959857
Ni 5.056073763440303 3.9919130805297987 12.072910871691766 -0.023069994445586075 -0.10967143378591435 -0.6192993044660883
Ni 3.890306783335293 5.081730877341933 0.2208828062767463 0.032201267322892926 -0.15424356396933436 1.3677574620187412
Ni 5.623446702910463 7.403296448634763 9.921177389435519 0.1269217362259298 0.9279011036057503 -0.31528126804236667
Ni 6.569599666033643 6.348569631435165 11.993552930758817 1.9458514958911133 -2.0578551773546305 -1.2521398379517208
Ni 4.9220866130651215 1.2521346771203676 13.050972994710076 -1.1938292751362858 1.6615592200310934 1.6298953132689094
Ni 5.178235760076466 0.7590904716440326 5.321839639364704 -1.0077166303724967 -0.5774222046163281 0.3974712085785606
Ni 2.1056088183539954 5.481282285239147 12.277414761615958 0.34231513223170723 -1.3813483133292985 -1.9956226537769697
Ni 1.6819944885738929 8.42469527504255 10.757404248546383 0.09472766799188846 0.4697132938734233 2.061095538668799
Ni 2.435700342234623 7.7983841188795004 2.540907637871463 -0.4735324105091974 -0.3875092122698423 -0.42244690468729174
P 5.932644933745464 3.0530746454926097 9.954680741349392 -1.645750792243927 0.7522078544030723 -1.6062529912596208
P 9.03075081496747 2.2598046969667553 5.864240029741281 -1.1936346426269766 -0.7964598822429121 0.8584435230345602
P 3.6434883484336416 5.908544501462134 10.296777468891156 -0.7359877929997841 0.9154546503122815 1.814777942280339
P 8.464943934715722 0.8388328941815019 2.441510703262931 -0.8594776207260294 0.03343462550936177 0.9145318813876959
P 1.6737046900764363 4.527477200426007 6.682776046244169 -0.6461310799469517 -0.42178407429231224 -1.0847461097536737
P 0.6650753417387704 7.326897140536596 5.0764766080001635 0.35427513280706086 0.35689560114904345 -0.6987435639363451
P 3.0818169898305108 8.764661411839265 12.500213411595228 0.19564629528583727 0.9279643527435179 -0.6351311292920222
P 0.677224960441604 7.048307396461435 1.401548917436914 0.8091457052406967 0.36554016419791885 -0.6502867539865381
Ni 5.6870455868581455 0.8773560754343888 9.340977768534566 1.1707112010615837 -1.0286472098775767 -0.5519579989069526
Ni 3.9887153188922047 2.3008973406498496 9.258983784210628 -1.4785542676583503 0.5287784754666959 -0.543988864658547
Ni 5.8063099050602425 1.090849332824262 2.583633859493762 -0.10716949329966705 0.30827269793501744 0.041081343421342155
Ni 0.15582476775190987 5.064551113939965 4.944413741167603 0.4779752767718995 -1.2977406665099716 -0.7081879971786965
Ni 5.736850021043657 8.374440716051746 6.973623251423431 -0.8946577681715882 -1.3277205007015134 1.3975166955590448
Ni 8.116434804218573 6.2408116285683395 1.3915298894791281 -0.687402685002229 -0.48700499107433554 0.5131184003319357
Ni 9.221031698804454 6.182389179881511 13.023055879181879 0.18646977099289178 0.4196325751669483 -0.873836460550863
Ni 7.166840261854933 8.416086638141346 12.74154126163233 0.1991702492786957 1.1331707809139646 0.1746450104438218
Ni 7.783755062707518 3.359197023491451 1.8166080626364394 -0.06481236848969484 -0.90684633981798 0.4781200298798798
Ni 6.894139650649006 2.0735468035770674 11.362720833582618 1.3115055815045475 -1.4378737592198525 1.667650677640812
Ni 2.300606635046432 1.51965885306544 11.484777801097547 0.3650413701846294 -0.8190876469447571 -0.14647883242225096
Ni 1.9561298725966882 3.2234937722960937 4.53480298163213 0.87341094297767 0.44296662190719843 0.9022664337567815
Ni 2.2583886793501082 6.931903246292962 9.078733181451561 0.19707428598161544 -0.06536875521379709 -0.17497514008973092
Ni 7.897364688043137 1.076154633451508 8.35188102346653 1.2149138637207268 -1.1712668164547377 -0.3832926030853334
Ni 5.919169322387042 6.555870859472244 2.5787884535167978 0.20021231738996487 1.5245759858041035 -0.3696279611140473
Ni 2.136470500316812 0.6870489343170967 3.1851487654453017 1.0227007624861548 0.9373486221718954 0.7787673500591555
Ni 9.304801800589274 2.6229616388361072 3.84021820786644 -1.653522979990178 -0.5191198693310092 0.20194061293498125
Ni 0.24070611514979343 3.849683019657711 0.14734647949223725 -1.0849870221198863 0.5209980601903286 -1.024406432323352
Ni 0.3533320302338482 5.479978798823823 8.138278048155366 0.26168070910809127 0.09565017980615785 0.174803390398557
Ni 0.6136879686546493 0.38550657621209916 5.221001367619228 0.7385151874073281 -0.2667745786912309 -0.34238352357579743
Ni 7.008799567196972 1.6873678534370635 4.564298347258884 2.006530044718093 0.8661493763192502 -1.457473021508019
Ni 0.3839911560342835 3.8906537545393713 11.327942128053751 0.9211668702057104 0.09213471045373164 -0.3438547088046852
Ni 7.957990872755871 3.3269005687117668 9.115845033887858 -0.7220210464070468 0.8793105962915565 0.522346860908739
Ni 4.450815319524753 8.422669713418736 0.6534142960016806 -0.17714566537848847 0.18422185549897951 0.0852608661520338
P 7.534864178181502 8.054617664291838 8.260142774868035 0.6216588058372003 2.0514958107955055 0.5057293069567161
P 8.442353296050142 2.1585078605758876 13.011307621763763 0.0029164023158465904 1.9112565315250631 0.4179176493583706
P 4.857896940310494 5.857052099256778 7.504248189341574 2.763027527635454 0.25849768339441936 1.0874012879883337
P 3.827720680199517 6.161533397236327 2.595052963148007 0.18206238595381546 -0.6220976931468318 -0.4697719150255007
P 5.717775982419418 3.5216264350010063 5.539381206722171 -0.6022593182646659 -1.2645104437019319 -2.183147348396937
P 5.9305349737206585 6.878685365667321 0.25115932599268365 0.6409500499666446 -1.0093353969228422 0.3861627255442769
P 5.701843439832111 0.2651788381575001 11.520833735761428 0.6597692395556767 -2.589797138150972 -2.9283294063014793
P 3.0427217749708992 1.1507346871282873 5.4692602018978125 -1.630313374642934 -0.2961334914693223 -2.341614720639632
