# total energy = -340858.73409981496 ev
CRYSTAL
PRIMVEC
9.31101270090208 0.00000000000000 0.00000000000000
0.00000000000000 9.31101270090208 0.00000000000000
0.00000000000000 0.00000000000000 13.62760825935844
PRIMCOORD
 96 1
Ni 5.37728673411445 8.219631643048903 5.387715999421533 -0.8670988847167131 0.6036631405907281 0.07073644728361367
Ni 6.98493549510575 8.677258605443198 10.403193540467761 -1.3945624980267273 2.4709314394602995 1.6655115198106218
Ni 3.912105778197416 7.937582446832336 0.8152769260966796 0.5536389861538015 0.11376771534247504 -0.15771172502359287
Ni 5.247826413759402 1.0255801140785052 11.265780653111912 0.37360751458708563 -0.2727217974136013 1.3832902675470178
Ni 6.733417109479245 7.66513290469273 12.869286013458938 0.3432952367567894 1.7858244924707822 0.030929085478688664
Ni 8.810136067453188 3.2954001641010198 13.015551780606913 -1.7516974688800862 1.4415458087548012 1.7226638006518977
Ni 1.885312470233814 3.228556404044281 8.775716046865119 -0.29879972544757577 -0.21678513414698147 0.15977117865578291
Ni 6.485530018799409 4.663513812789819 12.911109220231868 -0.03551593351842271 2.6286099972531116 -0.36795031630130826
Ni 0.43695465203380357 4.72029236813541 7.283111365290596 -0.7521047531663047 -0.42439528666291426 0.8190760769805314
Ni 2.8914232567905698 6.867076696554672 9.6369949622272 2.072017327787625 2.6846001394654864 1.57069309187714
Ni 4.4050401006885425 3.3642457918847675 12.548928517757565 0.14324926974135976 0.25843751958044525 -0.535637150259742
Ni 4.334406758469512 2.893629966796622 10.055090158070042 -1.8967079442869268 -0.9872164535366158 1.0659881124198802
Ni 7.431929281015188 7.597628062735445 4.7876100587377515 1.15823518008176 1.0042914067410318 -0.09766798156713502
Ni 1.209975409267759 4.034741126255265 3.8467061562079286 -3.6754912136402114 0.9224933023266176 -1.8735155653308637
Ni 5.7928651632288695 1.54616814424041 2.7485932533229054 -1.008157060344025 0.373976210780414 -0.16451743509151667
Ni 0.8478459173632161 1.0086154489686883 2.8936048270623758 -0.34901645551128274 -0.12028340497380575 1.6081561218196045
Ni 7.851567311659728 7.307217577128859 8.847424811049125 0.5658185589391287 -0.34109694355389 -0.29360352595861694
Ni 8.722863945568271 8.019174850980157 2.016027915098634 -0.5326137900523858 1.4984648905393485 -0.10230136657408832
Ni 2.1609370676985833 1.065561602542586 7.737660106891639 1.044900952732278 -0.2704471424468116 -0.27854046097790736
Ni 7.015503549746547 3.0801202398397223 11.265848623504505 -0.7498954042198118 1.3008493873422822 -2.6234649627170623
Ni 8.601234186880268 5.5029295392691555 11.62165128229043 -1.3803247571607904 -2.313058506268494 -1.4091133992577087
Ni 0.058041128665508555 6.614897229027619 3.6773555953131 2.117927717166494 0.28927610222785666 -0.498898914298444
Ni 6.716992483105087 0.8091223467127119 4.757711465908918 1.0676865831682258 0.5955225137614647 0.8001152196073124
Ni 3.5369278331178466 5.12523762076497 0.5778395849518301 0.2339984127014744 0.16311412698608682 -2.3863244048421803
P 0.22037025489551093 2.5322043874509714 11.34223151605576 -0.03351535814862615 -0.9025999058368003 -2.8240092095251494
P 0.9978984733696763 8.47353364792245 4.963924326018767 -0.3446412092617226 -0.700777049426606 -0.9876319438074797
P 5.2106661621385015 2.883099211451285 4.716910608328666 0.7143259917556343 -2.4743507495544934 -0.8656714082415672
P 2.643079926489228 4.787303726420456 7.402557691504256 -0.5860922215865003 -1.4698554543327718 -0.8073001673915258
P 1.0889694884295678 5.795826065262306 9.935916644528014 -1.5211566757099093 -0.5062273296390571 0.89618911721445
P 2.568573202993752 2.5653888366559046 3.070695632801217 0.35011405945083574 -2.019358306831013 -1.1209500704780566
P 2.6763481748083153 5.592445615210859 3.3947738091710233 -0.06303805019809143 1.1405408481257906 -0.10346993296089278
P 4.341334151906232 0.964164674416401 6.8854305647569065 -0.3142834229054717 -1.1978479093773757 -0.8048936148325623
Ni 7.560244346810134 2.7418697710639597 1.438734886591341 0.30388613883154764 -0.6389528170309577 -1.125775259780842
Ni 8.22692216598029 3.117280491460623 6.146133364362274 0.00205431142586743 1.3539141283777456 -1.275625579778487
Ni 1.7090550001301699 5.784252476496388 5.49581033897115 0.6356954864359246 -0.07404417150060796 -0.8012876426488588
Ni 2.121802881388725 6.928240738874314 7.479962933248188 -2.4680885706948654 -1.59331854258614 0.5653295351178522
Ni 6.825279560617258 6.426730973701441 2.916771557720848 1.199127547420748 2.4235997442538713 -0.7783354047280595
Ni 9.127539178830004 2.0679852280765716 8.014205563510831 0.3147691042926385 -0.16986121590193326 -0.5094674338429096
Ni 5.704066035263817 0.5264372083298449 0.5100814834495458 -1.3576969924589457 0.448862161456027 -0.5298614241182295
Ni 5.664270767053411 0.7094097807810196 8.882761035285274 -0.39963504899909885 0.814509026435139 -0.7644920710870641
Ni 4.400459082448131 5.864047855196242 7.676758635129678 -0.42538516138000937 0.8012907279726522 0.4363552872382679
Ni 1.7863364054054074 8.810582996062008 12.008157936502334 1.8475898466040372 1.101360064161271 -0.5328336193726759
Ni 6.274551782398009 2.117305662262467 6.846633437106201 -0.7275990547154566 0.20275616685774112 0.5080193885424735
Ni 2.2074921311174007 2.854430603397977 13.08030987382249 -0.2646320784269313 3.994146026140502 -1.3903330333264121
Ni 8.864419271399528 4.040374288928943 9.504534633585443 0.04963488941830807 0.28880790434218645 0.5189054393273579
Ni 5.336895561092284 5.169530108101633 9.746315562147268 1.661379242809803 0.1707266492260221 1.2008465869943834
Ni 6.5323830346241065 4.460012319573482 4.001447738201932 0.9790696560597655 -0.9400151132604649 -0.0694318695395772
Ni 4.692657282489999 5.823787036351647 2.499875620311676 -2.040152103647912 0.3356811718549574 0.90265904120951
Ni 5.3358527276717025 4.529965957866598 5.909067532623507 0.08072235485173195 -0.23880688983371132 2.256727435776933
Ni 4.440533681039049 8.022508193520943 11.93981510340351 -0.33480108324284924 -0.5237087742532722 -0.1257688535684092
Ni 3.1265356380682836 4.783681742486471 10.03708824614725 -1.3632055809820005 -1.2921816843649554 0.9676832685996947
Ni 4.008260606182642 3.0768055193243025 1.5190153690520187 0.17582797500832945 -1.0456044065572059 -0.020801510126383527
Ni 0.865702577488138 7.983997845060897 9.285279838009448 0.23811037798731893 -0.551550993276521 -0.14805800398391275
Ni 0.8928106598156472 0.924492311573421 9.968622507681003 -0.042883172516771303 0.8120340825320854 0.6279587799132992
Ni 3.3407354848582647 0.6175650205671074 2.2863722372704407 0.9064863853754 1.760978122851064 -1.2412877257285655
Ni 5.564978127793756 7.604369235918489 9.183072851779775 -2.6330482355301235 -1.1319543920083601 -1.171725501258711
P 5.969271609535453 3.181330947712232 8.99784608315786 3.001573193387979 -0.5278562207627426 -1.931378241975603
P 7.676939268775743 5.421253336007182 7.948180241468996 0.4452698161190783 -1.429494276906906 -0.2495962671397314
P 6.786005709117142 6.467410788116805 11.165658402622135 -0.9241979437225503 -0.06222352471659607 -1.8046339118678014
P 8.383756863625603 0.15013169961427208 8.636728698332043 -0.7005803600347676 0.32041164729039656 1.913467423133453
P 5.748852006272719 6.63097734793248 0.7440365058506678 0.0472879864526863 -1.2403433595374251 0.7854648166839892
P 0.981250382691107 4.7063630931604985 13.511514975524069 1.2690468981197047 1.8342553342786605 0.766905565624563
P 2.8732388490191796 1.729204031577834 11.227036598233505 0.06828438619869531 -0.3240824112737644 0.8098432455283537
P 3.994592039562877 5.60783671917712 11.898128768517033 0.31176785557246955 0.16760712976043393 0.041552369520489726
Ni 8.393002699220581 2.700351965507058 3.483012414172513 0.5000044886577969 0.596264791244128 2.1508566066840316
Ni 1.9609458262640254 6.511228413806596 1.4470887271712136 -1.546993434267355 -1.0317340763330167 0.11733460675812696
Ni 1.4670617804791548 3.0325223430003225 5.973103091254822 -0.6675303715583343 -1.4621287751124754 1.531725195254375
Ni 0.8654595600570917 6.699487779259612 12.327956771442683 4.267836872335591 -0.4402024288985 -0.2700005418276963
Ni 8.933339387284747 8.353058454807234 11.17194054287987 0.3668755951798907 -0.08909875184088527 1.254681116316336
Ni 3.2357258838107787 1.0241834621759407 13.399604982976646 1.800337855595609 -2.3784596573821233 0.26886077179629825
Ni 3.291731625103617 0.020973987171445805 10.00712075182456 0.40427151932984573 -0.6057771016099373 -0.9954802362073047
Ni 1.617127371903372 8.789735638663062 1.432016059838737 -0.5589758249856825 -0.31774104243676893 -2.1817836352801905
Ni 0.7344312651660972 1.3687095535005602 13.50782129679242 -0.44889815690028495 -3.224542601968801 -0.817656056704553
Ni 6.346190713986887 6.619087184735313 6.738307253340759 0.78335882608458 -0.3601387906766894 0.439002752163444
Ni 4.036202955246616 2.960287506599685 7.530085045626155 -0.38705438412061083 1.0502241647174042 0.07738146340395706
Ni 7.796744068977729 1.1974241641700456 12.080915120714533 0.2226480206856617 -1.5548298995926384 -1.6070562038872065
Ni 4.263950325491473 6.252698835629216 4.926353458738512 -0.6856625623826706 0.12465402323767565 -0.17839033641886695
Ni 7.157114741653907 9.015648739409217 6.895692231835682 -0.11176611153141397 -0.061365547591674965 0.10887490602654798
Ni 4.062897628610966 0.5570071251731774 4.427895843523377 -0.0073428135183163865 1.7529956188662195 1.5856877655137593
Ni 8.955471664434052 6.802355847389831 6.605928861610618 -0.3524612195267736 -0.29953274695885834 -0.18393440616554776
Ni 1.03044046269943 2.826590675473524 1.482942643712582 -0.4306685212661357 2.5045527270591705 1.2822320293514111
Ni 3.1583886124594387 3.80081124358839 4.660546393047503 4.179290650564067 0.11513297112111784 1.4845009721600886
Ni 8.580675470874517 6.490995583244777 0.18291391307126686 -1.0827555616862061 -1.2987004593200795 2.316033529736418
Ni 2.9267585499254523 8.260739764047718 5.972408489708614 0.6121634647522554 1.721990428733957 -2.028029609352765
Ni 7.970105814136723 0.6076003747929435 0.5201522747683046 0.22091458293432273 -1.5828610946982418 2.235014212469557
Ni 2.9619169338193436 7.828531866280097 3.2061401410081203 0.24815439248688226 -0.4758700575034385 1.5055899316199037
Ni 6.4133696705002405 4.612321865054487 1.6537783111304707 -0.056633175113012135 -0.25650842087853243 -1.0158379739280503
Ni 0.4002450534267974 8.85710081543009 7.094723507862543 1.0766836444605135 1.290277782474023 -1.2025486572871547
P 5.148859659943678 8.486150070108952 3.0640587429602304 -0.15712577061313582 0.10397901138682737 0.032649153493588934
P 0.15189054991023504 8.488626799482832 13.347534075643965 -0.7730422746499203 0.3008622644035593 1.09453224260616
P 8.248384050216364 5.535192198218396 5.002626481340099 -1.3318175535890224 -1.3616896585581066 1.117129925401018
P 9.225928649859334 1.3798269026449739 5.313635720306974 0.14631839558498672 0.35815929835281546 0.3186401572122706
P 6.2869074962293645 2.5962082886391626 13.296348645617512 0.030056195955432106 -1.77904526476542 0.5217305674809789
P 7.841539350999315 0.7100513095549308 2.8648505576923773 0.4013152649149992 -1.1366158020397716 -1.2363517218795288
P 3.6814161279444892 8.22111209406562 7.988204560591422 1.4897285391076152 0.44285349336810187 1.7910808557737152
P 8.877687464473892 4.79194061073697 2.4724975186163376 -1.1910128887334133 -0.7509343870072873 -0.837440695530648
