# total energy = -340874.5779257578 ev
CRYSTAL
PRIMVEC
9.25364400056654 0.00000000000000 0.00000000000000

0.00000000000000 9.25364400056654 0.00000000000000

0.00000000000000 0.00000000000000 13.54364336749888

PRIMCOORD
 96 1
Ni 5.625216190926909 7.303938265947525 6.817585241787417 -0.4850815487993774 0.4044923770914002 0.011502601322960835
Ni 4.49483730158032 2.4823640464846894 12.712117638516505 0.23942524014400055 -0.5947043887355435 -0.4512453169762229
Ni 3.5309129614668078 6.9323674426261475 8.040386751846436 -1.4542167193542501 -0.3036020319322255 -1.56447487888157
Ni 5.66470149010289 0.9030557202588688 9.743432955625895 0.528425205892335 -0.9985069388487707 0.18570229669924793
Ni 2.232765505431556 2.8672971318192184 3.5698337883555293 0.9473790098247039 -0.9997919762087814 -0.48457786969008154
Ni 7.966064258902512 6.656451537885062 11.922970575097722 -0.9638168436657532 -0.31317579166358966 -0.03946077709878365
Ni 8.627903388891843 1.083398138487331 6.319518029620073 0.6499674229739064 -1.1847509669841014 -0.21790716356656667
Ni 2.860273615982666 7.499708359541864 12.312972806644721 -0.6468479035083182 3.4455214624821564 0.5402851905547147
Ni 4.331815854291066 5.2693488015642 6.001107540656832 0.8630242004267072 0.44193818064268403 -0.5601338498495256
Ni 7.05349764328553 3.0576630972863548 13.02994699863319 0.3415620561157666 1.2494664048846158 -1.622920938833605
Ni 1.3128607500802039 7.571007686973533 9.058719742900895 -0.11667743279010229 -0.17554026856458155 0.845130093755106
Ni 4.2410376061269295 5.484190655552655 1.875307414656062 1.3554634751427364 0.01728912609775087 -0.4809922092213523
Ni 1.9277746510745977 3.161674056446894 10.548872910129548 -0.2604314100820225 1.5035775291755653 0.9843237053698531
Ni 9.009977098213863 5.506899098059769 6.984443249901223 0.2982145423680671 0.4109139643470278 1.832682590474902
Ni 4.774251083773601 4.7911945060354295 13.11907717279141 -0.009266770013906621 -0.04426256936280119 0.216860210359291
Ni 7.477471852881475 0.6617697276589303 12.53416821264026 -1.3525229044571738 -0.35176393634943287 -0.2699321504836061
Ni 1.2822219346193011 1.016448023760774 9.740710533545377 -0.6944073984548363 -0.7641616843308389 -1.596939941388811
Ni 7.930826382347055 4.728908227911801 9.308370104360726 -0.6284079516355758 -0.23773705380830024 -0.005393145991113292
Ni 7.687418529165666 7.738896551034891 0.39630303778297704 -1.087813435825088 0.6320625176690275 1.3528052115842832
Ni 8.050836892075973 1.0223055804465946 9.948753735247777 0.32618531654938016 0.13272934404664236 -0.25588081459686257
Ni 8.658893842826776 8.990174299939525 2.749942417933635 -0.4569557370974388 1.1357058886309925 -0.6101934855100781
Ni 4.223150312171652 2.6377142228536514 5.689941729623022 -0.32574720057069706 1.1995463801257211 -0.2833322259395959
Ni 6.210684996543293 1.093392074065034 5.966218526482191 -0.726502222106852 0.4147785895087566 -0.9168998673992403
Ni 7.689139706959604 7.906156167300614 4.565400038945335 -1.2799897702844536 -0.34006618829653046 0.6627501765608715
P 6.296345979545882 5.896514527285333 0.5438653473165732 -0.4629983437470929 1.0982505719980118 0.012681966343042674
P 9.19435595597843 8.903430640582684 8.071943528797439 -0.8353221065257485 1.4843276798070177 0.7131700237743201
P 7.071644039274304 0.7094472779154112 4.041938051402168 0.5594185689500559 -0.08476361480064111 -0.13561746422771484
P 0.2982967682487078 3.275965814150792 0.3906027930460649 -1.0614745408202428 0.7901853620881102 -0.6870764120110618
P 6.476468161045873 2.7941470755768645 10.481858945259024 0.5530255209395186 -0.08755891815759115 -0.14811353981219652
P 0.891920810369378 2.6430073072522124 5.3901393934868205 -0.8095851067709605 -0.3526121432823411 -0.7200634084600438
P 5.813509340126077 1.9289961320896503 0.7611038951148665 -0.2264429689517197 -1.302622677192621 1.9990663893511962
P 1.7655952853942052 6.109320579582034 6.667562388300015 1.4614155510955347 0.04773201596864037 0.5924875835898828
Ni 2.1483074961559114 2.634456940146844 13.104192686331471 0.48532786048222876 -0.7451522331078715 -0.9893003326488381
Ni 4.955021020357332 2.956085846511867 8.565582872285217 -1.0419670669149346 -1.0131234032103646 0.3123514959900814
Ni 5.328738689099105 1.78093782723479 3.3240570022964615 -0.7280803652272493 0.7765076074907014 -0.09688430932357509
Ni 8.287452570522147 5.125769260431199 0.5696182387172655 0.6013000396751903 -0.1461553876445612 -0.545024505011913
Ni 2.1404048841342833 4.693670351356344 0.7947556970795655 -0.211673523952029 0.9015568092842667 -0.09652538332225956
Ni 9.000741961448542 4.652704469131815 11.719571777345738 0.9330283975299867 -1.1738497466905655 -0.41204679239989034
Ni -0.04058925891155452 2.0888713404007384 11.945371796622263 0.9238369608387056 0.6121040722692298 -0.232309969255458
Ni 3.763688377630808 0.3623875069627553 5.615790429094087 1.1307639712446849 -0.07896526295130916 -0.14314154051890188
Ni 2.9951084634851766 4.461783285021473 8.208233049145148 -0.007863719018792908 -0.06888371034559104 -1.4311588090935223
Ni 6.2317370367648435 3.8822090506671234 4.334114459473938 -0.7057423638516813 -0.18594552305830556 0.7121588089009864
Ni 3.702031347302812 1.8252720358947674 10.348426950195014 0.05713428311914676 -0.29716836049173984 -1.1729940835584896
Ni 3.264657861117503 0.6496742895166936 0.8440924257148262 0.42333624927078056 -0.11851628577105393 0.4366486501089706
Ni 8.095800348531585 7.548891477685838 9.77645180833734 1.3526095506337092 0.4828356901879942 -1.126535534985634
Ni 6.209519037392561 -0.07492768126501792 2.1056167346798236 0.2366404783100118 2.732463538805668 -1.652922884512334
Ni 0.7530920900934079 2.6629674174754583 7.658618412778179 0.365354530549674 0.2985253887402665 0.49992889822485514
Ni 0.06379092064671642 5.625530814824725 4.603091981903762 0.24992485412374377 -0.27951490907603477 0.5312912145862204
Ni 2.805242194796925 5.416999946080709 12.025644382692542 -0.648522977217896 -2.968956178683906 -0.6374505214538183
Ni 5.7640948808807675 7.4740757655138665 9.482581983403792 -1.269099091513879 0.15554839882368693 -0.16904257665537983
Ni 6.429561439339043 3.944106675740508 1.828080516864983 -0.7077100291010134 -0.15137215595881026 -0.21702681784414238
Ni 2.28718618610977 6.004254704999404 3.0139211218457973 -0.6151965951516243 -0.05136781294901476 0.7327998821901057
Ni 3.880821004059109 3.1249370895547814 1.4435222041146176 0.1685736074387613 -0.6459223063702554 0.6270712351020233
Ni 8.221890502403603 3.4916775106802698 6.106923885772196 -0.0337855810908773 0.18256683639405977 -1.3228328335919088
Ni 0.17421465513628168 8.758722154875166 11.613565732527281 0.9104461413540965 0.4886808361148616 0.014946594007503292
Ni 4.378010045405782 0.26266838791419644 11.87646176008519 0.7775170225918222 -1.4457796443304907 1.0425291100659917
P 2.9245494275777824 2.4470613944208583 7.516708229032417 0.6448642974193862 -1.0943496942817088 -0.05704275184660499
P 0.3861971331122274 -0.0728076714123774 0.666880515269639 -0.9648517126881705 -0.0878337690855326 -0.5785509189041327
P 0.6929369261952836 7.7230080441951525 4.094622748455959 0.02879455563418912 -0.35694933720511435 -0.1419565190718652
P 3.949668115816619 4.525809248227146 3.828476841106484 0.2526733634031584 -0.7540919587996626 -0.09711390883587791
P 3.2504350102073825 0.9061214525337697 3.3768092509518426 0.18754089256988346 -0.5544046606752323 -0.732046548963849
P 7.2290947928433935 6.473173863762852 8.10222700432669 0.8467210923913097 0.06362914681487106 -1.2103894934878123
P 7.725774883767128 4.996060931734289 3.2028823841456227 0.7328250790010863 -0.15367097929531598 0.33281362049917523
P 2.2589440644587055 0.7585832024747126 11.59325028237238 -0.3888392439351755 -0.3271458806904366 1.5328168856566569
Ni 5.006869187988694 6.913175384859335 11.701125563289635 0.9242930745395179 0.3907714279608819 0.007095216283884555
Ni 1.067879777409731 5.147903977007001 9.19278838867578 -0.44333711787273966 0.30285666912576875 0.7796924329765862
Ni 8.126013496366028 1.5051514735104532 0.9976668277899351 -0.8889131523783271 0.4896336869464342 1.0859627557695943
Ni 0.16201835227386258 7.824242910139664 6.183038809569269 0.9931405323305348 -0.23653917684545714 0.7679859431729354
Ni 0.559617825588725 7.139241909084601 -0.2085900920659588 1.7908548558058384 -0.8272863807054656 1.6752883966917278
Ni 9.154565286548687 6.499158096264881 2.4053376387483536 -0.6888044504457622 0.738728846080031 -0.7969077684136081
Ni 2.7323142260118534 7.5898295989782065 5.112657772171896 -0.13343022676840893 -1.4347059030148324 0.14921551462712365
Ni 1.049511293963675 1.7933932321307053 1.7489313231827908 1.3279794107898548 -1.075534875568051 0.6025776208360332
Ni 6.343215686676499 7.124945029022053 2.580849654780926 1.6010079408105977 -3.6109724651315362 0.2742058381582955
Ni 1.4512304896111239 0.5289558760176888 4.656805684176295 -0.16840314329916806 0.32544998104525236 -0.11367592695961712
Ni 3.391543828378117 8.792377658297486 9.716697327226727 0.16182574719196646 -0.6453769753897466 0.2217512199030052
Ni 8.459857212881577 2.4095471214282584 3.6536551469202974 -0.2553516815662699 -0.3925735141666271 0.4342315560270457
Ni 1.6110594297019452 8.334026161043054 2.2235275925730176 2.0744033115212983 0.4879167042553274 -0.2585275081910902
Ni 4.919181656938402 8.071694605772402 0.18647665887148013 0.23113806043454388 -0.6512568312092912 1.2109993591576693
Ni 5.643205274966775 5.051841898088357 8.187010741873014 -0.20880622970656298 0.7675084893158846 -0.4312272219830831
Ni 4.0459245212603845 5.738166170243061 9.849316852342847 -0.007049450647613666 -0.9749314655216759 1.8264882887387317
Ni 4.211555496172705 7.7714971390351195 2.7484923719104626 -1.5031044461938887 1.4186861305478085 0.8151006372725511
Ni 6.163121266108669 4.915961388807809 11.101521816381636 0.13478776923756786 -1.0554730718211693 -0.38826665926115717
Ni 2.1876539906710906 -0.005853855228199026 7.323345933620781 -0.2748259882407977 0.5818812688289462 0.5352918511051814
Ni 7.030354279507905 5.777466396537973 5.7470959367546195 -0.14982126653192263 -0.5394824921477612 -0.39638234638975606
Ni 2.2761003205337627 4.396045397665915 5.204781500181401 -1.1028312493901586 1.2893249316424504 1.6587816572859564
Ni 7.173924566996852 2.3036854334570336 7.882616747557503 1.8372007900602294 -0.8875898055812131 3.2568618829267972
Ni 0.48292177294509686 4.09203542957862 2.4865726038001883 -0.4891541762068544 0.7486846717411623 -0.08619571926147736
Ni 6.692133589355083 9.149411006810928 7.863886446628958 1.464451252598065 -0.2710531514619267 0.33790131943472773
P 2.9756573036848692 7.131801979265644 0.9676998268873115 -0.08592112544385201 -0.564077407878306 -0.4276749858554505
P 4.4532421715601584 8.846983411856769 7.844965520632912 0.16740761215511812 1.2929956956258184 -0.5653359628757554
P 9.287419854223764 3.099841206881883 9.80569239818177 -1.6361862884839435 -0.36312409855725847 -0.17006793259610065
P 6.725178352269877 8.414653161680578 11.313736560823324 -1.0489995482816836 -0.5622292989259736 -0.44919074844003926
P 6.09011926817117 3.329248296610435 6.613821850459726 -1.6537690345627132 2.101047653581704 -2.1751545599994473
P 3.9389894105789622 3.7618561561082293 11.014341385025473 1.0726927781335653 2.9915003825330095 0.23597970479756133
P 1.043357620668145 6.490487431786818 11.308454580797628 -0.8144020685436297 0.268876198415266 -1.7202904153237146
P 5.442558510956279 7.127341722831892 4.691883472689626 -0.4529522723650006 -0.3718511940176112 -0.5078640939115318
