# total energy = -340860.90291677025 ev
CRYSTAL
PRIMVEC
9.40084115494450 0.00000000000000 0.00000000000000

0.00000000000000 9.40084115494450 0.00000000000000

0.00000000000000 0.00000000000000 13.75908128184804

PRIMCOORD
 96 1
Ni 7.347744364241568 7.995537518905571 8.470351438022474 0.38604754012265124 -0.46604587232416517 -0.32639820389113466
Ni 4.641035409154074 5.541532571923421 13.612602088281587 -0.6699942597177945 -0.4453387216838008 -0.7356854312680169
Ni 4.271629360327784 0.7456972736332487 8.575388915175953 -1.2311136134090412 1.9261743291771602 -0.5876163715405105
Ni 3.6876679163529404 5.0482516406595686 7.838300931770852 0.6694350447802148 -0.058136499131416004 -0.4655349941260176
Ni 6.722240603693029 1.228812135392056 11.985398290872094 -1.3613078497386555 -0.0846556284678671 -0.8413973661855509
Ni 6.591991951027594 3.553339298674384 12.308750559507644 0.40155797705342455 0.8832698380496208 0.37288374904718363
Ni 8.372060004402213 0.5824074849502607 6.073588212157598 -0.68912403856871 0.503373662240346 -0.20817630943204793
Ni 1.3284704513001233 7.704694298684481 10.392109907697252 0.7852722410572088 -0.6402409397147619 -0.3310238755886041
Ni 7.552372471247596 3.9776838625621536 7.8957316097931125 -0.366018389385918 -1.0278403977055655 0.5118966121096926
Ni 3.828210489961619 8.870201170485844 5.48750687852732 1.409252238828418 1.4110628096745954 1.2048012007667572
Ni 6.121658472752289 4.895760598083891 6.139631940744425 -1.1782717870176609 -1.471945246982265 0.24556889114789318
Ni 0.13776180482784625 7.985422213942163 6.952064844865343 -1.8793799945314407 -1.1523021024267766 -1.9277740695641121
Ni 6.474500239658947 7.917068698710811 10.938290311600127 0.8609305511224722 0.06484450727921091 0.1993772230831792
Ni 0.3753972048236687 2.3564524194679515 3.3877472440197063 1.555234848340541 0.9562765694246499 -0.49604884644415864
Ni 7.668689077485736 2.055390485031969 9.822717887172491 1.2606100802062612 0.8910718505925429 1.0925272963609893
Ni 5.689962451168066 7.623358221971283 13.459861923418243 -0.08582728017846508 1.5835722618326533 0.5612769623150333
Ni 2.6840717298534003 7.431336642805339 0.6700881892840926 -0.19740055897278264 -2.100668158755098 -0.834925128197646
Ni 4.521936153966893 1.7105018296485843 1.9144107723147414 0.8725879328557424 -1.8067738410289398 1.0825496163229873
Ni 3.7980713935743666 2.187171474787585 6.247379680370905 0.3161780688250232 -1.4333141648736283 -0.06871633152979133
Ni 8.83693159403092 0.35608975748738075 11.062067425290833 1.395531546808216 -0.41165341361621366 0.6122537104732166
Ni 0.45319668513609035 5.918600306200619 0.283010439463181 0.08505183546502125 -0.8598059505997256 1.298503512817925
Ni -0.029230035058291987 6.662705077361005 3.109277410780806 0.0601491586860706 0.3870081042637077 0.19504825669052214
Ni 2.105449963591582 0.6232795215575151 9.93525347514271 0.25459860545032925 -0.48766345059394073 -0.2175947745324704
Ni 7.017643231820488 6.061728111096414 1.7785404167049599 0.23598356145230326 0.45886812362880325 0.4256468996818282
P 5.603596924496297 1.8888169825722914 0.043203445186180967 -0.4243703469622498 0.6907834285490039 -0.9546585742052526
P 7.920688022512775 4.759307390329378 0.38126144946695256 -0.5167205158608973 -0.5599016792340615 -0.27769276826563144
P 6.013464193176216 9.605403345177505 9.437463900514127 1.6341299201755468 -1.3046556484622498 2.0639628329142647
P 3.7513492135853945 5.042780351171926 3.5190365697887183 0.2711223141369653 -0.31617164106712 0.5166814350928456
P 3.4023993948709763 6.766574970056809 6.466548068219778 0.707917260015813 -0.20949399980220698 -0.5001518128689386
P 1.2456678433840538 8.179314560475875 2.0292307646586667 -0.5579034178571102 0.4015525777367858 0.3470472476000539
P 2.9351493924581225 3.0144642883468467 10.17622993404559 2.1812866410391143 -0.5203298304787103 0.19008525625829198
P 8.6188414826498 7.534698890084765 10.346966128919577 -0.11992525030343862 -0.2870510695520798 -0.7814320413755123
Ni 2.9941678725327234 4.229109356285506 5.609026850283345 -0.229348829744605 1.2022630077259358 0.3454811886645147
Ni 8.111609703276564 5.160826712162172 10.27496508736313 -2.0498850146649596 0.2328894959080118 -0.09308087641708485
Ni 0.05820060690376795 3.7954485589230744 13.033069380522598 0.955485183871606 -0.9916289807820149 0.2610001381012989
Ni 5.975334381901513 5.650930159153133 8.707929492887928 0.12008902957481252 -0.2478366041361474 -1.2491036222285583
Ni 6.019273912941445 7.177899369098558 6.3047003685529495 -0.8943335520629501 1.3645032167475017 2.1592052357590426
Ni 2.0097211992399315 7.499436335328501 4.907368756605094 -0.9205132957821113 -1.1132035937634184 -0.29967415763272903
Ni 5.3786724016761465 3.7190573245990524 1.3079314937870639 1.5697762364898256 1.41122324651186 0.09951737607104796
Ni 6.734649713871186 1.5125859231480145 7.865268184389839 -1.5747729183734684 -0.6871818272406746 -1.663008807993426
Ni 1.7436209926468034 4.4874350673351975 9.166808986435152 0.18343355526972924 2.270474610159696 1.58039797786973
Ni 4.623474638083772 6.200164896311224 1.9292706817530851 -0.8379891118349503 -0.6574740157635968 1.3471503272913508
Ni 1.8581514390865717 2.465426968850681 8.351418577721773 1.809313062511026 -2.7371871695335828 0.5335836101648229
Ni 8.97606404148299 0.6249603919361929 2.23073215193344 1.8403596474041855 -1.8248705506296508 -0.9452884458442623
Ni 0.9839766312405891 7.634046978238378 12.775856729052524 0.9584779479513428 -0.5296243684067589 -2.574315240465289
Ni 2.015239492932794 0.6029125994355617 4.629558862407487 -0.3941493432941792 0.1460376311197743 -1.5005665102633834
Ni 0.8728239069879513 0.31589082109888095 13.415530377306773 0.5679564312177381 1.063442206069575 0.0967128167427173
Ni 6.122965189657413 8.552950987771993 3.8117881607417528 0.917657314390555 1.706100496976578 0.7408926865005693
Ni 2.1962150838719694 1.0377118386484292 1.9913933195404345 0.2527422689678808 -0.9362098805817618 0.7099332620045774
Ni 8.870182368803755 3.144101886344417 5.298979591977452 -1.5656609287698713 -2.0777866261712346 2.8325211036509024
Ni 9.316459094847316 9.303138103087884 8.796744878735778 0.49422747696470365 0.7003137366369424 0.1495484724865102
Ni 0.7108051120141201 5.279371317727754 11.371756511552947 1.7098054566319907 1.8231399410917892 0.3192034859149083
Ni 4.039231168877607 9.17562509516627 0.5395321291165175 1.1640718413681952 1.8131622610537872 -0.2820728996111981
Ni 5.852794418892207 4.158593647614021 3.8916182227196914 -0.6362220483633559 0.37127166736505735 -0.9389231657478667
Ni 6.335847235100124 2.511406482397173 5.64224096177611 -0.22151776373596044 -0.883466013220827 -0.1590111605613068
Ni 1.6510227083628244 2.237024134844229 11.552137969338139 -1.3317841292479258 -0.35954692272896144 1.8879962754455417
P 2.348950548314793 5.153268435962749 13.005798480737887 0.2977327176356421 -0.00924337297513892 0.6129422518998089
P 0.09953234463807682 8.685737867519322 4.772446945856658 0.6126020949515707 -0.40440701646644545 -0.30376606831391556
P 3.229912763394586 6.407472243014808 9.535469548566647 -1.0901909349183287 0.8684116899908657 -1.734207796735755
P 2.514386549008139 0.4030347374090971 7.433921874092455 -0.8546403472383861 1.9723035194350547 -1.1054787143153346
P 5.861640610314668 5.150363576080134 10.657082953449198 -0.39562772761191867 -0.8208323975500057 3.581370840215019
P 7.761447176067463 9.04642933669777 12.766982335106931 0.390885842051559 -1.8457828753022858 1.2597029950109595
P 7.637515888583636 5.9816705487652095 7.252384112858844 0.7314955615563854 1.4222111129819313 -1.1465518302065607
P 4.589274378365486 1.305720415973501 4.088731297395098 0.6995521758805694 -0.5682117417616537 1.1877357606440382
Ni 4.939671926600689 7.6451681731935 8.372194436429144 -2.261594534061247 0.6982573683285458 0.0860566225804518
Ni 4.06247004793852 3.934834829083334 12.081270888091717 -0.22491264835012234 -0.5381527175927442 -1.784539969331404
Ni 7.444761043816254 1.8492864459820242 3.2702310904643452 -1.8651070295521943 -1.5880578084078327 2.1960614853554437
Ni 7.175107319308472 6.4084687321654785 4.620491751220492 1.829949507814455 -1.2811151421381484 -1.884937176904244
Ni 8.922498049213944 2.1686518179307894 7.8078516076291455 0.7913593277915533 0.066964124725375 0.30078256020555943
Ni 2.02391646921646 7.89237268928807 7.948387600649094 1.8669631089243266 -1.6745288928178836 1.5309343239219633
Ni 6.996434934425091 0.43930600240938916 1.0549952849079314 -2.248961161567953 -1.1217021181527327 0.4008264982040387
Ni 3.4217933299448693 8.27711150985722 2.834260506457388 -0.22617043201662337 0.6975032637713406 0.215028556467191
Ni 8.450857854033515 1.7797766273022535 13.66864238191343 -1.0908121134420956 0.4891071250190028 -0.28742927882710495
Ni 8.747877426820551 7.98576064421975 0.6043988724046275 -1.1550444410586043 0.044746450977755196 1.4289612872215713
Ni 7.775830462864874 3.6715736764855116 2.3073424258537885 -0.2891305777889278 1.4538678206552638 -2.2356790997470655
Ni 0.2086704686549729 5.3444815427989045 5.8259935611597005 -0.33448380911274656 1.8903393217564217 0.015099574645599802
Ni 3.2799534402721107 3.0974549130837974 0.4731856934480726 -0.8348269120568849 -0.409930774498152 -0.7511863551170933
Ni 4.224061104644846 1.330820661561138 11.901743026673328 -0.9277982594792988 -0.099797369205312 1.1080467321528273
Ni 3.8411178447151118 6.401436903064522 11.44509247253765 0.7090979105874755 -0.3352980774839258 2.075365675434568
Ni 1.1995097138577249 1.9574901263991409 6.255098710952182 0.911109228859392 -1.0789847817898646 -1.5380184844622546
Ni 6.973290063774619 6.041168471733057 12.712262859641779 0.9053206472020731 -0.9518149341088704 -1.3221388928486777
Ni 4.2079950673005495 8.579837393158 10.538960445646493 -1.162519923500043 0.4007362524830776 0.4935682461141499
Ni 5.395969949197215 2.5501097449755625 10.239576561336877 -1.0578150896907847 0.5601194516718224 -0.8035468709966808
Ni 1.6132219265246641 4.773596668716347 3.696170977077291 -0.929821974777547 0.5743258250791915 1.8426227324067492
Ni 0.021593731878203033 5.783143587596776 8.45979899395052 0.11738422904913977 1.4175144788372105 -0.7014154543415533
Ni 4.644259897632186 6.95953663332716 4.456525101982332 -1.1524411991078023 -2.9443584347398843 -0.48259092116703983
Ni 1.6237414676529658 4.210382880925741 1.6189489188887047 -0.5055626994718647 -0.7696594742206164 -1.8124696058621366
Ni 3.2332594628062705 2.8288164794087733 3.543417651036485 -0.9466840406402084 0.7708936037380336 0.13534338463072176
P 6.197391648203226 9.231870327132874 5.913529492541453 0.9489985477059979 1.3447149783769807 0.7421972642446056
P 4.884949630883224 3.0029482580678746 7.993723156584067 1.0136818468169964 0.49802962431961323 -0.630867726029978
P 9.232500183482825 3.383813932126872 10.911336220158603 -0.7962729630430866 -1.3087192770086622 -0.574776796573681
P 1.1129279678419435 3.957349843383855 7.103428726599837 -0.1214458007130231 0.7991626258860559 -0.40122193387024446
P 0.8715397521013328 2.145563352326581 0.8646423550273069 0.15196299546527378 1.8282692918985544 0.35191331744310356
P 2.797915914896952 8.977436564275422 12.50820162335071 0.21356894120252895 0.03855986255106908 -1.278860798886333
P 8.66852492756765 4.5419317428676065 3.9458432139459267 0.15951072590554466 3.3878140804683587 -1.4837833772677738
P 5.666356939306434 8.001215626896183 1.9096229239710025 0.16794985781183333 0.9540708200225826 -2.0244755734529196
