# total energy = -340894.27309437137 ev
CRYSTAL
PRIMVEC
9.10750289974770 0.00000000000000 0.00000000000000

0.00000000000000 9.10750289974770 0.00000000000000

0.00000000000000 0.00000000000000 13.32975109428671

PRIMCOORD
 96 1
Ni 6.352911235632492 2.0496890362015328 11.544457397372266 -0.45769955724199884 0.3646323076716688 -0.3709258539898644
Ni 4.6187243104353515 0.3555323179352162 6.158664595025025 -0.2362265307010448 -0.5050104265128206 -0.06508284854226211
Ni 3.0573249278158725 1.668949882846108 4.8896461061243635 -0.9232533204210938 0.03671946690822064 -0.46933097083334013
Ni 3.3736193915613697 4.288304109891522 4.963986097495339 -0.011274801582870905 0.9758740319406032 -0.6150934939148568
Ni 5.1193090927587 4.494616370170446 2.8222548167861983 0.9855822603673027 1.11101121409779 -0.27192064166854457
Ni 7.316630748883481 6.365169934362701 2.8716684838223228 0.0031223476790655904 -0.38230349969918676 -0.3648259117397136
Ni 5.090893684112151 4.433905756696765 11.728128405761668 -0.6864184667120888 1.3067850361004267 -0.016494398110597396
Ni 5.771142173605514 7.864920630723052 12.334432169504328 -1.103050050269184 0.7740036101219251 0.638801636165074
Ni 1.8459724142124372 6.465798732483119 0.427013464186272 0.34668806448842227 0.5408762871714944 -0.7027567988607961
Ni 2.6635074004808184 1.490096743422742 0.24982335476895043 1.1612497985383679 0.08078997486487377 -0.24066554030900486
Ni 0.6198320483591947 0.3263873983166851 4.8456577784891195 -0.5130510374291101 -0.10666067198404856 -1.297367856551585
Ni 8.814678342225594 2.2648902191852742 1.2827926760920199 -0.06861065918986248 0.5204519578788714 0.3857444070599357
Ni 6.7083770687974775 0.9221710856081846 4.967864982925649 0.7934180100927949 -0.9601378521522691 -1.1066516515775133
Ni 0.6166936029041946 7.304499555192071 2.386985401337716 0.140894396355938 1.1787579826254604 0.28658081478388064
Ni 7.683444530501544 4.015616369415149 3.8188005022758897 -0.11121563834458265 -0.6581751555956794 -0.47033910038288024
Ni 7.683845260623482 3.7609705919287797 12.674326905181173 0.610635201033187 0.8850202450818241 0.34452936627420666
Ni 7.974529426576002 8.969269094266139 6.906424270311421 0.6282210324357503 -0.21605314107696338 -0.3563772667517282
Ni 6.729397185193706 0.7721623182118956 0.516083019789319 0.20871238444117607 -0.8019131920479995 -1.5060599292777868
Ni 1.9859456243049984 6.551728021130613 9.285997985893829 -0.1553113431122164 -0.49545260762105636 -0.4673705046728596
Ni 8.925480220941587 4.898962170709157 1.3678594842270675 -0.2967937507611405 -0.07483735682586466 -0.1972725180353506
Ni 6.593995941492352 1.9728399278170554 7.070553310004379 -0.8073618738673966 0.6212852245478654 0.3535606232385395
Ni 3.535978843465859 4.456802018663886 0.8343346858803755 0.5290540977255856 0.6171902285428854 -1.2426735503324986
Ni 5.993010048617869 5.625831966888954 4.910239991390894 -0.5452327643679771 0.03451063218235992 -0.931667255516402
Ni 5.543418174311195 2.9109855732861516 9.21949591140786 -0.29915762300762677 0.22215102644458515 0.2122779903052473
P 0.0896934195428831 5.7530273505933405 12.599320244607336 1.1415985999663438 -0.53047437511188 -0.08963739795317466
P 4.046354191268386 6.277346285138773 12.833670862918074 -0.0683913440902048 -0.7477032816644994 -0.6034517959108705
P 2.371812301720681 8.50601596580247 1.4019962261145642 0.444029515954074 -0.9897266215529794 -0.5243988583417614
P 6.595025089305512 7.6390090244802265 5.709838661701419 -0.7023996726316936 0.41396072159315156 0.26311204223797907
P 4.834535696104773 0.9430636969656142 12.605679103042277 -0.6783873688774963 -0.020390390730893916 0.9628171987566452
P 3.948147988885141 6.03857488498283 8.203315360693457 0.2053195567095432 0.9949379905505896 -0.3887754805767756
P 4.842923706157166 0.8696116871148427 3.86729431153211 -0.6076023277441343 1.2934890903224692 -0.4036714238520016
P 0.14183022990763525 5.543554786852765 3.538235682652594 0.902253321130659 0.42995915390393696 1.298239974743893
Ni 1.594231930110122 1.0542116607869179 2.408992771034356 -0.6625529729484009 0.3328596432457622 1.486683067413072
Ni 1.9786596220879349 6.466372505157714 4.916412146019023 -0.8789339296784282 -0.02464556646282207 -0.4009398838534514
Ni 5.991006398008176 5.655249200840348 9.07758735697639 0.0052100834460297365 -0.24723573732735485 1.1083709482614652
Ni 8.414440025436752 2.3272675056661094 10.333982847035989 0.6509315866593886 -0.03884551211228794 -0.6002849681471145
Ni 2.1462103505720815 5.144436692904797 7.014727961017238 1.2233709933491448 0.9933405641564828 0.6353239620291188
Ni 0.6042236101096904 0.04482530713992892 9.356525576604728 -0.573924990096347 -0.13486104567766452 -0.7050142274364052
Ni 1.3910708657900777 1.0252771244824044 11.447390543585716 0.34429359611431676 1.165455094868967 -0.4340718905207298
Ni 4.09961486747512 6.853987823105492 1.6551547483983753 -0.202272028132471 0.19298186107979667 0.5964499106717406
Ni 5.87072360890723 7.874747626213316 7.899903459618005 -0.8349050735929878 -0.13240795615148165 -0.8119047560430728
Ni 5.167169019822035 3.0093921407303657 4.9116662263248845 1.9122062970328422 -1.1041746507919306 0.08279569244099289
Ni 0.9197120598599258 7.468826227695166 7.130163737143283 -0.13209942377212733 -0.15617549088472457 -0.11212760863589076
Ni 5.163617093741217 4.471137228025959 7.033816376075667 0.1812172643447008 0.22025766607661423 0.09336781152988437
Ni 8.185149535665765 7.231630425518664 8.702874638204754 -0.009453946324048234 -0.23009573521295856 1.3542866812258159
Ni 4.568359820109901 0.3168390924112234 10.428823827145226 0.4316825643529469 -0.22384178388344675 -0.5053472410269491
Ni 8.60548811107093 7.249544883469869 5.012439833739366 -0.2268800564891383 0.11779072045893907 -0.5554919802021402
Ni 7.239125900299468 5.84496759106991 6.945200374110632 0.09658837534971107 1.119723140049491 0.9368107473905544
Ni 2.091902311546644 5.213571746441958 2.5235487623926915 0.09834623858108224 -0.016985478814403005 1.3546630907286283
Ni 2.3883697417589578 5.358900168164061 11.4813405816664 -0.3077368800362055 -0.26096799931178283 0.0686574532673979
Ni 1.1011790525786636 3.089447090090351 3.8276648347232247 -0.4808713673727718 0.1700062261202298 -0.9444728919215024
Ni 3.9246324167295685 2.579845880023387 2.544023339372917 -0.18721693357156144 -0.9980922199088552 0.42077028831581725
Ni 1.285269006095544 3.372872576334121 8.410753308314918 -1.0991244899625328 -0.5603786188704801 -0.09015650368143827
Ni 3.5433377057050928 2.92111311636787 7.20362394374655 -0.5213135345482184 -1.408108869252594 -0.20630043256557373
Ni 4.1746242602997885 6.912303163350313 6.040950121705593 -0.06765086637975447 0.16662676812503563 0.42166837465005447
Ni 0.7762588729584395 7.570047013495722 11.412893144588475 -0.3427918147578097 -0.1467210303400441 0.134942035427245
P 0.2743562349840804 5.374993125561001 8.179481936691166 -0.3356780865311638 1.5017471608350461 0.08554420172040751
P 8.66962314558663 1.575880312025893 8.074469697486906 0.2316409682128914 0.6297261562263671 0.3408786568954968
P 1.7196422432713274 3.2207772800529204 10.605896449776798 0.427252039385419 0.14470245724811853 0.32540370118834927
P 3.904149642996849 6.126799264328698 3.9019647530820065 0.4886168156461456 0.2902418085752356 -0.8732993571004701
P 6.857658146722337 4.185926671239009 10.648205353901009 0.31655962053415804 -0.3949661827685198 -1.5500689878688851
P 6.274104014152179 7.71946470396215 10.07789170885981 0.6456232870725978 -0.060187468123173764 0.5365663469422307
P 2.2948903333140334 8.530852125859884 5.809172372927755 1.716044238452851 -1.0172052865892223 -0.10405280204755628
P 6.948095649241638 3.835743189681394 1.5557955361642806 -0.2432780382311875 0.6175383559109235 0.0798072992366303
Ni 5.338727049525566 3.0667056556703414 0.3107707633146866 0.03183668489462259 -1.200529569974597 0.44632293997394107
Ni 1.6603250777216592 1.0427270997922715 6.947665775110832 -0.7592693892355439 1.4774543497259522 1.366286791010486
Ni 6.854625348299485 0.5991334268107944 9.149061217225228 0.22204098322928212 0.31060006051661343 0.28558682630172755
Ni 2.6927515918795573 1.6524015503106027 9.26155071620475 0.5825011618011322 -0.665220492478235 0.16257188132937161
Ni 6.414386879338965 1.875198390605633 2.516963127138743 0.013150935559661223 1.1632807129254676 0.9736166033649941
Ni 4.199651677915401 6.822475863516692 10.644445776757005 0.32044584296244166 -0.2940825224775645 -1.0298324884349295
Ni 8.108191137248031 7.4070773589055525 0.40653342270438364 0.3110119512430515 0.3453562330508762 0.13759284278653078
Ni 7.865612800933674 3.7807885179591927 8.330321308340201 -0.4714945541435621 -0.3099025202289566 -0.21002004750900605
Ni 3.16124153443674 8.37770035925721 12.234485523341483 -0.03640553521222763 0.1992566383449149 2.2223942097127014
Ni 8.973968565696145 4.780346054615363 10.402230829803223 1.0191847789130963 0.35083345411536354 0.2585161953371806
Ni 8.702464800580044 2.3282420084626416 5.818129601903356 0.5373747017761391 0.7043827644999934 0.16258036596980385
Ni 3.733028773426341 2.510109731303318 11.421756566285532 -0.4079865062875877 0.17777430010142287 0.11574309390129099
Ni 1.4007066037221438 3.645059404158071 12.893961620513998 -0.8839709778817034 -0.3149755638764898 0.0185394535650842
Ni 3.329921593264532 8.509148946755808 8.184053903082374 -0.20457110857929284 -0.7813322825728545 -0.43836434724849666
Ni 5.561460137301198 7.920102990014537 3.6362360554732067 -0.045235989019664025 -0.3768478759012542 0.9696221374936204
Ni 3.0842922435217783 8.340204770347647 3.6644547420598936 -0.1594788442263447 0.3564783111059667 0.005027792231894567
Ni 3.3999309670677405 4.288513582455263 9.317282257913346 0.3131968747095122 -0.3375449645365735 0.6834758391439971
Ni 7.466330771935822 6.446527256618986 11.572769891237499 -0.34628851505715846 -0.8652158087613874 -1.2237450888591117
Ni 0.6145852160126319 0.09059870531835323 0.15186943021247162 -0.3173422643364535 -0.7529457610103614 0.7316459710913206
Ni 4.507029896447768 0.3101560068776219 1.628335884987642 -0.1617020771299086 -0.522598571908229 -0.17553898301300092
Ni 6.182081806150667 5.926725643448134 0.4387940190209865 -0.6493123058884107 -1.6841358197800285 0.1545999188674886
Ni 7.604318546424234 9.128905402842001 11.421583523732878 1.2642080819701647 -0.7658966647440746 0.2654201215458654
Ni 0.03586625666377222 5.036367065020203 5.880499602381975 0.3063266299522402 -1.3436191742096408 -0.8615769264572194
Ni 7.849128220917567 8.974059640723858 2.5498348368913026 0.8333143320671003 -0.4423374729636318 0.4491213286546846
P 8.405496457715307 1.7245511872650738 3.586596522368353 0.24033283955993448 -0.28131802372304454 0.053251403124972806
P 2.067239194041884 3.135594806632677 1.6999427147769421 -1.5232410690427638 -0.2259485458138044 -0.49565803876364317
P 4.810500996291234 1.0297398008403558 8.219298117306863 0.1959504567898174 0.9071438164537409 0.20522108345846593
P 8.61330234844873 1.7433217504767837 12.45010747295326 -0.3883854442272085 -0.6528120915115532 0.48685483864971635
P 6.227027332327178 7.7865505693757635 1.5433583303797531 0.24380639993083172 0.841135884994048 -0.6307401993131783
P 1.710124902875288 3.361843390478041 5.859918467619324 -0.32841472010053113 -1.3546499781025056 1.3376020214812834
P 7.074416712679977 3.930042273375738 5.99341624324147 -0.6683883486832554 -0.6600502611312052 -0.10191647243084384
P 2.504107886977012 8.440168720765758 10.244979776203172 -0.5754347418726541 0.5775978109622439 -0.5365095255623664
