# total energy = -381170.77213317424 ev
CRYSTAL
PRIMVEC
9.17457073169012 0.00000000000000 0.00000000000000
0.00000000000000 9.17457073169012 0.00000000000000
0.00000000000000 0.00000000000000 13.42791164564639
PRIMCOORD
 96 1
Ni 8.490422954309404 4.4425748418533875 10.645003906658038 -1.7123909579709797 1.647122475780473 -0.7326129629902802
Ni 5.849531955557464 4.270129611150687 9.500260610579973 0.6943642039217268 1.6015730692854482 0.6311289501111647
Ni 2.8874392369235538 0.5710436289315517 0.9383695855040287 -0.4878382856089082 0.690187703946534 0.4916957116817854
Ni 3.2758905599684733 3.9837912598934375 -0.17311772673432937 1.196438944844991 -0.6931339310590514 0.5363740284257665
Ni 7.431677496600766 1.2577877688437242 5.899149868766996 0.48889552322882895 1.0345363216685022 -0.5055763263186196
Ni 1.8141520846701302 2.2942023214911593 12.269902029663008 1.7206879078724493 0.5110234654761199 3.127278283597988
Ni 2.4544820714579703 1.0649841657783254 5.066122703933769 0.35594275031747086 0.39628670135215627 -0.18878633494121033
Ni 0.7095245989372206 4.860320569113763 8.557701916098564 -0.16076722402046503 0.04117518868672909 -0.5426701458471235
Ni 2.7509032759043164 7.750814938077325 2.4396504604793585 -1.4791641333282073 0.17599329694160012 -1.0059019457612612
Ni 7.013307898533421 8.566929699299285 4.843609088600624 0.3859197562955354 -1.7446870990005243 0.12020061545201235
Ni 7.000536896131943 2.9118802932436214 0.8716686216683844 0.08863723882343444 0.17598635496306464 -1.5631659302621594
Ni 5.316030669892323 4.663067299263368 1.065274999669221 -0.15113432891639134 0.7606642127005415 -0.6468180787116474
Ni 7.827762062460361 7.299471932947546 10.360748182947582 0.01920871171796692 0.12363740904770319 -0.6314868476712158
Ni 7.963866818657134 1.5424838719473357 7.991997887309008 0.046973797646377165 0.017570404783595547 0.6567520499959076
Ni 5.525302627347558 8.202699242877856 11.845391891432367 -1.5743813393620048 -0.3980790173658886 0.22304217080028685
Ni 4.743876917907194 1.7805364576593463 12.433709402060398 1.416991773564521 2.020315014317327 2.1120758863714078
Ni 3.1449786107826454 5.414941716508933 7.569112565547693 -0.16443978777604581 -0.7855190669606923 0.036036581908583096
Ni 3.1083353754439256 8.211892162709953 6.584497639020041 0.025532597053465705 0.5411699071525132 -0.6859674952175993
Ni 0.061348519294680444 6.635939456882886 3.0048306212824736 1.2054894850830333 0.3215429326813623 -0.5886036751544445
Ni 1.1636108007035235 7.983353606804215 12.530900216672501 -0.4411210840580274 0.013362280239518923 0.4606606967528519
Ni 8.616454031887772 2.0294609096398557 2.386287487513877 0.6176239736461944 -0.43857800592119944 -1.4201663146377608
Ni 1.1802259482244104 7.167147099875349 7.587334180396525 -1.0947674985454179 -0.5385658938707628 0.10405074516502726
Ni 8.806780500866676 6.072061167660784 12.219305189760778 -0.5693029179433033 1.2703267932733928 0.8008150738878144
Ni 1.3289365645502278 3.5105393799542286 10.433111691813535 2.430823258585504 0.8739765856731528 -0.13261210174248775
P 6.747887568451004 1.439939695337202 11.956427133216758 1.4558881935194024 -0.029415734157955793 -0.1255521095719128
Ni 5.447447220466141 6.83778001207864 9.585259338201181 0.07224568483928848 0.06442258925044389 0.390879671403972
P 3.0579119349277497 7.855249076249747 4.438649960511898 -0.984625552880988 0.7785053546470205 1.1979445828562403
Ni 2.124692953409489 5.800677366629402 3.918841721602651 -0.1486591279030214 0.8883901899953216 -1.6067265884619297
P 8.86409404397158 7.508615446413112 1.060262931700883 -0.1572864645607162 1.673705368475324 -1.0694339048766355
P 5.946497993187643 0.38783112206622744 7.752792975518243 0.5210674799756833 0.7309751702765411 0.6219807079529933
P 0.21096466574767148 0.733550047204999 4.781625689014146 -0.8169150647734705 0.7617872705613913 -0.6807080465908728
Ni 8.758292894766242 8.857974605320873 3.0211998903088495 0.24067093962564357 0.6749282066843022 -0.2490331955474098
Ni 3.4042886767850455 0.26938007479252996 12.236506592348801 -2.707160284154189 -3.4181731523761907 -1.4637364859192277
Ni 3.6817919164671356 3.4727034504257155 8.645386040560945 -1.0308573301550181 -0.8237698829117749 0.5568268969634796
Ni 3.240449193390237 6.986710818101035 11.148389664030905 0.9045701421892938 2.348413231618704 -0.029735836501535884
Ni 8.006427652091366 8.17277179328474 7.301803191360058 -0.6435761747355819 0.4985379314145995 -0.7630095730042666
Ni 6.536432063171379 5.90161599336866 11.695066550664983 -0.2037506695605265 0.2896201158308367 -1.0705965577261694
Ni 8.733943584153081 2.7214070311336647 12.254768575308672 -1.4365470699886291 -0.8893019031763136 0.4252296096387515
Ni 6.683858239600496 0.6107062154845866 1.068426464701482 -0.2014371909360015 0.5190851594383319 -1.0652622899974493
Ni 8.450733761501366 5.357343761712617 4.57940163676352 0.4958393015365138 -1.0918462111335647 0.1901986419077047
Ni 0.8974987079910266 5.71624379256274 0.833496902852591 0.12423339076048927 0.3553313419857171 -0.2474095439010578
Ni 4.856540645989188 6.921910825312507 1.9171696691279052 -0.9741375088654707 -0.8343386595665565 -0.8975237768654737
Ni 9.070145727114372 0.5709298642549869 0.4249486827096576 0.8808002934632057 -0.20989740588821268 0.4023462772826748
Ni 3.4921260165779615 1.3294044676554542 7.601984134875459 -0.1519532252732609 -0.80086649595104 0.2897119042136946
Ni 3.8559527918889995 3.469510699825346 11.1111675132816 -1.170397526475907 2.47236791479651 -0.2714138772354551
Ni 1.874401490396063 5.364215515159963 12.090988726623355 -0.04960583595258554 -0.43968229472897175 -0.3312118232296941
Ni 2.522740877396898 3.330589350426523 3.68486081036318 0.8146470946749003 -0.5325988776540505 0.05630021725362562
Ni 4.518439366894918 2.402865936752001 1.6522906387162404 -0.10951125405896622 1.3847154300293183 -0.9476155513155421
Ni 0.9993125887741795 6.79843945295685 10.387939775560726 -0.19476594956341295 0.5699711476549216 -1.4120375148830393
Ni 8.05695201288514 3.5265306566681467 6.491455565274282 0.4794549466412194 1.1223590350104413 1.6554268818811104
Ni 6.803558863402269 7.135632449552738 0.24957768141368833 -1.257452508413886 -0.5406425738941334 1.5418314304504415
Ni 0.5165420917433527 0.8203552477952093 11.264030540302034 0.3757628703671915 -2.7587414986655907 0.743131603133417
Ni 6.886662124718775 1.4221960756213567 3.611611037968503 -1.7504615395904561 0.08845854715372507 -0.15030514814687662
Ni 3.19448459422975 7.296205785781652 0.07380758629267291 0.445047158585311 -0.8950861139582584 0.4962712468676098
Ni 2.8753655018945716 5.083592921443031 1.7999305826424512 0.334638589523056 0.05937191420041388 0.32338641364800436
Ni 8.79785364358461 2.294037179218727 9.952620158142283 -3.261903559115763 -0.13842639443141966 -0.8271344285086336
P 4.796061875995988 8.775394294533736 0.6906011294305496 0.15888491939608768 -0.2113451940783328 -0.1653263041460572
Ni 6.736896432763526 6.247616577827636 5.74695842032112 -0.04851980197725837 -0.7656647512389265 1.1185687147300736
P 8.951252465533384 5.768979224892977 6.690899722605621 -0.8669515605055714 0.11330208855996617 0.2620254940420197
Ni 6.08906164715068 3.818144386072558 5.243223111804938 0.7702197175994606 -0.4576787313063924 -0.36849873260561056
P 1.8310424693117386 3.043581255508851 1.2643907073698328 0.7967069652567117 -1.133615324650551 0.2548068648063934
P 1.9049803345082195 2.5838802164798302 6.665051287141597 0.610555239724871 0.7102808751519831 -0.41980741018191575
P 4.545761238411871 5.7881724267779555 12.29624772685847 -0.6753717219796239 -1.1774680601694432 1.102433756841424
Ni 6.638251448696947 8.084273884402092 2.5337934827080035 0.749629809263251 -0.09735096454734846 0.9053340169385118
Ni 5.321232651473959 2.129821538425599 10.152951496459414 0.8636458931711061 -1.1707626231248096 -0.5700194843943538
Ni 5.6195896903360465 2.567788019488314 7.805188031275855 1.2384705679947445 -1.1243914920594378 -1.0439941246472924
Ni 0.48425402511151555 4.0533987277239 2.6234106892149187 0.2747874216933784 1.836398091653276 -0.901015592068816
Ni 6.108612657292596 3.721242570437215 11.976837800632394 0.527679328865246 -0.9087021620797963 0.26793825998202886
Ni 6.980389538895131 0.44768785616659745 9.939595020132673 0.02855390037829276 -0.7683626097860637 0.20959890081118743
Ni 0.837146547073358 0.1686350314948455 6.722777685927583 0.10625778011867507 2.159204464428094 1.9141608496560518
Ni 7.636875944669322 5.54659680592071 1.6521034774741497 0.6575349509085192 0.2602851143121453 -0.8567249976815567
Ni 3.6936638109409223 6.050381657118621 5.600097397446551 0.3497754451644944 -0.4741533319226479 -0.30367042327631566
Ni 0.07304609692534347 8.95555533918733 9.211212091140686 0.4657165140092044 -0.8401354687539918 -0.5478851143891595
Ni 2.8533098339540897 5.298892571842066 9.802590238551142 -0.24544470686520312 -1.4863110287856338 0.5134156198573803
Ni 8.874571403700378 3.038094862235803 4.457100022170929 0.2734784730739677 -1.9126384994742545 0.8251762763409981
Ni 5.079170778370106 7.285489887214895 4.374867427612972 0.8806665960988188 2.105032092150749 -0.18657415778123998
Ni 3.9423955969369264 3.5897801470099435 6.014106322064599 -1.654614156171828 -1.0239732014406753 -0.19860794901732245
Ni 7.508358558433771 6.218230427905273 8.379137246745156 -0.41856968112007265 -1.7592601117186928 -0.45103911450268774
Ni 3.1617405514345838 7.280012668512537 8.690262535637514 1.1001174500034214 1.9551907710141683 1.3788453444017865
Ni 4.397408430342992 9.102412692233623 10.032436170780306 1.114135104438752 -0.8369362450904038 -1.6319694221891183
Ni 7.058749547164537 3.8200893950589903 2.937382847392605 -1.1699707233511336 -0.17547830497839456 1.9053085414717443
Ni 4.520164186184773 0.5737409527146222 2.9509584596436578 -0.14025290611719715 -2.0589376117855314 1.0995772612292354
Ni 1.551493300365619 1.0102211533254408 2.71842713057332 0.31456804402542604 0.7231279063179804 0.5309428301078664
Ni 5.5232016506593835 7.679656967800131 7.030586367515246 -1.1095827091813792 -0.26044709381130626 0.40588771477703
Ni 4.967497903922709 0.7469605171836186 5.681994202717228 0.3046736677298495 0.06404078043099293 -0.5908433631182406
Ni 7.626114173249112 8.518909996304078 12.304922283446542 3.01104153788973 2.6074431333675094 -1.2238111662103568
Ni 2.8175565319723694 1.5461995730770757 10.333100614171109 0.29184437717566514 2.5740984964687925 -0.6324057599410593
Ni 4.571193148366536 5.077124849106075 3.4573782475439434 0.2639625631637325 -1.6770642576452277 0.487755753197431
P 4.758950737552041 2.5768891936135043 3.8199187480441426 0.08069792937169974 0.5860284582281005 1.153969977047503
Ni 1.5265935155110153 4.810511824833865 5.739035261072618 -0.5353160194748974 -1.985739847445619 1.9054995744366283
P 5.379417778794481 4.683177958217417 7.44236587145545 -0.06885388554892012 1.3505053598065127 -1.2234548113122028
Ni 1.2124378659195145 1.7791419229143577 8.523903715131034 0.8897762717095709 0.48517950782982244 -0.7584492073270938
P 2.223659047450244 8.9050860258177 9.828707488936402 -1.7073719074898337 -2.599708740837729 -0.43624627246422937
P 6.559038205353303 6.04997797600823 3.437974947990148 0.3117190046124051 -0.6990909199734346 0.9586545827385232
P 8.460211093024876 4.369948940265678 13.44617373791972 -0.39229146414983407 0.12458434634200478 0.284636032352684
Ni 0.8860479263119437 7.7786322364115765 5.164482358851868 -0.15407335694005725 -1.545529962347951 -1.3129554265771968
