# total energy = -340862.54897079594 ev
CRYSTAL
PRIMVEC
9.35680519217863 0.00000000000000 0.00000000000000
0.00000000000000 9.35680519217863 0.00000000000000
0.00000000000000 0.00000000000000 13.69463019912029
PRIMCOORD
 96 1
Ni 8.746189293808019 7.582932578434668 4.7774676900362785 -0.23298874049003745 1.7847698259540232 1.3436479705650473
Ni 7.876539763580502 3.212219238411682 12.685171228461318 -1.193263889551119 -1.4077913380121754 -1.4366411723643324
Ni 4.809781416219431 3.9279773962534135 0.6748408494302868 0.14779703701304223 2.059421750510802 -0.636174225844556
Ni 7.265100625057133 6.480626091049461 13.449605357448261 -0.2953300217314204 -0.36497709260559724 -0.046155672620455994
Ni 1.5150351574123813 5.967620541478391 6.297064289902485 -1.5055130556353813 1.1629487835073455 -2.454785425828056
Ni 2.227134804486019 7.93232503519016 2.149331099271556 1.2468749900083558 -0.7057277085636621 -1.5233683386492474
Ni 3.5991418401564963 4.111408202129921 6.039893439237559 0.28352197335289886 -0.7914472595196693 -0.7298690816965558
Ni 4.683754609223375 1.866036984633633 5.707113989819026 1.1444157577001643 1.8277057060856008 2.0977550988733618
Ni 0.14622253498033724 6.787725789053586 0.9105659029584576 0.5344914666910731 1.2672257857505662 -1.245845520302577
Ni 0.11753644210866838 3.9646092879595205 2.9734055035419567 -0.36917853228145453 1.7764276246369146 0.6882856018278146
Ni 3.1586141023748264 5.847928291490007 1.7598419259060563 1.2453408127520165 -0.6910814194053969 -1.5289273207942635
Ni 6.575157892302795 5.479373098025931 10.8761929766024 0.09349842357047768 0.8507299564403865 0.21205507566116386
Ni 8.218250283403501 6.426927386962272 2.7187815752071454 -1.0602980040136385 0.008461500503791878 0.07422080628778831
Ni 2.9934758503387893 2.9328437537217837 4.100856533093656 -0.647545186685659 -0.1676346405642597 -0.6386712812347968
Ni 7.36806290764564 8.631381296047115 6.694647099621953 0.47353858115678443 -1.0403115335893824 0.4948895360287348
Ni 8.206750770017342 2.56201485663457 4.759226598623494 1.4814848110415841 1.1221952557390675 -0.16522371712992193
Ni 3.8935630673402435 3.061387541271848 8.269844642038658 0.26442459040181554 -0.09575508081513831 0.32321852061157236
Ni 5.415793607823377 0.10849589708531186 2.579260383991793 -2.311424827319813 1.7506834257932755 -0.43932002629354666
Ni 8.483132077096524 8.721318906029005 9.056382351556213 -0.29716733205047535 0.7853797131693506 0.642880434220138
Ni 4.589045028674406 0.4048043918443137 10.704804378803992 -1.2357750234404525 1.5232775787076538 -0.2115285137337325
Ni 1.165726911902191 8.784346344734583 7.03086423920979 -0.9171721472240204 0.3626582146644335 0.2775549571361865
Ni 6.497870682726181 6.732202507984866 5.103193979820568 -0.3469300052958993 -1.1336155817608669 1.3628296856998205
Ni 1.8015498843428306 1.4310952594569564 9.53654270841823 0.6293299492292129 0.17381274435051355 0.6208018571535437
Ni 2.4482641778424514 2.549766798845734 13.68346840677477 0.5278343663858716 -0.39689013926411 -0.3078096422556699
P 2.671573686771686 2.296730720325106 11.444616075345312 0.9950611463920155 0.40745968724984016 -0.5134266756009739
P 3.657911932571837 0.7500545910114802 4.386047272111867 -1.3223551226245418 -1.2771314749000522 -2.0249108612181255
P 1.3738690398721412 5.275422818710983 9.76416196174589 1.0345674320167537 -0.3241425750877385 1.088743403838525
P 6.692903926844214 8.079479507951833 3.5162199625887145 3.6787341460575416 -0.18133733486233286 -1.3482075649112715
P 6.0522154157861605 4.397352163953328 9.028923871504938 -0.5585114837547542 0.21652802383085287 -0.6846508332887047
P 7.907333008945712 1.9426598610528698 9.274838485714577 0.25532777030687 0.3470109950454798 -1.7333040539745632
P 1.9618132409564206 6.438651463669233 13.317465749723828 -0.6525583236295343 0.46585123981485577 0.7225625207328137
P 3.6364848490451482 6.211795725632306 5.729600263675506 0.67861491150727 0.7188735019170006 -0.5196623720980406
Ni 6.833910978698885 8.522954639319051 1.1995293057661711 1.4929092508284418 -1.0512906583087056 0.11886081359466627
Ni 5.9320178983259675 1.2293812565450126 8.455667047281725 0.18829088336203056 -0.3178554565274461 0.7268264382154902
Ni 1.2939151408609824 9.316552058234372 0.32005138753147877 0.7436692208044418 -0.8355545342515288 -0.593423722250907
Ni 4.596362050210593 7.748211182546208 0.7727738493132935 1.293480862792353 1.0677135797514192 3.701422588793993
Ni 7.092561140239606 1.6734645802394077 6.549552995328654 -1.6517833715912522 -0.48400682767796005 -0.5199328521506078
Ni 7.959366201736942 6.094087118311021 8.69444709765333 -2.7864173673143044 0.3491918047468825 0.811973661607795
Ni 2.7801968364054535 8.998420687095766 11.965491633630052 1.255758922761547 1.983952930748525 1.1932062968403063
Ni 8.79313238466103 4.364762412021688 10.008816214317518 -0.7382526777745608 -1.4277101884232897 0.7317143624354109
Ni 2.1027454383708237 1.5750216344820758 5.9508784102319705 -0.3524974720813478 -0.2651501557139304 0.6182202124692966
Ni 6.0622271971719925 8.378279719891253 9.775418198201177 2.047030318824984 -0.17221248974292921 -1.190292722737937
Ni 2.5669646064972853 0.7538338045645063 2.3096814741719576 0.0703006452977757 1.3460303547542947 1.2951600502669889
Ni 5.2599934472107615 6.418655971312669 7.730892672109724 0.21948170714253815 -0.10542757090789585 -0.020782226852673884
Ni 4.6604935919101225 4.8691877713770495 3.547374380628218 -0.15645496979835635 -0.37371138715480157 0.40038941066662015
Ni 0.3164022335684183 6.026484201944067 11.875339752812893 -1.4542719980722179 -0.7050453377846567 0.4418823877040841
Ni 2.253090581648916 5.412846214237828 3.8026701275644332 -0.5984306885471953 -0.08845314783708637 1.1253109185499135
Ni 4.788475971158178 3.244518929387284 11.091404170775151 -1.7446655017339694 -1.0365685216071827 -1.7465362363941213
Ni 0.6533520109903772 2.2744521675403697 1.7291525410767175 -0.750015988958076 -1.691502544557745 -2.032812889674022
Ni 2.9643481162695395 5.302099069861459 7.823509135372703 -0.08893291568698233 0.016670775787461612 1.4515643693330678
Ni 6.981486507687065 4.869702395653891 6.802697612787671 0.07091385340174237 0.8295900891379776 3.522516231970656
Ni 0.5289205392525311 8.524601437004945 11.730546001961168 -1.658415017975157 -0.2648179691854923 1.651419303383614
Ni 1.209694538754553 4.7377340174615705 0.7697656364950269 -0.36444230314804976 -1.4357731679370822 -0.7987173108185213
Ni 3.889951340597317 5.211890112533596 9.893836051343998 0.7228016333268132 0.30483539011869437 0.35766024722920986
Ni 5.564913009642082 9.099913951294015 4.957346652722074 -0.19746997875813735 0.6678648720796174 1.803493113395139
Ni 8.136939647662485 4.260480819923459 0.8331579905969111 0.26771791644110665 1.992179946644008 1.6105140805288198
P 1.2149249927682728 8.785347522873167 9.842919125393264 0.7475922100079319 -0.7573035237584248 -2.330783948572715
P 5.844251067111847 5.8479657187101415 1.6669513082555962 -0.7929744947974731 -0.2315574073601496 0.16745774866676322
P 7.929648988950582 7.497542375699053 11.518977411987956 -0.8386046339317621 0.039465405084473965 -0.06635194506267282
P 9.00065696349877 0.487061000574214 5.675725651653686 0.29492764408667915 -0.1187998784497438 1.1305652249703175
P 1.735827685787608 2.701833594249988 7.793079869723295 1.6609493543612361 0.42643031481507204 0.2800746382342467
P 3.540792803967662 0.2843158777475797 0.4250497108952727 0.9499177170861577 0.3046620977656237 -0.5689337075293427
P 8.565696524712026 6.529225336393401 6.750603600763724 0.32941025124458106 0.36844371099795903 -0.6829083966763012
P 5.257017983210112 8.664897371677071 7.296937154183577 1.3799318925977462 0.041517145407180114 0.8970699771575067
Ni 8.016536280491556 9.174375405750515 13.040218002498547 0.47483467426038867 0.6260672193175411 0.3461684445395264
Ni 2.5269549081740887 4.846956002617481 11.906960139743065 0.629064097162336 -1.1575150140862838 0.019814463622765875
Ni 0.6965261807758996 3.4129227063800087 11.861288638694102 0.43653783556271913 -0.8379094076369504 0.024403368545028937
Ni 3.4070747032340787 8.54178053104643 6.282397498012493 0.03185134018264192 -1.0034113181289235 -1.7383914957997997
Ni 6.942141142521246 4.463888404546464 3.0901250965712013 -0.00036406820763808267 -0.47152000806485894 -0.1522998099794022
Ni 5.56514692976792 1.6886226043936587 13.023264407458369 -0.6538168786269837 -0.036727951548652875 0.8879633868705482
Ni 0.6687093350918417 1.3422617524690172 3.9954904872920465 0.5576565919536267 -0.10566951171537284 -0.5799429141556528
Ni 3.2977778636379003 7.590483520096694 8.530015284397322 -0.4096590088940042 0.1869863056179941 1.0608523338552118
Ni 4.341903737324875 2.3209367749467407 2.0808439648289374 -0.8424340349801813 -0.6674103010407021 0.2892097677662955
Ni 6.567663091470972 1.6581194199844864 10.907348330322407 -1.5866015355772802 0.14950502084308448 -0.08196419767863303
Ni 8.368745135562127 5.1243852718604135 4.971972274669921 1.0629511253657695 -0.04415226903718203 -0.21228184695998925
Ni 4.83482958329408 7.32241105588725 3.4928840908351946 -3.3240844035198815 -1.912202183267784 -1.0039443078142583
Ni 5.846356348244382 8.449129447604827 12.405704982762593 0.13917072879661194 -0.23046957361260956 -0.45113578798155207
Ni 2.1903625607044095 7.075222980512552 10.926356679747938 1.1595772959319515 -1.066241108970951 -2.1734455477281407
Ni 0.5060553147921955 4.5210210560809445 7.83587508890496 -0.005431969648848709 0.5986456327714786 0.23573159334249724
Ni 3.9283610252597865 6.892587503063892 12.746043794967683 -0.3873161224224297 -1.4730778179248116 -3.18329850771735
Ni 3.7130796550492846 0.5657507952253484 8.076708957981417 -1.2382993325242029 1.3500291915010425 0.7852580999898219
Ni 8.643750992301387 1.1580543317747303 11.103414565716138 2.9035110617062188 0.07223899997106914 0.26968738146265164
Ni 6.647850910607967 2.5169992676184574 1.4495768207591029 1.070118589648486 -0.5135158928806705 -1.2504058859797498
Ni 9.026126186799926 2.4811627043401967 7.219863279761727 0.526129467879623 -0.790557143605232 0.5280487963895228
Ni 0.6357163048632583 6.920461425258653 8.52697525844194 2.391083773904037 0.8724956302522522 0.002231974654312285
Ni 1.8662709047594703 8.604349486305367 4.479184909415211 0.05806476535321613 0.9532696642775259 0.8366526524117139
Ni 9.333169743973848 9.122613560305258 2.124748901087575 -1.5466882443221104 -0.13452140295005866 1.2865419695806748
Ni 6.169287760365167 2.1110823516556616 3.61666994302573 -3.019800772139599 0.8510829689044309 2.3689771718129844
P 0.7482889619016609 3.769332766910617 5.012851220180728 1.5374412718025459 -0.3520891808993356 0.668399661537165
P 5.79665299990649 4.266394320704624 12.496226457378574 1.6977963479862568 -0.0033483476469426204 2.0062194554562094
P 0.8341077063078103 7.160837746568971 3.3653049898840828 -0.6893235561740259 -2.080938541536655 -0.9899731903461468
P 4.715998159368776 7.104257146531467 10.607573139298498 -1.5906857329489832 -0.3979862005417662 0.8062817534293404
P 6.504804075255996 3.6782161994945066 5.330388434199707 -2.395454906388539 -1.4999342759960232 -2.511281818252888
P 2.398701181580063 3.5686573693573904 2.108767478090377 1.0928031757301953 0.5273653971692531 0.0033028391209878605
P 0.4517895883199759 1.6057493822120517 13.170768824728295 -2.165922242767902 1.2126980870163309 -0.757917760303656
P 7.906163408316527 1.423039050323123 2.9678456899910577 2.756988777640542 -1.0305727090350638 -2.586251844001875
