# total energy = -340868.5811242476 ev
CRYSTAL
PRIMVEC
9.29754732692653 0.00000000000000 0.00000000000000

0.00000000000000 9.29754732692653 0.00000000000000

0.00000000000000 0.00000000000000 13.60790032344315

PRIMCOORD
 96 1
Ni 3.3626718031205183 9.31502662933198 4.147484273975863 -0.9942769599278232 1.4141283359737968 0.5855242648981723
Ni 0.07812914897153599 8.790505501758053 6.810345502132765 -1.3277598385798812 -2.6409116974385998 -2.3887157878924925
Ni 4.978380967483568 0.32782407766293575 2.56642241940461 2.214441530524528 0.6260211965709542 -1.0289945659146664
Ni 1.5269826710467695 1.467496963801924 5.005706458823456 -1.226140842784798 -0.8325890238653015 -1.991176445080158
Ni 4.167486087354393 5.213023167192566 12.052517409679085 2.329202720128524 0.6107920383260256 2.482259462878609
Ni 6.5144752348260475 0.004989063849262926 9.808466056480844 0.7382745321514318 -1.5853838611200954 0.6791075348729724
Ni 7.737000423934755 7.311107677488265 10.615141709672272 -0.3898232051149996 0.6440052918532004 -1.0763023498616948
Ni 2.2449950542431516 3.781879613101075 12.039385553956574 -0.3470071383907379 -1.1224634217987894 3.08944758590346
Ni 7.423059443811364 7.883176461650208 4.514530054672931 -0.23054285005270617 0.7414207910898972 1.5917738238068393
Ni 3.6742326111503365 2.3497877091910504 3.992694058742069 0.13139108485119308 -0.029668216488394065 -0.567018749894817
Ni 1.5824425403364701 0.8430690423549937 7.357600992219208 1.618766036124967 1.591389700994543 0.5244759914366
Ni 2.6071438168086383 7.340878423752409 4.454505089688135 0.6596661383189091 -1.738025884930265 -0.4447705078851566
Ni 3.7782070819410696 7.090114277128349 9.910007359158735 -0.9022607773298268 -0.5666922197933337 0.06808769680685693
Ni 2.4898924485584435 3.179816941541215 6.165780023117593 1.1152635616162405 0.889874487850332 1.2685643020563315
Ni 7.833062682023805 1.150813207242579 4.384084537133714 0.09998377418450523 0.35133636189371104 -0.9216594935714126
Ni 8.165803302667529 4.747392703840094 10.008420037190188 -0.4403991182903383 -0.5353257896669104 1.0820364241319946
Ni 5.591591398184811 0.39195483950914517 5.568284306762276 -4.10743140252992 -1.0970580943518076 -2.406001314445818
Ni 6.070879958433606 3.6185310056323825 11.429615215734323 -0.42472978718419757 -1.3973179492846775 0.04050721608542701
Ni 3.6365589497317505 1.896746124802242 10.875665491634704 0.8251101989897531 1.7186320537846853 0.6969916142422448
Ni 7.664377282439054 3.4831494202631736 -0.1170040534935974 1.1498541551069164 -0.8703284473976043 -0.22421176562835576
Ni 4.284105222392233 8.825919859197194 11.51523632827227 0.660669639882759 0.0224434166051807 2.004643626328657
Ni 8.976233305434677 1.9094558718800325 10.768992872634774 -1.7819565248749438 0.1538491567443931 0.920702271864466
Ni 3.7570830546106087 7.013000420315478 2.179427821348282 -0.4199922724992122 0.13243469562435903 0.3501310287317002
Ni 3.0998580352727445 8.218631966088163 6.557456865964246 0.18699916113380052 0.9720394886858614 1.2223438376362108
P 8.55934058471701 6.113806734043087 8.465638044117604 -1.317874461145369 1.159337154896687 0.0890604424037821
P 2.8467602042913147 4.691467957188368 8.25781833844278 -0.5442480318572046 0.060337620547792854 -2.217961884972961
P 1.1311117046399175 4.730731499185083 5.788188034585603 -0.9847782764087686 1.7876420052954953 -1.0743244001997176
P 5.412474150596197 -0.21533212384516265 0.48780418376638784 0.18617589390155678 -0.23471832158663444 -0.4962679044335001
P 3.4930327129798457 1.2849210286398365 6.012324005912814 0.8347695764563882 -0.7164576933866564 0.8678992691308214
P 6.960143864253124 1.8299618429735882 2.291965333147534 0.9462821772160992 -1.2778714383898702 -0.36141431495500337
P 0.14472655010065527 2.099665093326587 8.615447563294651 0.3680904414235983 0.3090576557301581 0.3396044181687635
P 5.59836001257591 4.058955818415805 13.684103995464769 -0.9035432435866761 0.6603960745063983 -1.528366048974155
Ni 6.408157782130703 1.3350719984552004 12.039957353111866 0.42390163485594734 -0.9412618411833724 0.20496988667960828
Ni 8.042740967392008 8.79579580613791 2.5243472991223617 -1.2440508902959995 0.8788012607553057 -1.0476831434631055
Ni 7.336025104092857 7.767654437186748 13.431841084225539 -0.6922060199281433 1.6873826088521007 -0.3073057060360579
Ni 9.11026674645401 -0.2361084229088282 9.210153085723087 0.9205060966932598 0.6373710743661346 1.1902050481201372
Ni 6.289353723491341 5.7728191889970235 7.886105189030971 0.15707563410149078 0.4437214977953519 1.851254182829502
Ni 2.3799396548920564 6.303476697749691 -0.041232762502257214 0.28098917962871606 1.1323742531545982 0.8151739137126477
Ni 4.8098164360129445 3.692809110536895 7.865148517550839 0.28677159063844804 0.5752383095911319 0.2633141309464562
Ni -0.17453820557265798 6.420672280716443 12.085829591687142 1.4455248480072074 -2.050039280854637 1.9208981683798854
Ni 5.2002483372840915 6.817789118453525 6.009098686775077 1.471249763577137 1.3998713118341506 -0.2950322879853435
Ni 5.644215515566152 5.356177502054849 10.069002855009415 0.09336755441956823 0.781705349641557 -0.12303037159132361
Ni 6.403509008510443 3.2071145402393815 3.7949575430495903 -0.2040589448295647 0.09059950475612784 0.25679587021196415
Ni 6.454413079652289 2.454877885650646 6.160813273381707 0.5018268865785164 1.1059422842153146 0.46812512345069707
Ni 7.433491291815226 8.16866694721761 7.945339862500322 -1.2463461140880794 -1.8579529350059165 -0.4528059765951234
Ni 6.88657237293889 5.08449387413962 1.7604812724451837 -1.2417361261198938 0.1791737515521108 -0.6939775100062694
Ni 3.4130552116168946 4.388293536769498 10.186234698410406 0.9826347477032045 -0.7604297280922323 -1.665135624528442
Ni 0.6820717845834289 2.3655098615747696 13.711456449691656 0.9239362054207313 0.6246168600242598 -0.02255114582763858
Ni 2.7200811231392326 4.532126592580339 3.8739244010274967 -0.3679585438314244 -0.22711248421491856 0.0915533840289649
Ni 5.116068344568426 3.0106201768582355 1.8875517803360922 -0.872585104642265 -0.36338249442496773 -0.38797098239760924
Ni 0.7276446421375606 4.802666622184985 0.6319003601641359 -0.6048967558875131 -0.28080740263521314 -0.7487402075694459
Ni 8.730833843568398 3.6091962682029 2.1637103177381833 0.02238659522531628 -2.3117063631159733 0.6326186472828138
Ni 7.980465995975007 1.1905602216958011 0.3700005412101057 -1.8908340020046532 -0.5615093900408136 0.7594776485916082
Ni -0.041408486145103035 4.20623826425288 7.602570907402975 0.1358779169779531 -0.6814899190622199 0.19830738705776815
Ni 2.9363978572371665 1.1040000568865618 1.8505931003003018 -0.9188757601786884 0.16385023382116298 -0.522576460421042
Ni 1.417755086065143 6.256644952299192 2.8304160459972048 -0.16162057315969586 0.27289663242856876 -1.6925374135801625
P 9.292108175384097 4.0533308023352905 11.970434013866155 -0.45435583758074655 -0.03953431064919643 1.031736647436178
P 5.676236268262503 1.8572129539355517 9.9674875854638 -0.3381910827610046 2.436616468228513 1.2051395579427824
P 1.983157528855633 8.45719773073266 8.636716632362063 0.2342120713741773 -1.3269373426785858 0.6053960641214348
P 7.287482609950104 0.4243874735482504 6.476421303725323 2.714286353676009 -0.14774972871487457 1.7911374200432637
P 4.606460482768295 4.978715679184227 2.8805065817555056 0.7048712741006377 -0.19856578292547739 0.45829219652067527
P 5.033617695639496 8.063223463962872 4.124146500647434 0.9832566975579197 -1.8682193499289308 0.15828662369045643
P 5.36117958247025 7.7153464364115845 8.51544314517562 -0.5344230753469829 0.10103047028146471 -0.4798372696813027
P 8.658852232832293 5.575060359191167 2.9113967527074087 -0.011372760613315899 1.1046197087491492 0.7154541918228065
Ni 6.323103819974428 7.34732162399009 2.430044136971217 -1.3102740230902918 -0.16220061403288197 -0.7623541988084549
Ni 0.43595827108907725 6.883262446121265 4.934660181339748 -0.31013314818252397 -0.6366624783348842 -0.022411277815664626
Ni 4.152080051576852 1.683590556766085 13.263919943023959 1.093826217678071 -0.03272911480190492 0.8502370759643679
Ni 1.1382429233733962 6.490227231622771 7.446338642592177 1.243695820949426 -0.18893854424835846 -0.6668737118109418
Ni 2.951227445085795 3.4609840676417742 1.0241620187322182 -0.5886972633095151 0.8340149576785507 -0.20287392338252802
Ni 8.045390768355556 6.197586932227411 6.354903291046454 0.4690185817992438 0.2551547350641154 -0.11518979250098228
Ni 3.269566165053953 5.829766665845207 6.037498974575969 -2.083310641313257 -1.6500962136968162 1.2394781833236523
Ni -0.25967212663520156 7.125863346268148 1.1876305645603134 0.6378932654181918 -1.377604272905834 0.25932429306077276
Ni 8.847573846720364 1.8886386636085088 6.436618503988658 0.33976742610918903 1.238183632881945 0.7396490439014552
Ni 1.156289462567245 3.699912436628652 10.10021936986946 -0.6868378136376946 -0.5195127338940537 -2.5214883264722445
Ni 0.8165617351722718 6.49146380540576 9.855903072256702 1.2145731925518564 0.8539613188934906 0.6214276636630007
Ni 4.097577829652924 0.22900602657179514 9.320241623579186 -2.4442634432508097 -2.78373390694487 0.0818559542355429
Ni 6.732763048938971 5.638032646651208 4.270907354084315 -0.6038521166730827 -0.11948687721443937 -0.8066409365409721
Ni 0.9824811144529679 8.330500054486096 11.820353006309684 1.7844877759372297 -0.42491310683959727 -2.1313727869278067
Ni 2.9174029682247844 2.240067354205676 8.518627555105498 0.5420805918922407 1.8179812797089852 0.5106313722440239
Ni 7.305092164423648 2.804707398122444 8.686140533983219 -0.268518300855215 0.17139153650353062 -0.02002915073673325
Ni 0.5858468194176691 0.611565694594395 2.459913437236111 1.7095599162800883 1.8721819341211048 0.6687277343005451
Ni 1.6961236504463058 0.8672091940102794 10.231344538111959 0.49079145469996127 -0.6486587314648119 -0.3434153072744215
Ni 8.283054670917723 3.888364421646748 4.899334150599392 1.7834554780179737 -0.030114817107509427 0.8895363877846227
Ni 4.707208704666567 3.9981591570100465 5.405602333430729 0.2494921374616994 1.0607456330740184 -0.7789565832518263
Ni 0.5580889921310973 -0.050997976368975156 0.156598588172075 0.8010937814704977 0.1958175307563789 0.5207671751264451
Ni 7.011494217662514 5.537507565886707 12.570474468901203 -0.8830919177108597 0.33639053921715617 -0.1000303111517245
Ni 4.949874687644134 6.940377278819778 0.06229077724731052 0.5521875984192556 0.4506395650714239 -0.5890613315171531
Ni 5.370532914994212 1.2637505135731728 7.98239430727269 1.0882366394054355 1.0667928677093628 -3.191396711344452
P 2.522182830124769 0.6517236606356481 12.470497013669169 -1.5456778007797252 -0.01218342944006934 -0.557351402008382
P 6.627049936814261 4.593704247954301 6.245277771042932 -0.5819337193334365 -0.961077590357719 -1.0655913912020938
P 1.7308592869368877 8.183152525818338 1.5722570773344806 1.0191747516107674 -1.2255178644888185 0.6083788008988426
P 1.4943575777797857 2.7710967648479645 2.520795636076483 0.5821466066751909 0.13867913387217407 -0.049410432112327804
P 0.30053577651201013 8.992178598952169 4.461772052611326 -0.3930224287785877 -0.132916520356784 0.054905908009260276
P 8.385030169051745 -0.005895574705213605 11.919608971875853 -1.2302468945333715 0.12143603052101022 -0.38886649762868514
P 5.768793351041878 7.061422046344105 11.434813474396499 -1.2693885977298396 0.13484073396269036 0.6104986754553228
P 2.1996137261621747 5.873697576556662 11.499873061212035 -0.6235727350304616 1.1586972073198432 -0.6970324947825092
