# total energy = -381170.77150649606 ev
CRYSTAL
PRIMVEC
9.18519733286943 0.00000000000000 0.00000000000000
0.00000000000000 9.18519733286943 0.00000000000000
0.00000000000000 0.00000000000000 13.44346475062901
PRIMCOORD
 96 1
Ni 0.9560779807583965 9.144019859645654 5.653003835558118 0.7121009590798575 0.4185593967074276 -1.0350227743866174
Ni 5.749869087116706 7.932409695614304 6.860562409149437 -0.7540022272993336 1.1356984324318247 -0.8991772533084965
Ni 7.964126181194516 3.988442209981984 6.510104887945041 -0.12775348809860576 -1.0448243338580716 -0.23737967046888153
Ni 6.972620895228219 5.42041443759714 4.914419381329748 -0.05850570954537666 0.43721994923140833 -0.19282605222822274
Ni 1.207724825658797 4.152719460083953 7.300486505649791 0.0034331940512650552 -0.8580899963498834 -1.1111557100954539
Ni 8.27739651342699 9.305155772340028 10.912127130629925 -1.0066948739762016 -0.3786059962429415 0.6957055484409695
Ni 7.513766782270855 1.8015478180598223 2.4547227985505256 1.0079547145252319 -1.7064681647286417 -0.5063563990177538
Ni 6.7573106900484445 1.4074201957715686 9.357833796218125 2.0825945890828392 -1.4091550511289215 0.984685459584646
Ni 4.559210357666434 0.5252619257006546 5.683224971050738 -0.5401134408635407 0.06705745577012967 1.3556275115244265
Ni 2.5694211102753415 6.0027283780340746 7.945933979821747 -0.24471657044992695 0.1601481023792274 1.0263761544552128
Ni 2.508578364696619 7.964640552232018 1.9808272505823423 -1.7536299100161088 1.0791267066843673 0.5961719744200056
Ni 8.400542450923053 5.910775369883623 2.9545371356905146 -1.8893358201925718 0.42898779112960317 0.5673002856909778
Ni 6.079507440578238 1.5419098516839553 11.96516772603615 -0.3197922685388428 0.46455180427714193 -0.6471456372543952
Ni 3.5763207865782833 0.9624249519532782 11.821066679880168 0.5643972531115699 0.3071282999179291 0.7037803550293041
Ni 2.840053757577798 0.30526359592193963 9.11663143893813 0.3951330473636872 0.8998516536677019 -0.5579214155792391
Ni 4.764986328258239 2.1381577361189152 10.117967641358671 -2.4959547009775145 -0.4621231402309912 -1.384620556322667
Ni -0.07164912996479812 5.612513649709669 5.263129878046058 1.6578642876780092 -1.0991316890513847 0.8325833674383468
Ni 8.662320568222809 8.717293972855757 3.5412103706702722 -0.6481367975230709 1.274170335389199 -0.6341235139631144
Ni 5.8449083214921655 2.754879424885846 6.054115881719872 0.07163016274247665 0.07857059861605177 2.4829922272795755
Ni 7.321768607326406 6.888346711851894 11.030739254838299 2.273059340167737 -0.8945580093689304 -0.9176647705897227
Ni 0.3609901867169438 0.7839813723666976 1.2922405797188052 -0.8538353348385875 -0.9855560351150576 0.5666472254880113
Ni 4.9522265711058004 0.6436986126444526 7.979153163647232 -0.43313858007318307 0.22233100366587516 0.6567175972135464
Ni 7.088501341819577 6.236895792856529 7.141625766276651 0.960535858921636 -0.2887891352891091 -2.4190992852803563
Ni 3.3751833405210885 0.2407127862746591 3.7912856283471648 -1.2454871085218935 1.9095701449615756 -0.8627048694140755
P 6.5997110782368935 4.685451706584604 13.035684077441482 0.22017873320956274 -0.36148630584351943 -0.04472433949056814
Ni 2.1594030970071376 6.356973874521782 0.4857003632788377 -0.8913204762682391 -1.7529714504965037 0.3887094032255306
P 2.8456659130048205 2.678302436677843 8.843823736962811 0.05122434539261501 0.31940788861623054 1.371991554704747
Ni 1.0900348952390855 1.5081634375450326 3.5141755800510315 0.1716872133670785 -2.6604844773642053 -1.9822115225773864
P 8.459162378804 3.639349609066386 3.428446461454345 0.3267712709598372 -0.42994475572623375 0.2749008073427911
P 9.450006330579225 1.6595446709210775 6.807958785367833 -1.7465418928210759 0.08724215824812072 1.12300463901424
P 5.389175582266036 0.4838706720168689 0.5198977705952841 -1.1974730425364601 -0.7584908591983066 -0.423063198115052
Ni 1.4369781600336955 9.12336235137172 10.859536366124258 -0.8754755388161825 -1.0146694075412461 0.592140227552793
Ni 8.157263320579146 7.949034902362112 13.143150883490856 1.7871408972893608 -1.9988277909778285 0.09361669431589684
Ni 3.1577054288261297 8.115975859622571 7.121795844261268 0.3879236740994416 0.8822473103223772 0.8703585293045915
Ni 4.237737644425235 4.693011123796453 9.130303604818856 0.05744770059450751 -1.0617439924315457 0.1969601290012543
Ni 2.985969798680392 1.0691018310522034 1.61060777782109 -1.9735641313150334 0.28336025096405393 -0.2440313714574442
Ni 5.8548926307379485 6.526854094853676 0.4543678189373315 0.9505607499867953 -0.3208595334610925 1.0674243306457747
Ni 6.369787224473823 3.2600101541062942 3.932186551834121 0.24972507940811187 0.18027315526387663 -0.4830976856001293
Ni 2.865671272284781 3.0677364232488977 3.7155049967275793 -1.6819681227047483 0.2528127171945001 -2.472252215154252
Ni 1.053900329854621 7.2285113011880044 4.049036955239053 1.0855197546949047 -0.532419928874025 -1.090810570780199
Ni 0.2226638739766233 1.3666103650641015 9.061741619598777 0.37746776887344025 -1.1649984669475226 -0.920398367470802
Ni 4.991915807767283 1.4751977651594599 2.403167205757831 1.9620407040564662 0.775901084254954 1.1106623153988033
Ni 3.6125196483424356 3.569220629221346 6.928250882125475 2.4734184675482114 2.1116498545775824 0.5678407315754801
Ni 3.0205612509523525 5.718685342968191 11.380551056686688 -1.5645592110652602 2.2199285217810285 -0.6701986624191166
Ni 3.811728203009001 3.7033428772498036 11.566676216606524 -0.24951861982426057 -1.7266628945089617 0.04742348358928607
Ni 1.7098979214136127 2.112824962521978 10.923540656544194 0.7870326753917414 2.606335502125628 -1.985624662023993
Ni 8.078987070907969 7.798563003498793 5.709332056763056 -0.2803615733470462 0.5038063789023904 -0.18680350018322667
Ni 8.462781346460707 3.4493905478777456 8.648167098014135 -0.5793703294816344 -0.07287431956222289 1.2057185703747042
Ni 4.061648230854932 4.984751354030658 13.522512382923985 0.06392250968557378 -0.46999174434579055 0.6071829808185285
Ni 3.3507231606484833 5.936971552007795 2.8251443456479395 0.0702826475756467 -0.11192192038298789 0.08272267311121237
Ni 1.2666570502410859 4.408573125255346 9.64697645271295 3.086557665950174 -1.1988714655458836 0.28256860830069397
Ni 1.1519063828928102 4.765096550623418 3.1332544341506225 0.8914734569063355 1.1538329372490064 1.5055372240050975
Ni 5.289653971706637 5.9108764070517035 11.637953346088844 -0.02448744361840299 -0.4012551011010251 -0.46726920320830495
Ni 4.812115574569293 6.991220919352149 8.860304736116179 -0.07786483079827881 0.2862069763842297 -0.16132823873025764
Ni 4.312413296833903 2.448516360871247 13.668776542996602 0.5959500882171865 0.3555372873489361 -0.39631421215598195
Ni 1.1507857888468256 7.16367299487155 12.128317033934458 -1.0006442969067477 -0.6470029410289438 -1.1067760929705197
P 2.2408849804655984 7.397978187650478 9.894080299128563 0.2479481900133472 -1.0167699988240166 -0.7803807172928625
Ni 0.6830094191854875 8.082073297132977 7.736229500431026 1.1969331108725902 -0.07060429258112356 0.4904656959294262
P 6.273434506913317 3.1508440865937466 8.349722592417926 -0.7360677543081001 1.2860097512262882 -1.1381574354952784
Ni 4.826472037633837 5.709748146191607 6.8540161191775235 -0.4399298919634036 -0.20349767300945598 -0.10059826784005256
P 4.4694434264253635 2.3182978216095402 4.497686070463023 1.856122823775713 -1.2923344078927355 0.9847888179317298
P 6.126159056640184 8.404740085996947 9.955019489276816 0.12486973879290753 0.7829752174929161 0.24289262986731072
P 0.35337933240134456 1.3841357211275376 12.490807163337543 -2.8469874155878774 -1.8920599039919546 -0.44332297680535265
Ni 1.8694264246157941 -0.02554770720903653 13.28297622039761 0.6440610847918005 -1.3414105965940961 -0.7527243890281747
Ni 4.757978022872284 8.22460918570342 2.25385080468947 -0.27244360405155016 -0.4396599261314686 -0.08621654519708377
Ni 4.127111130574068 8.109555406850902 10.81320990603959 -0.7195882685958381 0.054054615752558516 0.017545979303563334
Ni 3.963283955129912 7.755429317925471 13.169661199355787 -1.3279272173956806 0.1866366355880592 1.1085336990915748
Ni 3.18948621078603 7.615290765797669 4.938550731146235 1.6434036321679892 -1.9380163161174107 -0.42856767287304903
Ni 5.948848011855816 8.16474925621421 12.286048912584224 1.000341163844032 2.210725515125522 -0.7228653966852131
Ni 4.875511804941325 5.048377214330147 4.599654617529391 -2.5181024407191472 -0.6913007345050546 -0.17470414581653138
Ni 6.869856910093143 3.8503886975954806 1.6947910277461424 0.27876209007041025 1.6842456058850155 -0.9882860324517109
Ni 6.288792156461569 0.18075549369620691 4.232796008386384 0.6798824653657839 -0.4912198004866314 -0.6868175019227204
Ni 1.8569345565621918 2.4541285162982702 13.205891290790074 2.8283412612416 1.5254141654346824 1.347194807376041
Ni 7.3077060705690045 0.6612313168655675 7.034185597298863 0.4960874129915779 1.470593875160693 -1.2118712202396613
Ni 8.248720328086293 1.6238326246031318 4.770009712551264 -0.6810775141151497 0.1683818031429294 0.9466709280140858
Ni 0.7964530329866838 3.0231790321253498 1.7661756240345114 -1.23127173625346 -0.47912404566436195 -0.25829302358278095
Ni 7.665726683064089 8.179629275513353 8.448249446131586 -0.34067014042911653 -0.9075042851169532 1.2498996357672927
Ni 6.957860283491351 8.213899245886875 1.9315707126233363 1.5243656695655103 0.18916223022339035 -0.16364248868573109
Ni 2.425691146082128 1.8516163274423123 6.923948535804661 -0.7515190558661637 -3.9310316141785204 0.20828532420608645
Ni 1.1035095793821992 2.7532444598023598 5.209208178480858 -0.6205275204462345 2.7019723121953465 1.1121666678584716
Ni 8.369615892293288 3.2620768234533974 13.379137885858471 -0.3664300230020399 -0.3880283179981059 -0.34493662901495437
Ni 6.084421521025795 3.9257991657720064 10.543413111673074 1.1652368082105737 -0.965588590854195 1.9086229505569579
Ni 4.629642449015715 3.858738041757778 2.252896462710963 -0.287287353932602 0.6081258043477721 0.3307688221550045
Ni 2.610322792953791 4.661570194129188 5.2656567257677835 -0.921246317293394 2.5131078157180333 0.4491552672164136
Ni 8.421622478263506 2.5349766211569524 11.00473963593203 -0.473743498078739 0.9272827532954612 -0.19742909821787286
Ni 5.882282888484892 6.114659189873191 2.7920868212913845 0.2132688934636069 0.03484564692427547 -0.09025497693251554
Ni 6.797946002011045 5.378236012522035 9.000332147359092 -0.21981749321540206 -0.43838183074999343 1.5977002165936034
Ni 7.4330748257628425 0.6750743274123205 0.14456949120799226 0.8611732632608975 2.5816122883473342 0.6072338886611219
P 2.5508302713485094 4.165872662328629 1.568583664057236 1.0170859874025386 0.5881285352902387 -0.9252983758755806
Ni 8.527509430411984 5.807588865682027 0.607725706728917 0.080116602946933 -0.7261736351228396 -0.9506530525902853
P 8.809651129678532 5.2461528782493865 10.366820349301786 -2.360399714556619 0.5991685951544842 1.3330550255405493
Ni 1.0480585445001422 4.471794836882512 12.27080424096028 -0.24679890690025236 0.8294635908624424 -0.7327787991441832
P 5.655628964888794 7.292385161809145 4.7897450270365365 -0.1992520103592246 -0.40151298274810204 -0.4019492989545722
P 1.5880838374967932 6.654032333875867 6.102257336751151 0.12558193436858373 0.5843353867963936 0.9599064528677533
P 0.27771535278490705 7.416330211452756 1.8674718146732892 0.45532334370033845 0.8409399669331581 -1.1152733318082535
Ni 9.05395900209744 5.891422159597637 8.266789447817946 0.31139993071008953 0.1583025645300564 -0.017115062413731813
