# total energy = -340893.3389304204 ev
CRYSTAL
PRIMVEC
9.05207463022621 0.00000000000000 0.00000000000000
0.00000000000000 9.05207463022621 0.00000000000000
0.00000000000000 0.00000000000000 13.24862621906551
PRIMCOORD
 96 1
Ni 6.655890905425104 2.0589396358349807 11.404722409258737 -0.0877268111940231 0.38497230478060146 0.07661861709600354
Ni 4.553772873586813 0.010000732055441677 6.010411903889083 0.1249144759879139 0.8388733142121165 -0.4820281066850344
Ni 2.689072655244291 1.3819349739717628 4.865783402895092 1.2469989171807299 0.4945511788527095 -0.4465684803258438
Ni 3.3666475978094392 4.204742979856075 4.782316938319051 0.08366652508172043 0.6336815413296893 0.0683473782261468
Ni 5.078458275586783 4.387305221070908 2.707608588471959 0.6355129381114732 1.622761530437605 -0.2292578126926955
Ni 7.388457201390694 6.004232052536575 2.404718024357252 -0.8685870392264654 0.7514951446067638 0.521454945222089
Ni 4.964320666528977 4.27773890970318 11.657691686975403 0.9656497831094337 1.1560024340964996 -0.011967199664205196
Ni 5.38352224282107 8.100303298519476 12.358875345393011 0.7959634022224679 -0.8084306814515431 0.9235227720323965
Ni 1.8010279253682497 6.353361519088287 0.46630133102677246 0.6680322508954173 0.3770882740468344 0.25786493490642687
Ni 2.8563912027757756 1.6330485763884968 0.4250546477503192 -0.13870638756568368 -0.5139992602749922 0.10302796032746772
Ni 0.6131567586410487 9.16938952107187 4.765146963153625 -0.7671387646812917 -0.9931806415398508 1.1297833524989704
Ni 8.562131094262217 2.305807815248454 1.3945372722769638 0.400991048806361 0.16270994956913265 0.14323332890175977
Ni 6.905601436273596 0.8071762107199049 4.834119245825998 -0.8102569360270045 -0.5512558306336055 -1.2278953635820595
Ni 0.7638321617507962 7.459027175235937 2.6616883190620664 -0.05075460484504807 0.03249565863486016 -0.1926692149353843
Ni 7.428132444510717 3.8557221381999702 3.7276198936045732 1.1317013954572899 -0.5301691851666354 0.10250062706908798
Ni 7.559849182507397 4.009218167765615 12.701418522441156 1.037649413376187 -0.49099765717349636 -0.9283731581461625
Ni 8.089612798376937 -0.17798008103519475 6.7268836111557455 -0.7385933489434312 0.7859859792947819 0.6763888503902286
Ni 6.939238945612863 0.8358721925165701 0.24158357824225068 -0.32219779265654186 -0.5780387551544045 -0.3433093778241765
Ni 1.9802318468939368 6.415250553359698 9.260445245020904 -0.9402226012855807 0.14285923339179268 -0.3679294903657019
Ni 0.16274362901155298 4.679714387967118 1.2905660482403984 -0.01639438219762338 0.2080783504016029 0.6314572799848609
Ni 6.291300495398833 1.839625971606848 6.826221983394723 0.5697921988748962 1.0327262650429567 1.3125679613307912
Ni 3.4029011567178786 4.298893608122412 0.4993993367178631 0.5430846076767227 0.7331714065969115 -0.3273435985235395
Ni 6.074983067874494 5.654550409432202 4.901236758405902 -1.3212382354112795 1.1664645099700879 -1.2731866313196911
Ni 5.5249971172730055 2.816453449491372 9.329669175368098 -0.5752038568087706 -0.8685209618752203 -0.551266886377199
P 0.20984519416115946 5.523829399645242 12.295996919364123 -0.4123165011215092 0.00047796807768304777 0.8736513411232502
P 3.9478541538229655 6.133341793038716 12.569342417081515 0.03424503722579909 0.12454809378743066 -0.03962147104636402
P 2.393106023016991 8.418366044927925 1.4544076939050332 -0.616321452784687 1.0250090989043572 -1.3893894384662202
P 6.311061174324457 7.74011219676524 5.932270774820116 0.14901008348453693 0.21236000849609232 -0.918638704467218
P 4.853450856413979 1.2160466542324215 12.576298031230138 0.21053658213410836 -0.6328461899125876 0.5011149481131564
P 3.9068029953586025 6.047491917211589 8.292156589138461 0.7048021114255991 0.26316757806626284 -0.18007183788634795
P 4.661392988908271 0.8894025410711137 3.8441282410089763 0.384641403803744 0.4804319658425081 -0.25274689695357117
P 0.0912765945700997 5.5604721977629366 3.5728104080095617 0.9761661092597251 0.2372189765213011 0.6090112922765188
Ni 1.3291794830058739 1.104325949101845 2.908457830862031 0.9613627256983055 -0.21235846583419557 -2.893606658108313
Ni 2.008546736348518 6.317171324702284 4.8697581688668015 -0.9349104450440481 1.1580618877286895 -1.1760074164635166
Ni 6.042458963715187 5.73208142867085 9.028289402509774 -0.9616661158713375 0.19897458832812184 1.2902818962390812
Ni 8.8540786053521 2.2418277517366314 10.121195254253594 -0.05429527100845488 -0.04884658918905781 0.549943282469769
Ni 2.360600023006952 5.154034046704526 6.97912419686439 -0.5948622544696466 -0.44231484725581244 0.5899339639300938
Ni 0.48357268942809645 -0.04757679906788189 9.12720413765589 0.3323461939444534 0.6205288059978151 0.2171628292013744
Ni 1.6130163352238582 0.9502777429835372 11.470395210727084 -0.8461935020226136 1.5297662717557912 0.15388438085770273
Ni 4.054532853382506 6.935663376132505 1.5750763748111387 0.5798786365766206 -0.8880731729755351 -0.8173791488940826
Ni 5.587610317515121 8.0053922959839 8.04844758377219 -0.4737185583780745 -0.19557687550048253 -0.005358950319068191
Ni 5.231212035032455 2.9117084308630345 4.709343638658529 0.891792273698335 -0.8532020721299628 0.655249240198136
Ni 0.8047086151747262 7.559487099522045 7.221136843444284 0.6936039287169345 -1.418045668750332 -0.4004593446726071
Ni 5.104754552398023 4.409709105789607 7.242321413709806 0.6492773388854173 0.3371574992901677 -0.8943543779985565
Ni 7.914599987406708 7.289608546389407 9.095910210439317 1.0328692183787243 0.10889110397646407 -0.10339948473427354
Ni 4.798930210894496 0.48657345216920694 10.41720895726899 -0.8033424682953584 -0.1662174485017589 -0.5598507713914681
Ni 8.027723764105527 7.41822947486132 4.4661777577702875 -0.012810007280474713 -0.43526153995345684 0.45610881571611134
Ni 7.3202498190248795 6.119012358893383 6.900149371721648 -0.8875792640582519 -0.048729089774587044 0.6532844031622813
Ni 2.295778116554184 5.2434594920120094 2.750838581300682 0.20768908538298422 0.25259931563211335 -1.1156412566706333
Ni 2.1691124362031746 5.290955727615651 11.442056785878455 1.4996583966268173 -0.7850153878513964 -0.06387725826993516
Ni 1.0242965572642637 3.3718978010970533 3.6067131431355985 -0.8766070813174645 0.46998583080851963 1.1551953648141717
Ni 3.7454316608615366 2.595519463903786 2.7304487831880078 -1.1956221053706506 -1.1078976081694727 -0.27212041638417656
Ni 1.1276712495824606 3.4574036980880947 8.235743154813045 -1.0908776765727086 0.21154085502890663 -0.8085605221611881
Ni 3.44809816536453 2.8731556449976057 7.292388438509453 0.2730203024906266 -1.059355437594711 -0.33763418181627014
Ni 3.8519836313762035 6.6950320761417315 6.124415542242309 2.245747282616345 0.3174530788827049 0.3013564304311584
Ni 1.0698194405977322 7.492737101172272 11.587208613046645 -2.2140525226162255 -0.95223402392416 -1.4119264432264715
P -0.035720391712507606 5.659583362928605 8.13795540295884 1.7352686339001018 -0.6090999953355833 0.37784546392783314
P 8.42070148018345 1.6895968866259554 8.039014416796288 0.17337128593772078 -0.3781966766196648 -0.7906985542791028
P 1.8244456424459359 3.2453045373431144 10.279821094514224 -0.37686484518211866 1.339280437624971 1.8197957072099045
P 4.1473075663045025 6.13721608098199 3.6661463495588547 -0.16157917839879915 -0.006664813614685296 0.8638405256804155
P 6.835809940846863 4.18552542540848 10.428059679132547 0.2454493348508934 -0.31029949855705913 0.7050548508663534
P 6.219780053717041 7.789753774057096 10.256132720404988 0.022987462034108796 -0.07142524582052215 0.7302467767509487
P 2.3605004501859796 8.317498777283294 5.8529248146173884 -0.1496286909051423 0.6804681626659249 -0.10496271545633536
P 6.971582008279492 3.9953503894266063 1.5659211065264957 0.14164875802345928 -0.1551316230012425 -0.06835920530068872
Ni 5.377919008622737 2.987619128742229 0.5012260453789675 -0.4029327459137641 -0.3380285890412114 -0.9382929883630357
Ni 1.5420299659454608 1.2090584526151145 6.934450398131573 -1.1033390422645128 -0.10559135017926977 0.7835534585938893
Ni 6.953396390340154 0.650782612063975 9.410048882494007 0.5426176953426332 0.37938092673575313 -1.3623080088683959
Ni 2.6081833163164974 1.6610375911562607 9.254761447358328 0.6016782489502154 -1.2644672491688225 -0.6631461264477095
Ni 6.153202044785312 1.9549312982924165 2.420046807542159 1.2758569790630025 -0.35434738080589295 1.6308813313312622
Ni 4.056551466025847 7.10239353881279 10.369289084572486 0.42036456823696633 -0.77452528695335 -0.05079111450993834
Ni 8.391590008161094 6.944652086243885 0.39505788282877446 -1.0949515895317659 0.679384699793759 -0.017173683565809134
Ni 7.529968284141165 3.869245937702894 8.334989195890758 0.573551151696696 -0.27318999529927146 -0.968075876052423
Ni 2.9255581050527755 8.245978335601503 12.376363048378083 2.3727762338441005 0.37583254726286236 1.7779494605980797
Ni 9.166854940174401 4.72026768232662 10.253827156995753 -0.964596659254571 0.4311804279055478 -0.3845511580827829
Ni 8.741977713086904 2.3682490260725277 5.799135576728317 -0.507416721961468 0.8538965270938261 0.09273737703473706
Ni 3.667040694532676 2.4326183287936045 11.279403677613239 -0.6494719713947266 0.46037530430194906 0.49957794264333966
Ni 1.2273979558232289 3.32920821712397 12.726007577976459 -0.42760685162167644 -0.2453837717202806 -0.673616172741098
Ni 3.003043863918254 8.694626310677405 8.075183791410632 0.5256090765997786 -1.4514980348715067 -0.7525724368313427
Ni 5.661013590720748 7.9346231764967134 3.6335679329517454 -0.22052428947443956 -0.19019169992916923 -0.2724019521803373
Ni 3.103920183637517 8.233296379039524 3.4092023058704792 0.15200798977059626 0.20613356797040627 2.0657816312905584
Ni 3.6610120128265535 4.241883642078628 9.577577438156997 -0.5130245550665486 0.8149818523064996 -0.9336056101896953
Ni 7.131351125566374 6.18188806929988 11.483034622538282 0.34766456946907864 -0.2641829067046547 -0.3469778278146992
Ni 0.5919133498904057 -0.08852385867395578 0.2570879716750535 0.17950259564643925 0.545852400229847 0.8132471290035799
Ni 4.686087048509325 0.2568001157016981 1.4350778937319792 -0.4618310629118691 0.16368619743947294 0.10380777591628575
Ni 5.933318099855248 5.557231555044029 0.3910903585167722 -0.8373728184071901 1.5327760051163926 0.002996877844794839
Ni 8.079365849891456 8.71524693669324 11.420686648082938 -0.34952142017215937 0.3250674008948531 0.031897362929228935
Ni 0.16044259163963656 5.30271437256498 5.858197648091586 -0.1465600792821476 -1.6109930770477674 -0.42278629030458154
Ni 7.9198049303211535 9.014381795042377 2.2252126687462592 0.28131159596514127 -0.3709487368079999 1.3244922235722028
P 8.418601398868404 1.774061795034107 3.62299601498691 -0.24239177897149225 -0.7642961530261739 -0.48546644294262203
P 1.9681563793324242 3.28790360056986 1.6638020947494288 -1.1488740505818344 -0.83688867968192 -0.3956097298897896
P 4.7031683133433395 1.0371595553189183 8.132510580066599 0.050196932569365166 0.941770662498991 0.14306517875501165
P 8.782911194581027 1.6593176969758354 12.435584436254908 -1.2121134181574542 -0.13707810793364134 -0.1571730789113035
P 6.315768253134042 7.8181682363326495 1.297114319030502 0.5986350912485174 -0.8992222476138192 -0.24376860471436082
P 1.7892149679711178 3.2469520149264692 5.867458825649446 -0.5342929775270218 -0.11096855533078306 0.579145615065338
P 6.915106114639104 4.010440197841181 5.876176878729275 0.01156559335041234 -1.1139240168692106 1.64860831629738
P 2.417320322662453 8.573075052494502 10.142909370885196 -0.16557672959396647 -0.5850455254895409 0.10730627598784745
