# total energy = -340869.8821244562 ev
CRYSTAL
PRIMVEC
9.21957171716391 0.00000000000000 0.00000000000000
0.00000000000000 9.21957171716391 0.00000000000000
0.00000000000000 0.00000000000000 13.49377513666025
PRIMCOORD
 96 1
Ni 2.254166895421952 5.509413349117208 0.2616311680459761 -1.995310007632557 0.31717102886591186 -1.2289430881202836
Ni 0.013707659531420942 0.8347972030292891 4.492171881267241 0.4717475506946327 -0.5491539537992541 0.535964965912806
Ni 5.759899898625666 4.204152454470369 8.69019424236766 -0.5080296729551186 1.5266264405752288 -0.717046733120907
Ni 0.6352773690546271 1.442531100971379 0.02857882903921082 -0.08355082543946256 -1.2482500159790115 1.113573061287695
Ni 6.3395528244122525 4.380605841457096 11.140730644039033 -0.6917655899566151 0.333990928636728 -0.5036066041867585
Ni 1.695018297586589 7.09321595062663 1.8199997364982754 0.9744182733306833 0.576104257135853 -0.7211049623506807
Ni 7.164225093558432 3.9649783197083823 0.21560890893315185 0.6419962318429717 -0.4608920960373675 0.6966779396565679
Ni 3.8131135310336672 8.765000926973523 2.9170301456199503 -0.7259031550702725 -0.4518446411231186 -0.6662970133718653
Ni 0.7840443815640489 1.4051826151213749 11.249355640406536 -0.37876334775641224 1.2526705136442104 -0.9283595312994076
Ni 8.907876633025737 6.27875896716838 7.148665222028181 2.4798937908599097 0.8896217484095774 2.203111964444322
Ni 5.060687564173847 1.4506258851175908 3.4893147895276617 0.48415903698510815 -0.35887972145860775 -2.7938619965178075
Ni 5.241898250271559 2.5559419235242316 12.210638916484939 0.07347390081943475 0.9792228938081782 0.38865181051471775
Ni 6.227157023129261 8.45478077099205 6.660999653121335 -1.2815619998675798 0.30242575223593726 -0.11278786792770898
Ni 8.336991520135559 8.436590555592877 8.23724865935628 -0.8445351404835841 -1.1075101429230667 1.0134802723291514
Ni 7.509516501125542 2.9237936235808397 4.91058740156472 -0.17470748825064103 -2.0380849367062384 0.17884413612683392
Ni 2.8762667303305873 2.2656176037472306 10.659489272846404 0.2248486278814063 1.7676833027853813 0.44430025311695737
Ni 1.533777204268711 3.5029118141960365 12.590609743831063 -0.13478931189946464 0.05170745567662063 -0.45789598952352106
Ni 4.6903373601267795 1.2676358216392194 0.6520385508061224 -0.4361693964797069 0.1621633330370433 1.2069894666673278
Ni 5.905808843839727 8.687067885529414 9.632949866714599 0.06385257567958681 0.3906243608600563 -0.4118688720611294
Ni 0.9235798367094595 2.200804013146014 8.932946492991999 -0.13653149140155196 -0.4305602778230456 -0.5829410775520283
Ni 7.805372564054851 2.2533924513806283 12.321342004363325 0.6500556118123385 0.39071666346354644 -1.979870018928403
Ni 1.3448866147612102 4.401202365127525 7.558349807716931 -0.500440547753951 0.15385712716419309 -0.8085533230723365
Ni 2.7651801082603082 4.78621168852821 2.667045140823968 -0.4125347877799025 0.40077379058923235 -1.1302271249046083
Ni 3.857837674420083 9.201556876981805 5.4318518564214955 -0.2369623804258048 -1.4439575035200873 -1.0603496831871801
P 0.24168370223875094 8.345611819881238 0.6599470995995397 0.3291667677752073 1.2795020320147577 -0.47698591627543657
P 0.1998674118360654 4.27245104325754 0.6830522687895412 -0.24494771262412654 0.6348362237594227 -2.015495995662129
P 6.643503671487775 6.705145729348334 9.045849370730618 -0.322893790282302 0.8632005781035713 0.49742772906955623
P 3.85975534537955 4.356247732443096 0.7982185514346478 1.260625763935545 -1.1039661343255505 0.2799972480290919
P 6.441097189544799 2.274237903492912 1.6003074791615275 0.47695017794149475 -1.1385991510183875 -1.1525972650696923
P 0.24023254161846197 3.0985321701903508 3.9252179938439715 -0.03535189713673267 -0.2494098621605382 0.4393061423364757
P 6.596529952552753 0.37288650828240055 11.641687147826493 -0.2063323142447737 -0.10134311642587708 -0.2877282981247626
P 2.760035587128661 1.603772194289257 12.715495299194778 0.011238034807664518 -0.14088411194329284 0.45351071597163184
Ni 7.313665134818052 7.509110839961038 0.6833325437759248 1.343789381238918 0.5335139332691522 0.46856143965716723
Ni 7.006874659591012 0.6999747930496454 0.25360092090320796 0.5408274362114299 -1.4429061794374378 0.6871458317964166
Ni 8.588501442127194 1.5445364446999514 2.1422717168942436 -1.53054403046208 0.28948744690771433 0.32126936730500155
Ni 3.281743503394815 6.758951151076457 4.183569760157821 1.2896753730033337 -0.31348586670484074 0.2295984838615659
Ni 8.02036376166933 0.8140531662081315 10.08138892297123 0.24840816036890123 1.0196694318589987 -0.6703328740041359
Ni 1.4998768383169792 6.636515235972025 5.898858208568852 1.5255059538175404 0.9016077171268602 2.545856213793648
Ni 8.127218600228092 7.60983466319266 5.496136243594475 0.513916984973831 3.6715414849638446 0.25403579096832374
Ni -0.07897854089989532 7.0985079849090065 9.983370122141089 0.8658097335916443 -0.8709141446977453 0.3813079685551369
Ni 6.785973716375485 6.114180388815276 6.83092650514553 -2.618209627855394 -0.7068137425389892 0.7055790988009397
Ni 2.360016800641379 8.940523137196278 11.183519599279334 -1.4078797839609236 -0.6380781277354881 0.21343910049288403
Ni 3.229634482900067 3.3016301200273643 8.5348665824796 0.784362841869062 -1.3552359325129628 0.07863384775381942
Ni 7.075394518104276 0.1612890350918646 3.6153334302804065 0.03483947627668839 -0.1604466074562527 0.07928613662583765
Ni 0.8885297901392395 4.250646755665524 9.964964168758973 0.786574247698084 0.8920648106334315 0.20070108410092533
Ni 3.0310356841602646 8.901994546140449 0.39926370354699253 -1.2891228429339734 -0.38469976784550525 -0.3705553580243231
Ni 2.2258628096259723 2.1653824178273973 4.123144685790768 -0.6673228835332184 -0.18123860450093948 2.180530993820012
Ni 0.162263543843863 6.730370478122862 12.760942257019762 0.6228592539032046 -1.3538763331612749 -0.034358165764895664
Ni 5.363080303594801 2.2147532254617524 9.69306424150793 -0.4217637625773381 -0.9935074287516503 0.6496977142522875
Ni 4.257681289040876 7.167719311316308 10.482220875701902 0.5302455469305255 -0.1659613666268948 -0.3969618730423099
Ni 4.479080089140111 1.1110045142815985 7.348453345545729 -1.730510036169194 -0.34611033760808135 1.262645365468735
Ni 3.056444824373202 5.544521478990527 8.859891527051033 -0.20867844587944706 1.8923434966706443 0.2197892110806279
Ni 1.4758875121798005 0.4308683960905162 2.3336405273339786 0.050070434293829895 -0.7547398767963066 0.023092877263721518
Ni 5.737265849560802 2.8650741700190827 6.692980504199216 1.2479435404821861 1.4617122564003473 -0.49656846639305446
Ni 8.494332734531058 4.721361219639311 11.74746514038494 1.5166603305014523 -0.23438227840345444 0.3734151960706214
Ni 4.427219997087217 0.5015871225068226 11.507572800970346 0.9519699716294959 -0.1657363951002823 -0.43147173389372145
P 4.164157951479177 4.251485736710291 10.341818780795963 0.41807654353373797 0.24730747110555473 0.7192964483870322
P 1.449750025785142 7.2917041145033865 8.192152045264276 -0.511589365281919 -2.2115467254752366 -0.7273013209693797
P 3.130690037049105 7.348312286095346 12.31889973976158 0.10617113394213973 -1.1402587981089976 1.2702992824695671
P 3.0751421162280055 2.8782397187215776 6.486511878868062 -1.207783423323533 -0.362669270408027 -1.009233067017023
P 5.809040216962008 0.9879785465742533 5.350997132635776 0.9838369955414218 0.4053169298752245 1.3280475450236289
P 8.552351500626855 0.30101072559006964 6.580307193801416 0.712587926018605 2.253294241725668 -1.4920523021447853
P 6.45042739632836 5.910197360073893 13.102267404746664 -0.6572315607354875 -1.1162426377000583 -1.6920530177445763
P 1.7321086354228188 8.22988775313494 4.430788893377648 -0.769874675555216 2.247332624825594 -0.5322070415322705
Ni 4.32692027416394 5.356654261966203 12.392818579591498 0.909753486162446 0.04999150142677842 -0.0901081669420061
Ni 7.219063107341653 6.893556901115968 11.433842962364798 -0.48005247101590226 0.5934712876593908 -1.1423236510578263
Ni 1.369917752525407 9.127929375624577 9.077802563092739 -0.3605920761640241 0.8982655401275046 0.8115080348252864
Ni 6.091057702438626 4.861268223533118 4.99182012779918 0.04945388375575354 0.7196972833698766 0.619964448853913
Ni 3.86477079250431 5.0662838443295986 6.718294682821372 0.2798941467923244 -0.6753735217518368 -0.47418392805026716
Ni 3.517192931100914 8.059491624899993 8.17322057628269 0.5347542334341564 -0.1331260652644288 -0.5502785543220007
Ni 6.2251748151663495 3.6544354787096927 3.015912820339044 0.31166501144601805 0.6384987602126745 0.7971167991006208
Ni 1.9435410782759774 0.4804789125948047 6.789298294010022 0.510132064010102 -1.9050555449206739 0.09593685780864122
Ni 8.835779580607312 4.768768258454597 5.474870379002615 1.251042234012168 -1.3402615705913175 0.0228175121151478
Ni 1.2867018963708432 2.96662775472355 2.0139869053634367 0.3913303857881454 0.32924904307636843 -0.5484448435473716
Ni 8.708807636117987 4.957133332362629 2.6312999385309412 -0.7512719728523642 -1.3876032931000748 -0.8903015480854216
Ni 7.972790770559474 5.079836615052756 8.780507324986635 0.5430265007452777 -1.4289872553635001 2.0847628003787513
Ni 9.095485702036285 8.014601529219007 2.7099816092149958 -2.9974558287854958 0.33900920778692584 1.898052117019647
Ni 5.7788737776380845 7.285831247190019 3.673842677602375 -0.0442689971207044 -0.9048658190528416 0.8641503436113503
Ni 2.345237826852794 5.716936693476069 11.048689813642154 -0.882642488878267 0.05068724194222239 1.082965106593851
Ni 5.2327893132140915 7.930878596608816 12.875976699786404 0.5477221064487341 -0.3153203488104182 0.37021211575229146
Ni 4.001450946225937 6.796889689529374 1.3094281411549114 0.5777039975228051 -0.20031259041325503 0.32115495321432436
Ni 2.0826551989846207 4.611648313785189 4.816698046997776 0.6777705612291037 -2.6644897418688567 2.03362124450793
Ni 0.7917261288882216 2.234344815792846 6.446921193126988 -1.9917595712771377 2.3819270471054335 -0.8335698997213321
Ni 6.0616288288683435 5.541857022705498 1.6430023947682384 -0.2015616323290077 0.5046507291805566 1.1635061986727122
Ni 4.338970254664052 3.027799614416163 4.7877670303112 -0.1552835751980745 2.386907273928844 0.46333850069533106
Ni 8.753089240052217 8.76945398021113 11.94606670499632 -0.5400717889923279 0.4957739955162172 0.7930819669096147
Ni 6.737460328929738 1.1738543360637457 7.970840831098285 1.9240130598597833 0.048941462895709255 -0.21794213056956016
Ni 0.990716759434646 6.205251320246118 3.8098055486285864 -1.0771510710152352 0.6574279930170097 -1.1119463243175494
P 7.976985675783308 6.157705987852025 4.225413709276268 -2.285521734300806 -0.5068523648175658 -3.097691571079807
P 4.459423961805574 7.000162811232877 6.074641332676958 0.8943487215716016 0.9576886192808282 0.4646353651298837
P 3.5389050229737253 0.7667198839682101 9.382491897879094 0.7672241253062463 -1.2719679284212417 -1.0103311851772083
P 5.6509706563847875 8.372182626156162 1.8011623071502803 0.11661418365233465 0.4453973428358781 -0.6034003738476447
P 4.661268049861398 5.178928574054446 3.4408456560271334 0.6267567891853979 0.1868945172351362 -0.2552537225358249
P 8.000440266749097 3.655569486055916 7.160040329863711 -0.5678214483017705 -0.8561698965090352 -0.6962246541692332
P 3.1656967516312986 1.6557982386367203 2.3868199401286985 1.506183599339845 0.3766992661385319 -1.8554957317146754
P 8.327735069927362 3.110923274851522 9.828434294059651 -0.9289010056251744 -0.8366955898345074 1.7362237987245195
