# total energy = -340863.01801015425 ev
CRYSTAL
PRIMVEC
9.29866546945103 0.00000000000000 0.00000000000000

0.00000000000000 9.29866546945103 0.00000000000000

0.00000000000000 0.00000000000000 13.60953683805205

PRIMCOORD
 96 1
Ni 6.973794473332166 2.5738612818294273 3.6570590938728134 -0.051813385126865605 -0.034980886950559106 1.140143869797688
Ni 3.380948243190079 0.3232457855545852 4.51535845487969 2.1218144538154102 2.2498265948920415 -1.2321127440975168
Ni 6.083493755378854 0.08916490244351453 3.861638101294809 -0.3496234929676624 1.1275603767057225 -0.18927844408628047
Ni 7.814114864803686 1.2010063233602974 12.592318694317939 0.6630975325979612 -1.4322949795804945 -0.367779852161715
Ni 5.1695558299991795 8.684442049495065 6.398700844702089 0.5177687546197535 -0.5502973233750781 -1.4369715591205576
Ni 8.280647504849156 8.172931764948679 6.9656600008472775 0.2728819771405494 -0.6158843652472683 -0.4216727455254286
Ni 2.925062575018404 3.6333698139202535 6.446116599268777 -1.1008327309028914 -2.9380890567914046 -0.39810909927287563
Ni 1.6266527316773147 7.402425753240002 7.752482380719228 -1.9668257841499355 1.0032894478390786 -0.26013779010100363
Ni 5.808420635753863 6.256448931669331 9.874685167664166 -1.760528179797839 -2.5511706840280257 1.5452841648857323
Ni 4.862374418775746 5.425882840193977 7.527366340912548 2.7425412347566445 -0.08870922971195044 -0.24759414910803812
Ni 2.8754820911484678 7.864699604535954 5.600678222365522 -0.6519106627432063 -0.8289681392832627 0.6894819361287609
Ni 4.778388872955553 2.8617851570261092 2.991552681903622 -1.0027687994489183 0.7297484969582916 0.5646939584163824
Ni 3.252617362115624 3.0706796750565144 12.782389923995398 1.1842375176827926 0.7127594185994628 -0.49886548995734736
Ni 0.5465578842752259 7.88749063341165 4.7843102630771535 -0.931497305597441 -0.9017388433880857 2.4164595336646637
Ni 5.390296847738942 1.991848516281193 12.582139445313361 0.7907276077448252 -0.044727424814361684 0.10510412613020609
Ni 1.8389877559027452 8.374145585365325 10.137417098580947 0.7656259275811911 1.5015147331092655 -1.0731509487169066
Ni 2.116069387252401 5.314717295433082 12.197533626570301 0.5286938861726894 -1.0736769964237056 0.793072196717602
Ni 7.036393088750847 0.9816787027601122 1.6687877741679078 0.010742840338800852 -0.0896091158184005 -0.49888117368663115
Ni 6.772320290284546 8.746278174351605 10.034773780651786 0.3609862262786493 0.12632601162345986 0.9417130697881783
Ni 3.7121574057863396 7.2183772691369175 8.395165218483852 0.8296970470294872 0.6589999654898199 -0.1746210991844218
Ni 0.4589467888187081 5.623916517046572 4.028817876510338 0.09533110590384228 -1.9573029322611648 1.075230714064071
Ni 7.198654799840567 0.8632918144558208 8.12011627538888 1.3106990264428524 -0.5079024033486349 -0.5204740693660584
Ni 8.98712290666879 6.808622279974761 2.176736669869172 -0.4007542502052066 -1.5399118448302254 -0.3701195560384851
Ni 2.703540469385716 5.079581943666564 8.188245736982699 -1.358533372317312 -0.013727119778105392 2.0959429853652867
P 6.036200743195341 6.417966749527694 13.536916179227989 0.2771656921175678 -0.6040225808126759 -0.8582517187387284
P 4.27072823588144 2.373837690582953 0.9022104485873346 0.5363298054513924 0.5230459438582928 1.1495044850769816
P 8.633522557808686 8.683354105644206 3.1709815890399806 -1.1089147365800773 -0.3020552562703959 1.1750471094327763
P 7.590946895396621 5.707186065631583 9.00860189385768 1.5879670484662394 0.007445657644767822 -0.5150487845854291
P 5.636014080721513 -0.059758803007976896 11.736319823129033 -0.5636122953164294 1.1091433076511157 1.1451091842227634
P 4.571428477326676 3.5695902679967926 8.354730901893449 -1.6695332393755054 -1.120448705361606 0.7796788061298314
P 8.923650216703264 8.3065070933042 11.372808956694179 -0.1867803602547751 0.41617444141501875 0.40876992142083146
P 2.1241778234741906 8.08573817956826 0.7883324831316052 -1.7260867102905173 -1.883579377324769 0.8857316693265519
Ni 3.281545510150015 5.65283536641557 5.937936166799253 1.1054725436677477 1.818086952048914 -2.0423519395127085
Ni 3.9991607131092173 5.625283420859191 0.6573607810858337 0.2876899886876594 -1.3767398680230096 1.2123633293847313
Ni 2.7716624920472226 0.8370193652573741 6.758155633292971 -0.05111533061857649 -1.3877416184501519 0.0715363174770897
Ni 0.9751789356511313 4.124683397235299 9.975041943773446 2.0679791531625096 -1.0290490733016857 -0.7030930991542924
Ni 6.831236634208011 4.206539548680732 10.665698456028274 0.3766087633072546 -0.3542291100604738 1.4634163835756473
Ni 8.923538632718559 7.911620670103789 9.263126822699515 -0.652738043740508 0.06751485502252244 -0.8477950421817786
Ni 2.580816683542614 1.800351801199147 2.380063147062871 0.2901641612597648 -0.16836843340649066 1.514489805212695
Ni 9.061568021796829 8.87655247649298 1.1147314461206044 0.5101243507006182 1.2870297078503705 -1.085184739952989
Ni 1.1544293084119646 1.193251236423402 5.082671890176313 -0.4073599284471823 0.38778020654304185 0.05096697796617029
Ni 5.117678575777429 5.114126485597699 12.171770744235335 -0.31935775210458545 -0.1736134838555139 -0.33639079632747226
Ni 0.08019819940604649 4.72384290176631 0.44713748377091755 -1.428398986960198 1.9193529353799526 0.7529830420062
Ni 0.26625984456649116 5.1302317740565755 7.982496957454395 -1.412229062068555 0.6849675931981751 1.0831630815372701
Ni 4.946220484615058 3.3706174259396096 5.556461208693669 0.18401719568734115 1.5785809792656489 -0.33591051425694407
Ni 7.3382184687085115 6.449786782498985 11.646048379503876 0.10511338210158672 1.2588887266397804 0.6407549032367029
Ni 2.1292362974474175 6.719020340257825 2.81398908704489 1.7111326600838466 -2.579587287497506 -1.9429147818602925
Ni 8.990674996848519 4.798362406217485 11.607437531196837 -1.5763546610382917 -1.2984693171458799 2.2376840459922365
Ni 1.7988640147364332 8.6789651355792 3.1971796489152915 -0.22939588093245658 4.339849101007836 -1.7698697689137393
Ni 6.443324210051572 7.448045005652964 8.208237867575416 -0.0030071622574399824 0.4902522943670395 -2.98820294272866
Ni 6.951617156372338 8.402264749510614 13.380501468936734 -0.34655590978593215 0.20574995937874244 -0.6834187606538166
Ni 1.0815928623967337 3.0940193251903363 12.987676559853723 -1.5454222331254932 -1.4969016598172864 -1.2234722948136993
Ni 0.5420312939624192 3.665468806853303 6.213188750666309 1.3102755657521885 1.934707563459152 -0.2711966190183265
Ni 8.35724061168274 5.960388724254682 5.956812457544935 -0.6725890170281642 -0.7002885398259616 0.5923140341264961
Ni 2.5314872636382604 2.397512092670886 8.321768992812025 -0.20612816865376757 0.6931259606392515 2.2471048250855046
Ni 0.9970958899799837 0.4578811617647894 12.302695023087608 -0.29471912762029895 -0.10625032391950734 1.0693981665426937
P 6.044299880751739 6.41780867221603 6.0675939674251405 0.8877702970231356 1.0185715708091296 -0.7869072055574705
P 9.030863828672572 2.9391128584256574 4.582507837141198 -1.2598575183109528 -0.06681062986664622 -1.72352769131409
P 0.6008472122996512 9.498679684542132 7.190108396478816 0.5545838665655739 0.4448489265315758 0.11814039048887394
P 0.801299472020695 1.5335916884345684 0.8492387414489501 0.27729039062089017 0.11596369455252932 0.5231109927682733
P 3.0398267032859874 6.249447036629184 10.365485464649575 -0.4827824683525556 -0.4293868263402347 -0.20174315221219452
P 8.441319144156852 3.021796591090975 9.765645297811876 0.09678120808680753 -0.8873987726163298 -0.1738428262575006
P 2.5678636426516124 2.667424453003339 10.545675932481538 -1.2961530103078773 -1.618640052070064 0.7879451599036816
P 7.436830815190258 5.00061767715803 2.193830406459214 0.9070270883702186 0.9989350275251248 0.8234580080983109
Ni 0.7841425045059875 6.47821280260221 10.707792584391143 0.06641236598696305 -0.02774631687533286 -0.5870962373709824
Ni 2.5280188614470593 7.697760664754077 12.234360990855162 -0.5428395815454522 -0.32427395845928025 0.3436261377336469
Ni 3.1728348130525985 0.575843101060668 0.5578808691230169 0.2823284672654299 0.2365540892437926 -1.1937287450026797
Ni 6.425396383175871 4.827746188856082 4.322171242429386 -0.17268017340796712 1.531529534303801 -0.8714481628243443
Ni 0.9908192908404099 3.405003890559082 2.383533408987151 -1.5142056983133727 0.6883935881605886 -0.5883452792867351
Ni 8.041867076248987 0.26291697435808115 5.196869729721525 -0.0625780798425374 1.659211288624207 -0.36667582046425884
Ni 4.53488472233627 3.3576922810447845 10.681091466718126 -0.8064717579529594 1.3566019596225538 -0.5549924148579023
Ni 4.224160519598499 7.791370329254949 13.737738525831633 1.7732240300979527 1.0055353064504617 -0.184740704116927
Ni 6.691979821298002 3.352271159121271 8.47973472049066 0.9041389681891461 0.8804938179663804 -1.3415972586836058
Ni 6.545014414778057 7.281468713821373 1.788184497533766 0.8192393420312729 -1.0144963722984917 1.166759158392371
Ni 2.6175743078370357 4.496016300997872 3.3483266652620007 1.67995572026041 0.4390582879917277 0.6444418651699869
Ni 7.284890622685614 7.2355798001120455 4.311691646532646 -0.2762578355913177 0.15771172502359287 -0.3208181387001959
Ni 8.954400903154477 1.5004326476468353 3.0541429285234507 1.6667448779970908 -1.6348243751394105 -0.6562311444954312
Ni 7.378314313878647 3.4195748992282846 6.194570962818526 0.26778836466772593 -0.5066034820315534 -0.7621575094166164
Ni 5.833331760338927 1.7728277516389424 9.949619392591824 0.38926219040520704 -2.138858553781891 0.49336461474377613
Ni 8.123723227694422 3.0405612978519523 1.5900429561626248 0.10298013780866781 0.4883985289877524 -1.8860720618396358
Ni 0.012678730261938893 2.2932368589654346 7.79155537269625 -0.5195898669888923 -1.1546772875271727 1.4491459896995622
Ni 5.0839244204046095 1.6184885034631726 7.460230906649128 -1.2880087839341883 1.214632327924566 0.5202107884023428
Ni 3.2937360604788757 0.5724202623298872 11.590248948219795 1.112391382274768 1.40927203632276 -0.3236065000786104
Ni 4.6915207408638535 7.6658104504672995 3.215048894199023 -1.643150892727235 -0.31978661211188797 0.6598728550130764
Ni 6.022494510407591 3.792907016050129 1.009008410213625 -1.0753019336216385 0.2339539326167842 -1.1761809659269034
Ni 0.43139856272848426 1.3187274272225245 10.114226227093397 0.253788193733892 -0.02846134066448647 -0.1371020191930413
Ni 4.438420367560066 7.870213713113388 10.49709040580854 -0.5772555971314768 2.1278172083660647 1.0287531393278218
Ni 9.291905262221096 6.994902443771918 13.237193227515446 0.5966219174732306 0.4444943714056345 -0.8290786967191981
P 4.522443108041825 5.517586278289497 2.986381694079152 0.17215901079717447 -0.5300838245416806 -0.008194362885334273
P 4.75741108383129 9.110571988412463 8.475011928338082 0.4308037612924193 -0.27924700012662873 1.1875616969600193
P 1.2647300772914065 5.942804947998484 6.203213142433814 -0.9455198451287782 -0.02237399681982598 -0.9075094273232759
P 5.333044964920639 9.10391414399182 1.5709351286486841 -1.220352518237795 0.01297970008911958 0.3576972711147324
P 2.935151626968682 2.6932933401237746 4.510717490982563 0.35679712789796614 -1.3962527412449566 -0.3010347854256816
P 6.015650692679107 1.6710352615931447 5.580073309723476 1.9897106591679086 -2.7762113733155798 -1.3954883522751065
P 2.134378459409172 4.672914111414539 0.8516117608569785 -0.5112726053724486 -0.6216680618085809 0.2581917221182263
P 7.326809006272575 3.1586915429914257 12.782607512765571 0.03697991965845889 2.231459405238763 0.36156755270341606
