# total energy = -340872.89904242195 ev
CRYSTAL
PRIMVEC
9.24628526062785 0.00000000000000 0.00000000000000

0.00000000000000 9.24628526062785 0.00000000000000

0.00000000000000 0.00000000000000 13.53287310776699

PRIMCOORD
 96 1
Ni 0.4783353043240633 8.593765714192568 4.750783003217949 -1.0979453820527671 -1.518069295033837 -0.43702197428798933
Ni 0.16369715984829034 6.0414303620785255 11.619080922176128 -2.2753895309628103 -0.7507652084192747 -0.4067413210265769
Ni 8.572018451131289 6.053552242126712 6.799754281288296 0.2435778288597934 0.23609309044697402 -0.07650240323311341
Ni 4.096418768320754 2.8959827921376275 5.445830893501889 -0.1344563540400781 -2.1665971573477396 1.4735208189995008
Ni 4.275916905144137 0.6183573506228625 2.556359335483204 -0.1766144754653668 -2.167451277817919 0.17127480842000825
Ni 9.121793329685945 4.273281713829314 13.56575777191916 0.6726116427359835 1.3777595675367755 -0.41852520103538243
Ni 5.563351179857692 3.6211227179797865 7.321419527856306 -0.8454936477421116 1.0622751823446674 0.5216930293748242
Ni 7.406912531137425 1.9125941174427876 7.758558932587164 1.0005350250223928 0.10567645369390832 0.8534650959833625
Ni 2.043540010076216 0.6843416165175057 12.668920800174027 1.6261880396206512 0.35297826837250823 -0.0205809094751452
Ni 8.170332078184385 2.1093643152349073 -0.07451211484082403 -0.41117415998694995 -0.8731543468821736 0.12094494981720459
Ni 2.4073628446575013 2.2512300708255513 3.3540012337386695 0.08502843842625356 -0.5038439170085453 -1.270748968412476
Ni 1.4231604968549263 1.4192030867400338 5.3512497163844905 -0.8885637394587084 -1.733975369009975 -0.04916000666441856
Ni 5.2639009836406165 7.960395170103465 4.195867190028058 0.5689097962699428 -0.6406212058723161 -0.09792483477294749
Ni 3.304761065921266 3.931122925741471 10.746034642546924 0.854516162955696 -0.32010260069040997 0.3490192837247602
Ni 7.447022916834629 5.53267200518196 1.311241610143053 0.39238402386364035 -0.999737211711446 -0.44453268084273767
Ni 7.441373436507061 3.767214025959463 11.845472519603922 0.3760225517864814 0.4680276786408843 -1.4417126733499686
Ni 0.12935275767362517 9.202587370769896 0.14033087222832577 -0.4250383195635518 -1.2567374846247323 -0.16916033318016674
Ni 5.522972651886348 5.34053419633274 10.032135425762416 -0.25500509686012857 1.1574821039658194 -0.4343153739901036
Ni 2.170879851436729 4.490745098156783 1.4470972802788369 1.053774601072824 -1.9130215938452861 -0.3202995471925645
Ni 8.601310683009745 0.7909540600870033 2.1223470244459364 1.8245807873033737 -1.2686851439049118 -0.4280907332366305
Ni 4.455599967673823 9.45220008913821 13.292826846614522 0.0007093673621987783 -0.9459494764670289 1.5154035752762158
Ni 5.092169726481976 1.4977410342070825 7.293460610320297 -1.3227189337218639 -0.8379459173018408 -0.14222468513158731
Ni 3.2413592875151496 4.437440263314831 3.5773202905562345 1.5010825306678535 1.328503144503809 0.09764587007994796
Ni 8.46729502365168 8.846762572986231 9.21696904294911 -3.1419271438594145 -0.23141136870058854 0.21813650596855333
P 8.398068085497007 0.8596696786637477 6.098115638831703 0.7208771626105908 -0.1395571656017532 -0.6523806604010894
P 6.137175646517105 0.4748956861868203 8.913684412211833 2.4385936465595424 0.6608786705697715 0.8296708217772422
P 2.897157070372654 2.856454922415278 12.71941199039457 -1.2360537310231359 0.0317945188027775 -0.4164819453531085
P 8.475422508443714 3.453598520639548 9.748378024982244 -0.12336178678881336 -0.8193370439514019 0.2767512302879685
P 9.452477477697663 6.407204162861311 3.9737658689865003 -0.8184592693321389 0.43486764694914787 0.25806599517363943
P 7.962457091728747 6.682216426990394 9.851363150822602 -0.49724132409036303 0.41484800929411136 0.23157797618543988
P 3.6564250353131036 6.333317096907792 4.917684000927945 1.070160241519699 0.4965247576393127 -0.1417467170539043
P 1.4653143116067837 0.29394680719748695 3.086943548866226 0.07474788243585191 0.11733923474381727 -0.5636701451375583
Ni 0.657861180003392 6.088854559460029 1.8026594835595495 -2.9233136982544425 0.5602307804387062 -0.23634865810120584
Ni 5.4586462449487145 4.4249762707099825 4.663928946738436 0.11159333339897556 1.9135538121996722 -0.611630732177237
Ni 8.97604413426293 2.3466794741340444 3.8216154702397938 0.8666795377911073 -2.723068470744013 0.8774614588979598
Ni 2.013489582801916 5.898889627659874 10.177491654059537 0.4722674277538447 0.6401607212961298 -0.4594301667798604
Ni 7.228829075967262 4.875113178708374 8.521947966892583 1.2857976352154825 0.48356151261042524 -0.02446533213121593
Ni 1.3251868576553916 8.350338760700103 9.514042943840188 2.422780333676369 -0.1485675966304796 1.0277709779202104
Ni 5.006918975876114 5.78491066857978 0.12677027018509834 0.036556973188427364 -1.4233994768630778 1.4083888623868581
Ni 2.337858517943373 7.222578587094207 3.0332041386144617 -0.3394300973744283 -1.1809588469315209 2.2068464917860897
Ni 5.969854867453799 3.0206134719007953 9.670645428966147 -0.2915232463908205 -0.8313255837718457 0.5090776546036588
Ni 2.4590865647105593 1.5364829696776423 10.42979873996869 0.7188732448066845 -0.023281853346076034 -1.0059829355108418
Ni 5.6209925225124575 8.412630984868398 10.858385330783015 2.5276062664445242 -2.263014040116593 -0.4666683363995125
Ni 9.040102398926424 3.2710860948034193 6.218314574043309 -0.27258938560079504 0.18988445310139554 -0.1906634973592652
Ni 5.420921400862824 5.8861667390662005 6.581564138935055 -0.46641302585559674 1.483378428519871 -0.16722634938224748
Ni 3.709729870155055 2.112998105363769 1.0236682674133124 -0.34244085917629413 1.770581707379099 -0.4409945857824921
Ni 0.7123218005097398 2.688810523365942 11.689533917763592 -0.4218637784903122 0.26045352156920953 -0.11125986131895677
Ni 3.1208616972878622 8.878264667055014 4.552701682168138 -0.7015334679766563 0.25783690988196883 0.9370272342767346
Ni 1.5923952569784718 5.994634912098453 5.643208572239216 -0.7165409971290821 -0.44626509015281207 -0.8584442943655087
Ni 1.1371728920567372 2.3562216405792995 0.7396704632149478 0.5671411344052942 -0.5451515175080804 0.6510732544435754
Ni 7.290289134457193 0.5978564868220688 3.9772840805489222 -1.1684388600876392 -1.2565891319723264 0.21481644045638487
Ni 2.120598551892838 5.091430023656762 12.498772507061343 0.7565959561684389 -1.5900961789941002 0.6467172914677249
Ni 7.651328837158612 4.054912193540958 3.7957277206143822 -1.486943005942678 2.242692297840105 -0.3744873460888776
Ni 3.186954144720693 4.646757670279635 7.074404091033023 0.1809051324209207 0.5488361654485193 0.4916360620884436
Ni 4.128512624649707 9.312488718026 9.018590916140683 -2.4076193096652148 -1.2148614132162368 0.7580820537956621
Ni 1.9136112088274562 2.461425874895297 7.234200243106844 2.198304001532717 0.2745902180809077 1.8196285855044212
P 4.413640324913585 6.356580750760759 8.46341805621903 -0.9404331746344902 0.17352555212739793 -0.7086312553637022
P 2.157444998873788 3.4460443055370544 5.316321873606438 -2.1660705954203086 1.3122236906174949 -0.16724049044963457
P 5.194627814059367 4.1000155733083545 1.9456347933880138 -0.028931338322369528 -0.27270559946368517 -0.5104758205027661
P 3.695213202210239 3.0519953642604802 8.801699876874222 -0.07503327488675464 -0.16424644081831713 -1.0386840252882885
P 3.487070073480461 8.529744434670334 11.37362163517139 -1.2492764003609969 0.9996860467585365 -0.5871846833197306
P 0.43295361136868044 0.4143473114289651 11.267077614113223 -0.24055935374844378 0.42809818943579825 -1.2004228691934036
P 2.2871333967043537 0.3092697512217856 7.819740677889108 -0.01695591112804822 0.7695206346499069 0.1125847507779674
P 8.452010914025704 6.860420083869653 -0.0074830187055665845 0.7968463190480535 0.2222219888918366 -0.5351401560186655
Ni 6.412419067779067 7.8251220159425365 0.12552109703901898 -0.1918518612404115 0.5684279715375178 0.665856326290021
Ni 2.768901846765939 7.427929337658805 7.07370044872054 0.7491217592785809 0.04445437365863312 0.9175511278299939
Ni 7.098946506145078 8.210072612468984 5.78206928510243 1.0681637799149604 1.0403639840938728 1.404601370319968
Ni 0.5785807558255353 1.680623311455818 8.988574700122047 -1.2359534579998457 -0.209910004293703 0.35529148988671716
Ni 7.140471573495503 6.272957346370366 4.750958682638937 0.743959241241035 -0.8639107167967185 -0.4925390335186872
Ni 1.1454113322725532 4.187291260398238 8.652310418922625 -0.5379614275175445 -2.5556767994284955 1.666849779006071
Ni 7.857779895675715 7.507123771383231 2.7996133834402745 0.026999411406979305 0.6286390938097753 -0.17356437578513334
Ni 7.620067146508025 1.457704618792399 10.822928600484934 0.1351667498435414 -0.18123989005252011 -0.3451921966691861
Ni 5.926138430483678 2.976009391540418 13.532412893187065 -1.1623070361582886 0.7087099311204376 -0.3083058651657981
Ni 4.710686486948717 1.043591238381908 11.195258942184706 0.1527896051316272 4.087953239200651 -0.004002693401489881
Ni 5.83588543952231 6.019692345302563 2.7283494886306694 -1.0882533515759838 -0.39820705830332065 0.8494318064542532
Ni 6.853161749897245 2.196954376025507 2.014300482024056 -0.5891171244557531 0.5609218929684598 0.357712440623384
Ni 4.239745436991194 6.612869287126624 11.71061729753924 -0.6015471226889898 -1.1573880015901166 -0.5087290130149884
Ni 6.252134711840605 7.585310360008303 8.512312412965645 1.4035605877602795 -1.4208054908836563 0.9321143703561495
Ni 2.307706381530606 8.531159116323556 1.1659325379010401 -0.9076670359470627 2.667302528727303 -0.6609025818291714
Ni 0.9014314509182416 4.310608967646652 3.7111334562658977 -0.24615998776467285 1.2160803732250025 -0.06610666182108615
Ni 6.926031724466095 6.248898511980296 11.829436686981825 -0.48106599988208115 -0.7093851028105912 -0.07473014182403905
Ni 4.3249407098851655 7.5911447660421745 1.8394421311718248 0.7107166771378212 -0.6532342666506362 -1.2297411585415465
Ni 7.998203230757191 8.39057859439172 11.85368691947792 0.059975352112367666 0.2516204966586118 -0.1785777698393247
Ni 5.007187118150253 2.500121578939281 3.38664247015828 0.3121380944276947 0.8749572044188673 0.21421325965474722
Ni 6.64130161447077 2.354122733812756 5.3332508973899815 0.31393555264774964 -0.029143454333175615 0.6087032741177969
Ni 1.8321236963448682 7.33110223783835 12.338191345364265 0.9481657673920574 2.4951951971036705 0.08456615407785437
Ni 4.962481328651409 8.369127212460526 6.849568643423771 -0.7376389554499618 0.3010640960017202 -1.3576977637898942
Ni 0.5585699451464456 8.484567084620416 7.192059373154429 -1.213548093721452 -0.16945266760960495 -0.6790921082540046
P 2.471495079603516 6.485908543464033 0.8018350886458946 1.9225197631437085 -0.3060348097434342 -1.1613035345944387
P 7.098308512458331 4.476357878206379 6.148728880018409 1.4259343274697893 0.05983265588691631 -0.2725017109829952
P 4.92234320409826 0.6966706133567525 5.186067603114583 0.7376068166604458 0.5432866963851998 -0.08659552580305732
P 6.548801776177815 0.765906797796741 12.791095666557485 -0.06957996508166726 -0.07020937113555005 -0.7172776181847905
P 5.284418490754977 4.364856923590751 11.867558196707737 0.1591525712351775 -0.060285684263934894 0.962061037316911
P 8.764387417113388 3.464379689317035 2.021270331894631 0.11209521273605857 0.0012225595531914428 -1.402869989451158
P 6.171525596462959 8.814853642363582 2.1022640927413887 0.2659903922270387 0.3101663154133045 0.6854136795966583
P 1.2123451916690644 6.033450817851533 7.966991470047306 0.2737666937383479 2.8190932602807703 -0.9357146861128981
