# total energy = -340889.6969883282 ev
CRYSTAL
PRIMVEC
9.09025181691657 0.00000000000000 0.00000000000000

0.00000000000000 9.09025181691657 0.00000000000000

0.00000000000000 0.00000000000000 13.30450239078912

PRIMCOORD
 96 1
Ni 5.768928188810934 2.548333861201666 11.424256412472598 1.8229921026600153 -2.0464551630478045 0.2482150705214886
Ni 4.795816755637152 0.18768006149216104 5.984538048326696 -1.7097278093165198 0.3576090822763003 0.8680975011845566
Ni 2.849539347780024 1.4047711203824707 4.650429089687645 -0.3834072742863268 -0.22103953854796127 0.6273229461015132
Ni 3.188523919984447 3.9916203775893426 4.7079712913049585 0.6217541937644842 0.7189210673254844 0.04777443917080159
Ni 5.085259456652438 4.401754349022641 2.6188451247686197 1.384658351539138 1.3466163091647516 0.3900821152033411
Ni 7.498548540168633 6.447960892656318 2.355495990954878 -1.2204759311895368 -2.3117277032722123 -0.31859310602441904
Ni 5.066578989626076 4.593458664895616 11.107649312617955 -1.0822536823491231 2.4193489393973175 0.03439544676073431
Ni 5.6993332226046896 7.973795983772169 12.340471051892264 0.06508670519700403 -0.17418683986048064 0.6864997135719855
Ni 1.9662396003582927 6.4866762741966 0.46834885166859297 -0.9160398333917901 -1.1200820660508064 -1.5670896907965979
Ni 2.628609873031256 1.5285348958393694 0.5549916757148571 -1.195578910837541 0.9036687134209468 -1.9767080762606537
Ni 0.6561643579095097 8.870494762043954 4.980593390770083 -0.2921374829360517 0.15691519726422654 -0.4206754146091658
Ni 8.52226540396809 2.438414538922942 1.6936893138807632 0.6861191903041152 0.14340482148261754 -1.0679925444444187
Ni 6.787554511717562 0.6404254962990744 4.852085413006099 1.0229851264957932 0.1367639191273322 -1.1551745388785655
Ni 0.74628056708997 7.122603004981636 2.7216749598289196 0.34940623475053373 0.4737108450685906 -1.2280174909822203
Ni 7.6557462609895035 3.7300211172075106 3.779649345786794 -0.4437227833469326 -0.4864856282357557 0.36925052316997053
Ni 7.7212960652362685 3.818914687548533 12.51889814628655 0.032798020366627385 -0.05371111637021072 -0.2080878634832997
Ni 7.841114671501225 8.993913107940267 6.975523643210422 1.5744093643864627 -0.0015110373278877202 0.7727041745842111
Ni 6.754129656605183 0.8159146213780701 0.19316511930418404 -0.5644749004270407 1.0942825884891993 0.3879570984405383
Ni 2.0990754469063404 6.481912982361166 9.233976653269954 -0.7347454359522507 1.1382767346819622 -0.2628510752671086
Ni 9.280510560206524 4.914953593032535 1.3385795443731459 -0.5533307108847633 -0.337947856401947 -0.5830151253230733
Ni 6.4992935434095385 2.029571383216039 7.207102347701955 -0.9077534250132819 -0.15266259263545967 -0.8766057957658838
Ni 3.450450429423675 4.5366900436889805 0.5139355543890338 -0.33032916351442465 -0.7874396810221729 -0.34215649516665586
Ni 6.30716198571163 5.6307836353317935 4.645613074392966 -1.0826239212043482 -0.6271763932213198 0.3017994315058479
Ni 5.186843018219156 3.2156492307419486 9.03853351691623 0.9771775812433751 -0.6719177019927525 0.23766583425073262
P 9.171518443590424 5.644019041653149 12.289594731769078 0.30250622776488545 -0.6034633658750962 1.0026757255144796
P 3.996165503386511 6.08086017227061 12.505140959523679 -0.5583610742198191 1.607641386966715 -0.8340710077274668
P 2.094875750669756 8.374257927509094 1.187358663975552 0.21319767390603928 1.1805942645032506 1.479477036582936
P 6.435852677532661 7.787391284578693 5.913891340010986 -0.43339029107267296 -0.6872461048197067 -0.7457736687419544
P 4.581323179017176 1.3314673315257364 12.85920080497215 0.2796861445465764 -1.7444222753749117 -0.4758435751408773
P 4.198269067083407 6.129302123016832 8.304297533188755 0.028031709326235596 0.7598275757318592 -0.9728843531846599
P 4.811715605675648 1.107092651422715 3.821052714723521 -0.11990185326467091 -1.5046962161610407 -0.8343042067841955
P -0.045753054324617244 5.2790818011468925 3.526837631621208 1.3581201960392932 0.7697152671592163 1.121411069274875
Ni 1.3590835158693326 0.9362231922039616 2.595149565937661 0.5104035725039339 -0.5115556838305061 0.24311580162171034
Ni 1.7621089105558598 6.266628553852482 4.681827727719644 0.32134881439268526 -0.1790559950273239 1.3172841358595377
Ni 6.282172884078798 5.480903567044365 8.95117619909465 -1.009608448078571 1.7680273163883617 0.20322565029499193
Ni 8.953434217590683 2.445795823217544 10.306013658444268 -0.7130890340247397 -0.3824477385865349 1.1486984442359185
Ni 2.4442413901949123 5.09991294222251 7.005991439479161 -0.33209242606243455 0.5798845501138916 -0.14987294570546444
Ni 0.8817953107828684 0.14164611839327879 9.440009932731083 -0.4001528691757818 0.46786415647982654 -0.136293664359133
Ni 1.4396958670079134 0.864888351842561 11.771756732370596 -0.14305720833521168 0.5169951096785226 -0.12003786462190297
Ni 4.088449737572221 6.942588752658979 1.544905529935611 0.6940777830295595 0.14201925398900056 -0.1584534882856239
Ni 5.799789592973708 8.160309765984776 8.169323659465721 -0.23248506138074157 -0.5822741333919907 0.12747040964054823
Ni 5.23866654255847 2.6922870854495877 5.119798776610282 -0.4062808364503906 0.6164129840572288 -0.020248208726074805
Ni 1.0558872641918144 7.953079300388675 7.453833592576089 -2.1394601919216316 -2.087255742003934 0.5091833269435877
Ni 4.904536164705424 4.621983874398645 6.734100196242221 0.7216675197223701 0.35233574969250286 0.46685062761364754
Ni 8.5039485470055 7.197024894784474 9.313789971293394 -0.6800048498762611 0.5077157412591257 -0.007066934149110409
Ni 4.790835297763456 0.39381151567050743 10.588853200701427 -1.0020578894248224 0.7320486058463779 -0.22614574942627505
Ni 8.187589611019382 6.932653107666368 4.808685824819256 1.0947551572502436 1.0138584816041765 -0.3071902635041161
Ni 7.658382433951862 6.320897355870674 7.119372329565008 -0.6950833414759384 0.028213743430054637 -0.4534243269054126
Ni 2.457904038341201 5.1072215045043565 2.568115157696103 -0.7125943537765081 0.2162086928182212 0.6870471014350232
Ni 2.2092129352233276 5.313261147141601 11.458822094160064 0.08066450503060302 0.06381632312501268 0.2721535836149571
Ni 1.0680500208250374 3.036307657037273 3.737514211596723 0.04542059422664436 1.4927518993149713 0.5004420904158479
Ni 3.7108406863434595 2.668143377215028 2.4299206078331936 -1.0453992325249348 -0.5763657383273557 1.1062616152279463
Ni 1.1513621766871365 3.284380623046731 8.380252948435558 0.1742043233619774 0.33569916957708634 -0.8644768737128338
Ni 3.5774685149513465 2.7389746176381022 7.263167383435189 1.1506267716068828 -0.2740903956263538 -0.4585138256131781
Ni 4.404072363179197 6.830196881946597 5.809504344852576 -1.0298797967330973 0.18056677524489548 0.2018071726809105
Ni 0.9335506582352264 7.369194259981217 11.361366415842337 -0.3497142529092558 0.8595678664469907 0.05394251565472645
P 0.4041998551925159 5.560806878558587 7.8764248447942675 0.9508515417543365 0.6998720211138333 0.8229674416151376
P 8.654574015923664 1.729047665507256 8.208704447422708 -0.005623516834364508 -1.130776055429543 -0.6946511390345262
P 1.8448211098127327 3.37345599841964 10.577252221616735 -1.3609041865423337 -0.322681931381812 -0.4460784280633028
P 4.122929061869541 6.034845318700076 3.6504623262287135 -0.33912362187760303 0.22757374012205323 0.9877018778134665
P 7.016074346547599 3.981275671274987 10.28859764541468 0.29780985073048066 -0.3249555579073371 0.2900913990403004
P 6.4848582238777315 8.050081375151846 10.28596329050264 1.048690244571381 -0.23361094745506863 -0.8133841688020766
P 2.4713394301976312 8.306044679545188 6.055956519002764 2.075401927989142 0.26080010627535083 -1.85579295124012
P 6.94600668725845 4.116384080721619 1.3133840940291217 0.46701440688502155 0.09280139750345308 1.1801060120129225
Ni 5.19494243238971 3.0616512784822847 0.5826878542724833 0.8403563265155461 -0.3505740298063898 -0.6086281979054873
Ni 1.7154668296253166 1.109001604257526 7.075533682226158 -0.5622732647900317 0.4142661686487124 0.05658715236642513
Ni 6.851258994890674 1.1895685041381352 9.358320386778573 0.005276160797274785 -0.9054353184030663 1.0330430249524274
Ni 2.912225722774572 1.9046804165614422 9.395174084792334 0.024214906683306683 -1.4502839599587474 0.7693103184113137
Ni 6.3505952078293735 2.0875126468783436 2.628570784949401 -0.3576967568941001 -0.610417428595426 -0.24017960181152187
Ni 4.420198469507551 7.0880236879167775 10.373001540493258 -0.3108998511452194 -1.1266103540876273 -0.16124082122277392
Ni 7.777319285812167 7.121212196487702 0.009946553294523602 1.860835912980666 0.8459775293570657 0.7371046802130466
Ni 7.840751061437452 3.881310174492062 8.169030953364382 0.13504385111243195 -0.38282363386871493 -1.0768129709495262
Ni 3.3878095056870983 8.48386818123361 12.711227871469212 -0.18298798309187841 -0.3419880879095917 -0.47070291148020227
Ni 9.102068921409689 4.892627935116843 10.009708726500417 0.23396473125006156 0.42272226983586547 1.0976065106561097
Ni 8.551872353410845 2.177869747726054 5.871676211606885 0.8065612323429722 0.403496331726718 0.14140398900250487
Ni 3.4707853222402067 2.888345631836249 11.766475296194287 -0.06810569452898593 0.160011319691047 0.7276252799677018
Ni 1.0675227862325658 3.3036519564267257 12.705626458436784 -0.2684419390913248 0.0011608530773205815 0.12944733086126092
Ni 3.2823716774443827 8.5622170597252 8.286908790913948 0.29751751630104245 -0.4339489917896204 0.12963630694361547
Ni 5.5025292755872925 7.746185174101563 3.4656366037371744 0.33478719928577827 1.063518310723149 0.09466467596443696
Ni 2.8055061690570553 8.017483732934553 3.497500662650804 0.6181867881281999 0.07842198885332945 0.8774673724352308
Ni 3.233893365691783 4.462722666465861 9.292263346492843 0.5524107701736551 -0.8343617994950082 0.19254297377016516
Ni 7.148910193095648 6.174426131931121 11.383797520676522 0.03329630015928459 -1.0997197003443704 -1.8830355890061568
Ni 9.29732752565605 9.135157437213076 0.6568643072822736 -0.9824691686596176 0.014189661236820722 -0.7202855517731789
Ni 3.854184863734561 0.3284689691600938 1.914784231208548 2.6100831420935178 -0.6184181874127156 0.8262808222590866
Ni 5.80318934706999 5.7345943085391236 0.13841907907728915 0.9838287680113056 -1.0981235595018444 1.0997857776956155
Ni 8.116949265879787 9.047163801779893 11.373380092349413 -0.15836452811624338 -1.0503046402463525 -0.664492870283591
Ni 0.21699884995937635 4.689260826448334 5.811126954762165 -0.6488829316604761 -0.6481020876303935 -0.09229848972510556
Ni 8.010275163420244 8.578806768884865 2.783621388343689 -0.462930466623635 2.4623724941466945 0.17829494849158328
P 8.690816849030286 1.4489133821245712 3.745669985327162 -1.60743518449318 -0.4875256394644959 0.10252042456342988
P 1.781607500225713 3.2552372764352864 1.5496815481232757 -0.6437232418364075 -0.2930584520884243 0.19772014709573046
P 4.691224320792711 1.1256549451783513 8.330800161712046 1.287368579247028 0.35988887944941245 -0.31460121125620655
P 8.499703399510944 1.623646198270918 12.534490654846316 1.1282761718258245 1.5052703434969559 0.5724939140767753
P 6.32417893669623 8.130884621573907 1.2583135318203091 -0.5893387535482559 -1.030826991137715 1.6006461865958048
P 1.8565384441178332 3.0755320926668372 6.167089389869331 -1.3298020658208904 0.23957179302419387 -1.894001858209674
P 6.824206406145928 3.864702284829209 5.9727898071661745 1.3118801912351472 0.5538991817937234 0.065764447990319
P 2.650871899185788 8.537582477904547 10.55265218275214 -0.11753746679755242 0.012667311055023346 -0.6158689386283007
