# total energy = -340868.693951897 ev
CRYSTAL
PRIMVEC
9.19434271634537 0.00000000000000 0.00000000000000

0.00000000000000 9.19434271634537 0.00000000000000

0.00000000000000 0.00000000000000 13.45684994377639

PRIMCOORD
 96 1
Ni 1.3463000431222436 7.089868117574488 3.5640463393068083 -0.536664820193308 0.19353336270789248 0.8854465339859653
Ni 6.25036944767536 7.200742698218844 10.383291846643822 0.7304360099436195 -1.3778616403322785 0.5836866974688012
Ni 0.4705729040206152 2.1289500910689663 2.605731015394007 0.8295782620634359 -0.13805204181113645 1.096615350387434
Ni 0.10384826382468478 4.943191333456154 12.571873687251314 0.6145553620231996 -1.2026515014136063 -2.12265391899757
Ni 5.6917211750199925 8.403923600258905 12.303827331885431 1.1966770289977262 0.8152968124437573 0.7045511717570575
Ni 4.42452925793341 3.038757900879147 8.500584646263729 -1.1100305953520753 0.3682711899758367 -1.1207474675489473
Ni 0.3168600410860041 3.9115217032744423 7.156299083663848 -0.23618333616793516 0.009243630085455048 -0.3405521267940135
Ni 8.217710574154738 2.3787052207333903 5.682222499403135 -0.5528594276752995 0.7174982188360288 0.4222597283771502
Ni 3.7331146742651478 2.2510325756693277 4.638333587549945 -0.8908134547248335 -0.3590465860537752 -0.7487155249790977
Ni 3.1500002552382207 6.862427658050528 6.051115165647324 1.8472594598478123 -2.4283087196937663 1.031506790813559
Ni 1.3290238728734052 6.895913454775526 12.157497526273767 -0.2702489103930765 2.095055697664327 -3.200092953566869
Ni 5.895651699830658 4.6217663011362236 9.116087057477223 0.4466762095483017 2.422724026517137 -0.1881764692713533
Ni 5.989222527197572 1.55377958427993 13.432560720289585 0.5196425746036986 -0.011832473858553814 -0.2622792619240386
Ni 6.287808811833567 6.343774776870652 13.346705785457436 0.2620188091738003 -1.0250188690963702 -0.18401076792943794
Ni 7.195318035926766 4.665678482673453 6.251743082499829 -0.1345615121593747 -0.2381134633111125 1.3863797051056188
Ni 9.192844190041555 5.176212759100948 3.6108630137560156 -0.330561848350521 -1.4250917769638358 0.7091732439101012
Ni 5.799782286746763 1.0136395238177034 8.685360596577638 0.24707427204882612 -0.9931464458678058 -0.27781078190073444
Ni 1.5654839827508038 1.1575217953579249 12.005502166586885 0.21934723844720289 -1.4327454368543517 -2.501526281528021
Ni 8.290014886468132 7.333040097745475 2.5852359057071066 0.275046588892036 -0.16378724179371146 0.6003268771286436
Ni 2.049308693146965 0.701993594572102 4.137106744407654 -0.7399092395413773 -0.4204861814164952 -1.1992314199884637
Ni 7.522737779796587 0.30209392644011007 6.710595038232409 -0.5413676249856161 -0.01663272346067458 -1.1020925714519212
Ni 8.35213186688386 7.072904554983159 6.785240230239977 -0.15697844640199415 -0.08978292239210343 -0.4453315225949492
Ni 1.2343865017338116 5.648084823768801 5.890225198670007 -0.8816814105165783 -0.04103172113032933 -0.7221675992872402
Ni 2.614632058724449 8.494570626593816 2.2595529732050377 -0.030964309591998286 1.2895712433253015 1.1647503554924585
P 1.5971401052450833 1.8469779839953189 8.748567106623216 -1.178741270454912 1.5075411418090037 0.982615978650127
P 0.47421018605916787 9.005233623821463 2.5003233910189215 1.335531769215816 0.2897998359418106 -1.133689372421596
P 1.8202960009925886 5.041855826771901 11.048518183521361 -1.3330195443169235 -0.8621273996440507 -1.1243053601035347
P 2.7378730305261696 7.519712840993038 0.2616443344269431 -0.329196078351246 0.24991379838015024 -0.25683443675938344
P 4.704524581290453 0.20410705619373004 6.464832092241239 1.1710459586931832 -2.027022765354806 0.0632257407288653
P 7.952141174757475 3.059160147703082 3.643199517622522 -0.2526862189189648 0.7620590361655392 -0.5829570183916283
P 4.857637973070076 0.26244424225645296 2.912627147114036 1.0408185551327882 0.5561663805613454 -0.08768798753628769
P 5.406898821657287 5.239000926546034 11.510424499954665 -2.9822392689460573 0.9273172060778223 0.5330845590412173
Ni 4.433879904630094 4.2340408623956565 6.014310211147004 -0.9194177487250874 3.884069643606685 1.0860429741882265
Ni 5.24417734158068 6.251454380133776 3.879313920208087 -2.4094797599127213 -1.4610530255497935 0.7256169912884213
Ni 8.721450231202834 1.8629117801854398 8.257029261995148 -0.9454144298991652 0.20215298605610346 -0.7424201788886892
Ni 8.642360493852909 0.44271496456507703 4.185982032224992 -0.24562185587301572 -0.21863632842310735 1.1819937159539384
Ni 8.366006130271566 7.636756825701775 12.024704551666556 -1.9953763420941182 0.5912364847916011 1.0015472683369913
Ni 4.399750503904341 8.964162494230424 0.8774860168922632 0.4238946928774119 -0.07648543395224892 -1.2761187173648216
Ni 8.635611846187848 6.399032777506905 10.09137238002136 0.9297543547644054 0.4235295962285093 -1.1274547043657939
Ni 3.3260443381304574 3.8936111233677164 3.0762901279003207 -0.22294369754920962 1.8382451721643436 0.05116572424053768
Ni 0.5193488929349787 7.438030298954357 0.6878333871212045 -0.20722602970363668 0.7662944144031254 1.2814812672283156
Ni 3.783076733409474 4.2233018699259155 10.47517551209447 0.6058840595014469 1.7507549024611588 0.8741596482182364
Ni 2.5637505652933297 3.358040651310851 6.810027259177627 0.5916092947499876 0.716482890197637 0.7579581266232882
Ni 2.5019829699065825 7.174621570131057 8.61230326758336 -2.1402281804359076 0.6780276715452322 -1.3772677155020216
Ni 1.697836548334642 0.7325188128936263 0.7300786342964779 -0.7849081728495708 0.22109687414845794 0.5442580591595336
Ni 5.867140042597211 3.6534364989716748 4.500104917439213 1.0486599055540777 0.7871036378389927 -2.0111968540661427
Ni 2.279498261188436 3.211372493881647 12.544058961207256 0.7024804052709579 0.7478140962107508 0.2711066304076815
Ni 4.025549943522498 8.352334142426955 4.481211462279906 0.3523048964545674 -0.04056352324465917 -0.33381352251859925
Ni 5.020552534346909 7.701071254062938 8.418026802784022 -0.8183661953977003 0.623349563276062 -1.1284898304985276
Ni 5.693633598336522 6.704661928779733 6.1905813943080785 0.1492427683206333 0.48559448388005405 0.8105531271111847
Ni 2.5628035479779334 0.12673114435438654 9.731280538770353 -1.0744264729952204 -1.2235422288196862 0.45630833332142706
Ni 4.664400469014811 3.954542033553482 13.19275938621398 0.18989936549973102 -0.5318442588762131 0.0070399375659169075
Ni 3.2247134853830115 1.2125131600510084 7.732279612059549 1.6319411400543444 -0.20177503389139442 -0.4009465687216708
Ni 0.7150008314273611 2.986230620074669 10.58939683354275 0.010510669723336738 0.6333233866593221 -0.38106988440240175
Ni 5.601055759999344 2.789067131614799 2.132063295564047 -0.1751900843140144 1.1930291478324937 -0.027691038157365212
Ni 2.9735516212597948 5.594196780219869 12.625741503245935 3.45583107193828 -0.8169196927591609 2.1278071810637353
P 3.031659868185106 5.962853151852351 4.089281450545835 0.2959116052665033 -0.43963241532764286 0.35175519459868454
P 7.2984877572477975 8.470692918165804 0.49906985030547435 -0.008725552798455941 0.7530087530378128 -0.8356095558591803
P 7.508146357665184 6.258285776884647 4.85681967655483 0.2781892482860757 0.04956958339801141 -1.3859351613690325
P 0.41771922404432515 8.745576186888279 5.926437118055346 -1.7696512251450296 -0.22774394715133037 -3.1578543566126327
P 6.605335442777496 2.9075086564394605 7.723020908791545 1.5060748416761225 0.2552508943223475 1.064891794031908
P 0.3250062288669892 8.781700760016372 10.622581975255969 0.13915015997132163 0.29760621936010684 -0.3458203171714883
P 2.088881144850532 3.144235402260029 1.2676580702699862 -0.374766053671561 0.4653303343143792 -0.09091934998939182
P 4.7777391335477715 8.90601746993364 10.375500560497537 1.3386852272431333 0.9496505794676999 -2.352880009140806
Ni 7.856685507102636 1.3050358323309783 10.348290822214189 0.2407809828409466 -0.8092863445836191 1.022072899094169
Ni 7.299462357591797 4.881203073840577 11.23540699382632 2.1494021336256917 -1.3769607257845642 0.17679316713507617
Ni 2.5601463828891013 8.881192744190233 6.156145821964824 -0.4138308808835066 0.2824655070639265 0.07839242116697467
Ni 6.483409262005889 1.4916717982070695 4.031793821764109 -2.5398120644820965 -1.1874164296314067 3.1374534243587773
Ni 7.367546466528813 1.2631372118818256 2.155518064220134 1.9364559136088262 -1.1141111931793521 -3.3350007933220693
Ni 7.894832835661675 8.512159404500165 8.775938665341041 -0.10808789134887836 -0.02640291547356098 1.3690561262255065
Ni 8.276471619423672 4.214659187630062 9.075138212646328 -0.2916183772077881 0.10512778027928991 -0.23297022854727623
Ni 0.9085730095630181 8.982284544023113 7.794678858801324 0.043702068873640865 0.14176805721014296 4.003911590167697
Ni 5.837157290504893 2.6858790216080313 10.346084179925885 1.3742358706542332 0.31450993709398095 1.789220148415893
Ni 3.735872977125526 6.856386974786298 10.419585595680683 0.7379899110314775 -2.190365720522247 0.4976244184613945
Ni 3.6421458459298575 2.034285136900769 10.642592543073729 -0.5879984374702777 -1.9934701262103411 0.7447580829932463
Ni 8.735609519219445 0.8039689707545896 13.002102734201744 -1.6447002394922254 -1.0818860145970592 -0.016398753072997565
Ni 5.214856582174854 2.2455159699485705 6.2575024188723 2.093804084645413 -2.079835538280463 1.0436390553007187
Ni 6.458437426776594 8.073580055357082 4.208091668519501 1.1515091742118362 2.198583480446349 0.7916943425334688
Ni 1.3071965029049415 1.666906778926929 6.09743350671309 -1.4383666396958714 0.5392647197100002 -0.0678408709033735
Ni 3.4661109573804887 1.805474720289487 1.969248952624473 0.9026533847825551 -1.3977722632132765 0.5240515023046717
Ni 6.920581876690179 5.285092167342963 2.8271896354480925 1.5215765368561474 -1.5463629997722077 -1.866692114651127
Ni 7.045707688779825 3.929570198324187 0.2984069949500705 0.11088833691215096 -0.23385211693159727 -0.389543983311684
Ni 1.413253247886503 5.134075085737229 1.447109576629078 -0.18824460350512742 0.5718136001802991 0.14116179108471172
Ni 3.5684072161290668 6.522328915365834 1.94808081703964 1.2026964957189286 -2.101914886678006 0.1588530377168877
Ni 1.998243312858487 4.497982863105295 8.912269623083832 -0.13370199237255684 -0.0641176564155154 0.03550256378198401
Ni 0.09842819870404061 2.861527747756947 0.5111466196624992 -0.2585460201338515 0.7040279522637359 -1.0242182275719458
Ni 3.367832626465195 8.504849901920162 11.82694343092027 -1.9519763778419286 1.5058254446694777 2.977908502781187
Ni 6.115047109345181 7.528392300660363 1.9867696923935985 -1.8607646934230984 0.2928710186679666 -0.3738646249032142
P 8.461930709412668 5.504809378857864 0.8492474316419929 -0.9932919703067344 1.1023183143094823 3.175102859280435
P 6.928047683098937 6.478205263942642 8.391409180181366 -0.13716192589669926 -0.08392697783195868 -0.3773749520493178
P 8.135595898001263 2.729561344573562 12.02622529597691 -0.871553320943641 0.3356390057631123 0.0822678449619809
P 3.7044191301743408 5.6709787375099445 7.908604122409258 1.8903822591792152 -1.5693879999124714 -0.8925661757498821
P 4.9965369107758795 4.882315589327596 1.7626318408277983 0.7876235148982048 -0.22397188170340782 -0.5115685393463125
P 3.892581356966508 1.318376823832343 12.85859926958768 -0.48640515270680745 1.2178266664921478 -0.5272000752359823
P 0.5860795946018339 6.107535331222082 8.122473731860156 0.14888204254710488 -0.777772590246054 -0.061150346257075334
P 1.7114625644649128 3.7052466210324546 4.843752676470928 -0.19180481005256 -0.47880445754141415 -0.2540334769754786
