# total energy = -340898.4755561406 ev
CRYSTAL
PRIMVEC
8.98187235384626 0.00000000000000 0.00000000000000
0.00000000000000 8.98187235384626 0.00000000000000
0.00000000000000 0.00000000000000 13.14587809143220
PRIMCOORD
 96 1
Ni 6.277736002501969 2.1283893927507878 11.373537536114405 0.10812825766851054 -0.5938201863583773 0.24127232065506835
Ni 4.57423408353033 0.41876542955279084 5.989064910946526 0.04155519773396714 -0.9832674961911969 -0.5553960780542242
Ni 2.650721200173949 1.3938518680565948 4.668100937398289 0.2873668010202857 0.5440084050425728 0.83430523522546
Ni 3.5278818766732174 4.328373290384645 4.888347226839853 -0.3542183114271964 0.051581985842349874 -0.11902793530014985
Ni 5.101937050647391 4.561434915363428 2.750617584982567 0.14409979066711312 -0.9048640192806288 -0.4461252221408381
Ni 7.1978120653180495 6.0641201312644775 2.560961756553516 -0.18743907688469655 -0.7349328693727085 -0.18974535642036996
Ni 5.134729866771853 4.452915933052897 11.402511260095313 -0.6473790934214398 -0.17913081412931728 0.1611426050820128
Ni 5.635496198567834 7.796705353060276 12.235946385387486 -0.2317846928796073 0.05826376873789966 0.8401095006120628
Ni 1.8607745046575683 6.443756931903381 0.284657092780854 0.4138691903206098 0.012612803668004085 -0.23476048767847957
Ni 2.7511654791988347 1.5750072524483432 0.45645336613406784 0.3535925049177394 -0.5473608664545735 -0.7542171715236172
Ni 0.6107053481326086 8.967582238840846 4.706145454313758 -0.2036910199671847 0.2624947203689544 0.377515334281924
Ni 8.666105691807825 2.410806406555624 1.5116706810478346 -0.10105643842339371 0.390749830694327 -0.09106487442832059
Ni 6.971720373319978 0.4677615434829305 4.84073342307174 -0.33475891715100414 1.6011562934630037 -0.1808933053463788
Ni 0.8633779933048049 7.4293826994787935 2.323074171535381 0.6656321260943568 -0.19756330980289202 0.023566988686662637
Ni 7.631690393367422 3.902596611238111 3.8348499404902707 -0.26340437666741734 -0.11733897763350114 -1.0508420008070611
Ni 7.604160954468086 3.892294403597805 12.513968569028064 0.039401898836390205 0.1830589455391299 0.6900583774575212
Ni 7.835560933053271 8.664991939630493 6.927272679572098 0.29738716137076526 0.6348048563008551 0.8413485152254866
Ni 6.822486563430103 0.7310022597184086 0.42936673354394456 0.05341081152097253 -0.39958131294302796 -0.29825079492264117
Ni 1.6523771012832145 6.571236646845723 9.15722189989958 1.1525242457399119 -0.014190689678085237 0.3619241647118864
Ni 0.17469651995047178 4.926799520762185 1.2522023512194433 -0.6299164178603023 -0.4682680767864645 0.48279866630247176
Ni 6.258748324252966 1.983439935994675 6.942443062052026 0.6331058713318773 0.2085527189348602 -0.17220940441913565
Ni 3.550228775199008 4.438230571682452 0.6908281408574135 -0.6238061911975064 -0.14302455532506336 -0.21724227628905812
Ni 5.896329773000694 5.5686441223108165 4.898167107932397 0.07196157793996638 -0.000494166027599149 -0.6849308264229689
Ni 5.273571650297443 2.8493732719966616 9.22410810727171 0.1936734878301826 -0.28114164604618036 -0.1514361764275263
P 0.19076868241914124 5.52256711690997 12.224141510495022 0.5097731380087867 0.6055665282610281 0.3060677198638987
P 3.997023035756454 6.018707784421071 12.440733076057912 -0.3280496234516286 0.5805211552566261 -0.08885501126119535
P 2.50154128151846 8.485848494655858 1.2386648731414405 -0.3980800458071531 -0.12681374989315577 0.7984607147230249
P 6.363809285690333 7.53234190277507 5.816551884175966 -1.1200668965421547 0.5676916075921254 -0.3777246220792527
P 4.719183540286442 1.012427674810525 12.509328533747347 0.04016705913718889 -0.36947652313784757 -0.13529581922223796
P 3.825595019171551 6.0312105507988445 8.374568484770236 0.13529659055318632 0.1278203367807992 -1.9890007775850775
P 4.623544562994394 0.9823294204054108 3.7721438965320893 1.0868248466595734 0.5461915287368206 0.3723661859808168
P 0.16163687748403308 5.648501949799886 3.43298031110503 -0.3242922132917253 -1.5705341977017728 -0.08350377425161103
Ni 1.4723354690687966 0.9915268577407844 2.635038850967345 -0.26835143626004754 0.3484356433071483 -1.00847484869476
Ni 1.5796329167332235 6.577488030034609 4.6216439987950135 1.8556697953986945 0.4774260891366487 1.3968788048647298
Ni 5.880503713835726 5.5472313385144 9.218914788651286 -0.23084366912257662 0.2054583962802526 -0.014420803411020327
Ni 8.606295403510702 2.232776713758319 10.237773484098655 -0.801458106788452 1.0612279720270756 -1.229376061892644
Ni 2.3144578613441467 5.312813450803545 6.795669387011914 -0.5229587834611252 -0.6317462719801894 0.9407059686799024
Ni 0.4284442952486879 -0.04979280601182682 9.06721186203925 0.07628231680250734 0.22832501646578096 0.1571928764056454
Ni 1.3181795931049125 1.1665655870296132 11.41407991174371 1.283215476310603 -0.6154279944361402 -0.24896171887952606
Ni 4.158005134742685 6.81972912860397 1.4829735987367814 -0.20480405052570533 0.588708833273741 0.11904053370564016
Ni 5.641496089329582 7.742275206329452 7.913819089068288 -0.45299392423621343 0.31235380998292656 0.758209580512462
Ni 5.40573990263145 2.895908352889797 4.710444178443358 -0.13824307477602 -0.5170791847518965 0.4014119383938635
Ni 0.7863925686085605 7.3874732828705385 6.999036043656247 0.49320623478904085 0.18254138247276305 -0.843399227106928
Ni 5.074102228086528 4.381294482552634 7.2226343678766805 0.2491157279588871 0.6585603068492399 -0.728355473265507
Ni 8.128396918839584 6.8593302040059845 9.086115110687713 -0.7296567085754336 1.4180626380311965 0.5043324266091895
Ni 4.500771349188512 0.27508870411545017 10.383915733509198 0.37145421568950865 0.39815177958535297 -0.8015768917545034
Ni 8.102035123351968 7.217626075827653 4.519750045565119 -0.42580810785004086 -0.39252723430972397 0.6793448476947591
Ni 7.217859604509996 5.954379614307843 6.982617180913021 0.012290644441894961 -0.13653226273250035 0.16988975514702354
Ni 2.234779671303034 5.337585454876748 2.6440431780461653 0.37114722597205113 -0.980078556940254 -0.535840781630116
Ni 2.244228601065547 5.080380556892608 11.247994312861033 0.5040686314248415 0.8512212942545082 0.6931388161550578
Ni 1.010667227820551 3.279101974998239 3.7639676980883485 0.7768899305307846 0.21806014420466316 -0.7043531968136385
Ni 3.5734828428369787 2.6125302787383933 2.7167667042896415 0.14944280014658132 0.5377092022974224 -0.163314415922351
Ni 1.0789025124268337 3.309496631192481 8.03947997485007 -0.024548635873641592 0.5559493794545329 -0.10110991736914846
Ni 3.556812487666614 2.626030032952326 7.068643758364916 0.3156689903990886 0.3049374629141974 -0.40131577913563143
Ni 4.140831794718043 6.757035659267147 6.073330143221209 -0.25735225693606645 0.35797983535215766 -0.2524424783392749
Ni 0.5353537260255287 7.545491363965488 11.376021922019644 0.6645715460403264 -0.6679587173450044 -0.25537944948041175
P 0.21008240263618605 5.478457141564248 7.86592864363032 0.8133330038491671 -0.9913698135833572 -0.49432029378882614
P 8.605639726825661 1.6001385314174597 7.840530603050988 -1.2192374307967453 -0.12321446257767169 0.8648795084678912
P 1.7037893388883694 3.110027208981566 10.370336040630926 -0.11778557825261651 0.16495297996703848 -0.4377231141200719
P 4.000202618585284 6.089943014408227 3.696397072039505 -0.3686745960618425 1.328749713296976 0.7509734677753389
P 6.991821803746313 3.946023964281599 10.36342179525908 -0.34036032249818154 0.23449360717033807 -1.1829298546149627
P 6.312828177960275 7.660513221892045 10.13526157804779 -0.19778545311602713 0.5689352501912396 -0.547551899419457
P 2.466736525976885 8.305510460652313 5.760444821868467 -0.1448520954521054 0.44626200482901857 0.35012305831190027
P 6.801109707123278 3.845831177683852 1.554881570966535 0.873585006661689 0.3949918938001326 0.17124061274796315
Ni 5.120843892044815 2.720456457470668 0.6198255413653608 0.27220757678134405 0.2411658769841911 -0.40669349850777703
Ni 1.5829202820308277 1.091881318041692 6.916703710321576 -0.42936522907367985 -0.6117497742536044 -0.4680973555365551
Ni 6.796097822325291 0.7883218747996135 9.07737305428291 -0.18077246349779835 -0.3883713031598215 0.0027472237278339784
Ni 2.5600761439350905 1.5456544934522485 9.037988442005684 0.3622195844651181 -0.7470993295319133 1.3077479142343285
Ni 6.371821115869194 1.9969756176981988 2.6202232524471314 0.4476396019028355 -0.49010214194242047 0.5885699937030315
Ni 3.929227862897665 6.884129153696382 10.339430315897248 0.42723866964898033 -0.18363692952978694 0.28202944796777235
Ni 8.167135734491408 7.1808902177205445 0.2986733046576611 -0.6832248994754556 -0.013113911674138704 0.1782029029984092
Ni 7.562053936667079 3.7678415796535307 8.150983633358399 0.35057685801986715 -0.5495383337218664 0.3107327294397358
Ni 3.1083475988431726 8.240589486960827 12.276685464022302 0.19608029749946232 0.32670545071890833 0.4173736039294425
Ni 0.14233483370110547 4.814391387703396 10.030304806330236 -0.5265411014957448 -1.0349800940741403 0.31956498301938513
Ni 8.687680149307402 2.3543194110456973 5.74762768995677 -0.23509370264818222 -0.20120553454116963 0.12101025583750129
Ni 3.630221330774044 2.5323850313325935 11.235111613280834 0.04728850067331856 0.045944327940598294 0.48462826331204284
Ni 1.1008272629499263 3.3841180270736175 12.569746894805801 -0.05312824728354722 -0.17361502651741068 0.16678334830755792
Ni 3.165598053506914 8.322153870205483 7.966507650741174 -0.2802415028294141 -0.8188444205856994 0.32013036860455185
Ni 5.647522925708523 7.92740057832104 3.660877359455063 -0.5307127163749312 -0.8493287052174857 -0.2971503627696108
Ni 3.184567768011122 8.28333421770208 3.4965010108896935 -0.38215309016425153 -1.1212524322098238 -0.16455523030798755
Ni 3.2954220371450877 4.1482238757014525 9.273365593688625 0.14188427107303306 0.08453504372960279 -0.7671025121267177
Ni 7.18599192124251 6.024779530162001 11.29944786707922 0.5026154439180828 -0.08758437207888786 0.40470037933714814
Ni 0.49540864491067804 0.22002802994229853 0.29334795251299023 0.25958988801733357 -0.5891086398153209 0.7572027365145024
Ni 4.760113932803335 0.36339667715639373 1.6494786510604362 -0.923495518338887 -0.5770946460735803 -0.4684902200995996
Ni 5.95967891902256 5.471397389859557 0.4396204390733025 -0.07434704745300744 0.9531907314104745 -0.47693963641853343
Ni 7.760688044744995 9.052020821252809 11.236294525875628 -0.12165560273098401 -0.27551401544675774 0.27922360308786104
Ni 9.0214824551002 4.828681546688338 5.660128983618871 0.7388471168254502 0.1413448536297953 0.20129218071770497
Ni 8.05765569183431 8.74201149544185 2.4712669824143485 -1.3200565563983524 0.8923504601946504 0.1239711382380381
P 8.406224195849132 1.6390929120068303 3.6243714372813405 0.1333500083497768 -0.23716421202396576 -0.07800367036898824
P 1.842792796117121 3.217576149073132 1.50545253078682 -0.4037467571746272 0.6776150094878459 1.0697722620526608
P 4.606434096076535 0.9835599369239129 8.122851510821167 0.9795357970629066 0.40161634109518574 0.7169109788739911
P 8.374122983899303 1.8567506258233424 12.459807878469176 -0.1471403772656498 -1.115326553643692 -0.16495143730514172
P 6.28239759427644 7.6634413122937355 1.482657436828378 0.30854317798758474 0.48146014999670633 -1.0759552509349213
P 1.8881781973433347 3.1621400326337508 5.816446796268912 -0.5729510562188519 0.516498115437446 0.19561415649632116
P 6.981241158061674 3.9615715854022353 5.947839014827746 -1.088807424307241 -0.6374929446559795 0.40520431555676023
P 2.2556445608831837 8.458211273287748 10.25341721125395 -0.05823754348565454 0.4088640237965346 -0.8024040156414891
