# total energy = -381176.111119752 ev
CRYSTAL
PRIMVEC
9.14425284023435 0.00000000000000 0.00000000000000

0.00000000000000 9.14425284023435 0.00000000000000

0.00000000000000 0.00000000000000 13.38353834692420

PRIMCOORD
 96 1
Ni 7.823923060787309 4.743288389519853 10.272708169982417 0.571257470566513 -1.4509336777276043 0.9212738280972198
Ni 8.381576157742646 3.593380343994345 13.440016638958964 0.452579205296298 -0.44613884898759293 0.4807068167704495
Ni 7.266498570145495 6.08026955352746 2.404620198272985 -0.29942141819197465 0.2009160283252088 1.98360326071859
Ni 1.785378731604057 4.2929979616474325 3.9879328949288544 -1.287440570135544 1.9997950399871045 0.35606204950415454
Ni 1.6517171922134601 0.20151555094522422 3.070518384681438 -0.6958850114416273 -1.2994226821980848 -0.4368088298359187
Ni 6.075605984731592 5.544782124731308 4.735390498600262 -0.6879079067734216 -0.14257949736784478 -1.3348108318893914
Ni 1.40266433000902 -0.05032813713470396 7.418749460526524 0.5513782151440827 0.2847884987701482 1.0408339817517558
Ni 7.143764412541294 0.11887619745718685 8.931597461527334 -0.1868970883382975 -0.43897267025645687 0.11435392686324822
Ni 0.4707232601751014 5.82952500460295 5.691938752021792 -1.6150556771529154 0.10360054500148609 -0.1931916630977576
Ni 2.7910361932965855 1.0602395051092672 0.9993799323231882 0.31853988418898044 0.18491219669778478 -0.5729220027531294
Ni 4.190692064219643 7.979613104548977 7.563961105301553 -0.4263683512288851 -0.6910179131573131 -0.6367645511303872
Ni -0.016723923472084755 4.980069664814382 1.6325773572200648 1.4136012598257333 -0.9269593085177713 1.1644389948996268
Ni 7.9281675397537725 5.760952254798607 12.510556404839397 -0.2558206507828884 -0.059909017650806494 -0.6331125562000967
Ni 8.732203377171603 1.1384137200815745 6.575238799314805 -1.7444371877732472 1.731238429694786 0.7174655658258805
Ni 7.439498683967121 5.495704921344202 6.607947790653669 -1.4307412619401296 -0.21882864693957152 -0.2439596376792444
Ni 8.79395451458042 5.652711737471762 8.391545221862755 0.9584643211045881 0.9590785576498192 0.03820402187354711
Ni 6.2176893807123745 9.089295583146988 1.3814624660676478 1.325092576160363 -0.5043481103384734 0.4677086047385687
Ni 6.01073665720632 0.8874743985779431 6.618855055084476 0.2524936432921845 0.5383062124514728 -0.6154606474462885
Ni 4.294040406437097 3.542263972290614 2.431520760397857 0.03372464594595482 -0.9143130805086706 -0.024051384522248902
Ni 0.13865795897895455 2.5999121709388606 4.027896021808428 -1.2848838651519614 -0.14402008646911327 -2.2095952581758205
Ni 3.1358476681095175 3.842698389522472 0.10226749156711766 0.18832970701976598 0.20139373929257576 0.7591120377220734
Ni 4.832362553520935 0.7414918933137133 8.642821051859892 0.47291971662586296 0.7298258871634463 1.8845137162135803
Ni 7.293300374342925 1.5267152599791123 13.126119138711113 -0.9331888343672509 -0.910379035561587 0.3490712200086182
Ni 2.4505408056829663 8.057577001712843 9.344358962546574 2.078866746609291 -0.15264279514111778 0.10102070008945181
P 2.049263571429866 7.3871935594330695 1.4034644521063504 -1.0686594886044563 -0.2525790039171392 0.6666528540493873
Ni 7.826858365852944 6.991686348533289 10.160554826993314 -2.3174347809593185 0.07175486124579901 0.5931833241053268
P 6.745010991989488 7.108595617268923 8.202261937541516 -0.17782109417895828 0.926986819321597 -0.7173400959916097
Ni 4.433901749050436 1.095252848088442 2.746422299574701 1.109348481683386 0.5996025973681093 0.11191317863223951
P 8.561708788546188 4.912274176476016 3.9650201413370763 0.2234185803030991 -0.40546348275541777 -0.2791133027622419
P 3.9388410607376825 4.385720682412341 4.440483782029389 1.1025384007400882 1.1479962759625713 -0.24889229909417138
P 4.561226321430178 9.198935171112595 4.684867588886437 -0.6367864055072581 -0.394154742610818 1.5078270484805385
Ni 2.563563767088712 1.4314595812603703 9.545701687118774 0.91489157871996 0.2280923316296846 -1.8653754527222326
Ni 5.284948188781126 5.84118392659262 11.52418965830719 2.0275791520789084 -0.6357998732242727 -0.9550146719930909
Ni 2.6157865933498936 4.236321884398824 11.283406858100756 0.581438781974889 0.4854960106289768 -1.093675808143136
Ni 4.686749476059358 0.01937849998471322 13.11487719463731 -1.371639827792283 0.208238530128551 -0.8179671601870687
Ni 8.537257057251773 1.4806007944152635 1.7624111124970336 0.5168128184643873 1.4288538151094297 0.08316618840653418
Ni 0.35882412740663494 3.395910210373223 6.033472926724059 0.24566607884738983 0.7200191854856697 0.315471786786618
Ni 2.4313835966097437 8.173361527385945 12.737581677098019 0.6993426309729246 1.1215542797209588 0.157359998111129
Ni 0.08880532297637832 7.858387748614029 11.837886899424396 -0.18351428790899363 0.6779757352613743 0.17327744067233386
Ni 1.0204985835664382 6.72740830584822 3.3772687371433077 -0.7671927578476787 0.24063083041632755 -0.7075362225273105
Ni 2.4606543489932218 2.293726018858765 3.55086688508111 1.5254259925092246 0.03215653012788655 -2.659429296626813
Ni 7.269653337272111 1.4052795862357226 3.9963913285292034 -1.2339132876413654 -1.0850199322403506 0.03670686850273033
Ni 8.235432713633696 2.662010789944234 11.351087128857106 0.04090856528890374 -1.2771818685220133 -2.0363941792673765
Ni 8.355268143182426 8.00315955484184 6.699839298862607 0.08230384040623889 -0.9937578541995595 0.8299197045632546
Ni 6.039239292376361 5.1690264993199095 8.805109588255087 0.14789139649906144 0.3797000006380687 -0.7207462934596812
Ni 3.562756242234811 2.0329319363917864 11.88686991701033 -0.08264219758226413 0.503757527942326 -0.2268486890305706
Ni 2.639899987300294 5.7181937299172745 5.679330656618374 0.8591261509238816 0.7948547425393214 1.2551940513970123
Ni 5.965390308855908 7.713067287233761 5.940002206101304 -0.21783465845741837 -0.4131870766519206 1.0122356012887728
Ni 1.1267182210817406 2.2608249982165427 12.725535953225869 0.285649818329179 1.0880543481913003 1.2331944071974699
Ni 6.260630790644525 2.93254350136729 9.483240041287525 0.5069454387520044 -1.210057049849058 -0.1464577493763284
Ni 8.752585916085309 7.142356197649993 0.8448731548403148 0.2548549444355095 0.9277342390105829 0.0728735482312745
Ni 1.634004775041702 4.66366023839354 7.479015571322697 0.23426837853340943 0.6440490006069424 1.6154505985984886
Ni 6.375372871527963 4.335747342276225 0.8542981359342388 -0.8205498333125804 0.7850788940994802 1.189968506629299
Ni 3.4828263307746474 1.2032464705966825 6.909679777321083 0.553446153416705 -1.3343392915696115 0.20031541862673244
Ni 3.280381723771266 3.5157822169321156 8.705656697620064 0.14111885366191826 -0.7667055337986151 0.2745899609705916
Ni 7.064584329789486 3.076858094968056 5.670484506710289 -0.10407697041727236 0.24893446518601642 1.027873564936346
P 0.5275895378765617 4.289587155449671 11.806086846788098 -0.3704707687303168 0.8937815362142221 -0.5834133892027565
Ni 2.519735364660092 5.187753928523709 1.9305217944850306 -0.20841593624667976 0.7995920001139907 -0.5231991816067054
P 7.7929240446735975 0.46670070348235165 11.273476199841317 1.375573101408418 -0.9151574307868368 -1.0643472343823475
Ni 4.643561171308603 2.283850226114574 4.782741267107644 1.6929955841635036 -0.009517709682448125 0.5290654105794953
P 1.6845267703302735 2.8026493940235513 1.4179727231877708 -0.7959199505790421 1.2289893679771866 0.97786329445649
P 1.455344368897248 6.995188597256461 7.303757741548718 0.3335756954761803 -0.9684306882886804 0.809104053369484
P 8.89844588836549 9.234323428445945 4.804181796040334 0.734175936602026 -0.8493083935025115 -1.4937805976898018
Ni 4.953203850849165 2.4061637481018914 0.3965139931045363 0.21667406249041396 -1.3271911105606047 0.22460617285329704
Ni 4.726179493015795 5.464596174199999 6.478609653864417 0.4243376939521014 -0.3926542468058915 1.5116363949243
Ni 1.3422756862287983 0.7748921901446699 11.184636128705284 -1.4482327338566736 -2.054317339404701 0.5043938759747443
Ni 0.26467215996958193 8.282205565380492 9.402416736354116 -0.3598713959479157 0.4085621762853996 -0.5831138556844667
Ni 5.077913167002204 7.645088913844577 9.937704820444875 0.14281398197615403 0.9123490148037642 -0.4323618498081586
Ni 3.193877094734183 6.687292469951214 11.26349159049189 0.6977979121936241 -0.06367105579640002 -0.6116849824539401
Ni 8.188723871654688 3.298331891509088 7.889260574042675 -0.9194632572510422 0.5083076092068537 0.9001612144883206
Ni 5.773415871011879 1.2153808937184805 11.061855335413126 -0.47021260210734506 -0.9247237343190333 0.10089008804885852
Ni -0.02984592586830195 1.4220958666584704 9.14493104445644 -0.3396345000757505 -0.5184069024243847 -0.18453013076801766
Ni 3.9023097718367157 8.253657208947747 1.9618125122547976 0.35385270055766155 -1.9002627515177206 -0.395960428360989
Ni 3.762896497597881 5.7899761123634805 8.738875023825456 -1.142406954800252 0.8394410137901286 0.3759186792187655
Ni 6.662401814534835 3.732052933777365 3.4602199096429906 0.4884653776699458 -0.12162937747873893 -1.1958463055663147
Ni 1.2434720375241801 6.211992511379382 10.215787941190966 -1.240707170634747 -1.2791855292156036 0.18127974215152004
Ni 4.338371742755467 6.279266777322916 0.08554265366977881 -0.6314009728256288 0.2921269414130904 1.556604732104874
Ni 6.095394147230138 3.513203537715577 12.123437216795399 -0.3254222131311105 0.3376737768049539 -1.9795496594745068
Ni 0.8738906114284095 3.3769541748559004 9.688289845839815 0.46758802000030436 1.5668024985734823 -0.039272829457693656
Ni 4.906961365749743 5.701203708696249 2.521418821552875 0.5779053149003338 0.8462248694811813 -0.5911860911696399
Ni 8.329664236067856 8.56601573149296 2.7859574754353593 0.31564327936747577 -0.1440159727040552 0.015461843081024985
Ni 1.7530263661142895 1.337831579493912 5.314000393528875 -1.7449210693882014 -0.8435853749758052 1.079205639551419
Ni 0.7297442720743961 0.020633091433327158 0.46590515351129175 -0.9166363293252083 0.3504120503072288 0.6598450870989346
Ni 6.026729954900386 8.109690096943535 3.627795652857344 -0.7590958397721571 -0.20496705846613086 -1.4603829960659624
Ni 6.538451471342692 8.063566487127144 12.276330948130054 0.5206974982307743 -0.42718647625480627 -0.2587655923438253
Ni 5.144263863439103 3.1507802325088363 7.285422600778924 0.8051666659882907 -0.18822609156236617 -0.16765880893397575
Ni 2.9716809022424187 3.1607017465157323 6.048823383464498 -0.8421866948560658 2.8689371803860912 0.30588671420134417
Ni 1.5278491472941862 6.078733319100586 12.975379793275097 -0.401348946366412 -1.4908297425915937 -0.013995800058459766
P 6.387553015912466 2.135941941265227 1.9891145070662162 0.29348422677193325 -0.060980653448430455 -0.021458941204724333
Ni 2.0875048355559844 8.254516768686592 5.341785204874455 0.7295762330464853 -1.9694395676236987 -0.5823144997116229
P 1.430737185309638 2.1481860954175156 7.530180407564894 0.277430001522548 1.1095366864347924 0.7230957675284644
Ni 3.2961738479094316 6.6800227891811845 3.798074437122793 0.9370791705605925 1.2839217583490081 -0.5272378704524532
P 6.508330303472909 6.676063327830967 0.6055799533727964 -1.1817836568256617 0.2259549735717076 -1.2804397133376786
P 3.520454929980525 0.05643284013102075 11.107265693531325 0.9259444941000118 -1.027954040465294 -1.066953047436311
P 4.693872848788733 4.114721614109698 10.31767686070289 -0.43148047564446973 -0.01356308339641535 0.393778847328638
Ni 7.837154794214017 7.036904677348128 4.514427865776269 1.3787250167738385 0.0959258020650477 0.8485823139697644
