# total energy = -381169.09267241287 ev
CRYSTAL
PRIMVEC
9.27405809597028 0.00000000000000 0.00000000000000

0.00000000000000 9.27405809597028 0.00000000000000

0.00000000000000 0.00000000000000 13.57352145960801

PRIMCOORD
 96 1
Ni 4.8522243059744055 6.45420655795529 0.5409799228421086 -0.8122266581588657 -0.35002792749493267 -1.7594675997438085
Ni 7.228135982344 3.011073369069908 9.300671887189816 0.5542501373752391 0.39916299445868675 0.9200183584235638
Ni 5.188752053069025 4.803609693295761 4.727928741986321 0.083097797062444 -0.3272831775992493 0.24369892781868996
Ni 3.668520623438819 1.861757894052905 2.0126273441854745 0.2568940863527253 0.970013202284452 -0.16041241178420762
Ni 5.69324226682197 9.178294198421485 13.226541131689972 1.234486386536016 -0.5568322962801184 -2.1231218597729242
Ni 8.765116360943614 5.019593232912886 8.641582197127393 -0.723413041658567 -0.08686292053183105 0.6180942284143935
Ni 2.2084407347917665 7.734137867570928 8.074751764674364 -0.19189145622909534 1.6606459641882045 0.9543860372701563
Ni 7.7246876023440025 8.323763934889298 11.937369150560981 0.11194351764954269 -0.009885377434512007 0.1985506134168258
Ni 5.8943131209779605 1.2731148768955294 8.32055511077888 -1.193475234230977 -0.1962448481017846 -0.9660454758859556
Ni 2.4315282029307985 6.624941967992272 3.2694402817131056 -0.554682082706335 3.67847060798351 0.1444353196296609
Ni 4.291542574056655 5.476544624729406 2.5794030596955824 0.8974954947306995 -0.8137101846829278 0.31729084227322774
Ni 1.498307556228391 4.706436112287206 10.762363607138576 0.7478171815345444 0.9669111663203604 -0.8533776784758788
Ni 0.5138486658044559 9.249602431326121 10.77113222909349 -0.27843761685145596 -0.5798421269117304 0.811105400070229
Ni 8.337424622503882 4.587913649480437 10.928286708415742 -0.2416438450618741 0.16101842079932271 0.053085052750437615
Ni 0.22537537827787674 2.9745521281831273 2.9562182426805683 0.3793233340249403 -1.398836957032365 0.5938872921508869
Ni 2.96341398437789 2.5489656009372244 8.551372506363096 -0.6023007130255628 -0.6922564135501045 -0.8678697014444667
Ni -0.017587323823689924 7.782511354738385 8.909808360960723 -0.5166076444321167 -0.7719541837920642 1.0064043393189763
Ni 7.161622437488746 3.434693795993821 3.6347036979005867 -0.277188060715071 0.4743988722745508 -0.5702470270241277
Ni 1.8088308443472527 4.670174545027858 2.788883629757143 -0.3638026126815218 -2.418190657423158 -1.7303675970540584
Ni 3.2489158636819897 2.620533507469293 13.183038379848501 2.7493135204834713 -0.771447933579607 -2.4119770724132783
Ni 1.5156778670920121 3.0012150452855892 0.7238912437882455 -1.933350020989993 1.754869695960481 1.6316912288270673
Ni 1.7888545231511823 1.447903050332085 4.674205050687938 0.3584377488251827 1.1891316125503002 -1.5259322427216815
Ni 7.55398001448139 4.698543888824878 5.485264094176269 -0.07990654381865593 -0.49959696880673315 2.6190601487811476
Ni 2.382014006614262 1.5259164272593573 10.965532253241898 -3.2857333145455088 0.4894879053971893 0.6739894969201167
P 4.366384223106 1.1211408864405583 11.488330385134658 2.0367176240450666 -1.3519361787157687 2.0827136311592067
Ni 4.6056085523783485 8.314044721976817 7.448904008546571 -0.9093482803042274 0.29317209484815315 -0.4243024698387918
P 3.3904843609234088 6.361122836578801 6.921341792996234 1.0075546508733357 0.07053230169260755 -1.1491756409826532
Ni 8.741819926939653 0.6771629745317364 2.9313109047807138 0.5731508309344838 -0.11054355197822252 0.577707854177547
P 7.9337526946016705 1.4834226929416254 13.191643778380458 -0.7970689765818207 -0.439370677025824 -0.8986280656732459
P 8.471907739339638 6.563380770174484 0.986516803921339 -0.47759423928339684 0.4617277045647855 -1.615380664592502
P 6.638444996618771 5.035108732151987 7.52638227232017 0.562479981484199 0.02389274745719756 0.37521625383510215
Ni 2.3070425207512004 5.499868880907733 8.558417080913019 -0.28992376311418455 -1.977398674569775 0.3923778532160533
Ni 4.578092421928608 7.287323021282404 11.255380883588058 -0.040985955494058444 -0.19478754682996774 0.33206671503082164
Ni 1.215059273048082 0.8035924992938305 8.775295567138976 0.5727235135890781 -1.1230951418455173 -0.7112236986812268
Ni 2.5362972375417585 0.332985056891788 6.5576401281965975 0.03496443189032688 -1.1474568585193334 1.101198341772426
Ni 0.558193502123458 4.536127308923864 6.555223308649849 1.0110312965680264 -1.4646723674699356 0.07743879900445373
Ni 2.543633017516732 6.385216839581303 12.566176258635693 1.050473304613733 -0.4562929067024593 0.2655041966192395
Ni 5.814648961704866 6.932024580547651 5.725324943491277 -0.020129680870339527 -0.8129776773922774 2.5232976117668415
Ni 4.7920078465843945 6.386570852067202 9.0038593665994 0.5211284151206057 -0.03558612463472581 -1.2718864244510288
Ni 0.8425342693506086 1.011836837407649 12.935037081968929 0.07417838308562709 -0.15750526543974164 0.6620539218247953
Ni 7.691143334114575 3.745996104994981 13.212709801405932 0.4438330836725518 0.13479651098831624 -1.93846265962621
Ni 3.7710175138097433 2.918694476110735 4.241644431733843 0.18057808809880513 -0.46350382262860174 -0.09215193684491227
Ni 0.30697967051021824 6.840090842378363 11.181948891373347 -0.7179574178606345 -0.564631480609563 -1.830864049208924
Ni 5.950115128701618 4.739831995586672 10.469596430701236 0.8675503704318349 0.9763607417690346 0.2317057600125558
Ni 6.859742571540143 6.065391671165478 3.875145711004432 1.1619326835380053 1.2062348478894904 -1.8562580638019965
Ni 3.379383313350662 7.769768798877939 5.169638219278356 0.9313219563618411 -0.8209023315559927 0.38812679124918315
Ni 8.870451113100053 7.4521323081790465 2.8112934638045823 0.4329174652013125 0.3555408868933619 0.859334667390262
Ni 4.302736362210628 0.6422470731059768 5.0352339319366415 0.8880708589826899 0.9440352901634516 0.4620300662965527
Ni 6.523817638223491 0.17009642743233455 5.967911118833065 0.7794288949025544 -0.2662001942449996 0.5201778782818783
Ni 6.786180742511716 8.108791267607536 7.948437238232988 0.928942143275755 -0.2358616911624583 0.5369201307372238
Ni 3.416720671352231 8.97457096364243 12.949533362220356 -1.384700774741299 -0.38852736912171154 0.023214233332934212
Ni 7.996834837951566 0.7261977020433351 9.060488620307591 1.0872431651439147 -0.24859765067188797 0.34167801286834054
Ni 0.19542480757095487 5.5304361764798085 4.3213067361953135 -0.557145456645163 -0.1813134236029329 -0.40670095470694473
Ni 8.489287324261381 2.2270908656763053 11.276189087797725 1.116263720745981 -0.7568175852609417 -0.13209325312454023
Ni 5.721175729887228 1.0257571986496645 1.5070140419938836 0.8707503654263714 0.5934975129116359 1.3837600080945844
Ni 3.5222223565548765 -0.2966956674580722 3.1640146437870653 -0.8158377725488918 0.561634088544136 -0.4208949868191396
P 2.7288266841668394 5.267043651739976 1.0118924817563846 0.5653282495662716 0.4941806828871683 -1.673103473225267
Ni 5.109968929317578 3.6071727289578503 8.666110226050034 0.6003564448149983 0.9178833143584321 -2.351165083332228
P 1.6360087712326876 1.3635369435908344 2.032702897803457 -1.5297806699334944 -2.0890452298041895 0.8971612513197322
Ni 1.3058152058358008 2.1845785832423283 6.847149328015471 -1.2623370901996969 1.1685473606410455 -0.019917307749217312
P 4.550242425386455 8.398614857996765 1.4203062355766776 -0.7652428332101594 0.2974334412276684 -0.5858240555267781
P 1.2352303494647272 3.5124289511774154 4.7875164202356215 -0.8222254212427903 -0.6558364801601737 0.4632698522409247
P 3.9888187688188963 2.0213273381102814 6.598441346906956 -0.28833122181608406 -0.9924483913595166 1.3414481347002511
Ni 4.032490308518198 2.9347107744884573 10.474659139030361 0.6180086106791227 0.7435342378884743 1.057227849728747
Ni 6.014569832653656 9.253126573412708 10.509367301554175 0.18894291512373265 -0.007766531319296301 -0.38390324008613885
Ni 1.376594817427449 6.866317878749062 5.858901984848456 1.1483755136788611 0.35817703896462827 0.10213295931702411
Ni 6.862756640429986 5.077565370237229 1.5294368597226946 -0.6949195622045645 0.9961345819618521 0.8203819402761483
Ni 9.106281137099531 8.910496496073419 7.0080087935577 -0.06658257301624017 1.0611845203836499 -1.9851703480953942
Ni 6.15812297833331 2.578540572290181 11.527055142231367 -0.23934579305631679 -0.5674548089909711 0.879711174164085
Ni 9.072801787276962 4.550400084374538 1.4075608974987948 0.34381897047074333 0.24183796335055124 1.2761757958550022
Ni 8.139061793319687 2.5397286390471194 7.283769202209825 0.16977945482140439 0.11853634037571198 -0.16257882330790713
Ni 0.31831813397090336 5.25630429243401 12.928032385868933 0.4034341110302149 -0.5794703453946084 -0.8030251941652558
Ni 5.8701541995686 2.71378416189199 5.829257458059579 0.992189224160859 -0.2397836519246838 0.3643194044169403
Ni 8.839549951435565 6.455746051603641 6.922265489185244 -2.828338690138439 1.7361070706409971 0.1087617774874514
Ni 5.562190551491574 8.237005121152418 3.977123254120491 0.6905669416628235 -0.36859900562890063 -1.1048408236210199
Ni 7.231901249941774 6.8676904393512075 9.990451290391531 -0.14915277970998828 -0.2156332799307254 0.5503407750185038
Ni 4.539762739707921 4.659871066453655 12.27936766454212 -0.7535751670642442 0.7079771667194711 0.799988464221461
Ni 0.5451337734752192 2.904440248776306 9.384311835180066 -0.24637338932705954 0.5207594618169611 -0.276042377146402
Ni 3.847194627228742 4.065394666737166 6.686778605336302 -0.3040936268566634 1.561389555088027 0.3828583437613923
Ni 6.428600883478805 1.1334846578017328 3.8375607356509898 0.3609849407270686 0.8618139821686899 -0.5175990618111086
Ni 6.902458883252818 5.852793162763102 12.469967179671887 -0.10759012577685342 0.8525384704040351 0.292589997092438
Ni 2.749164693629691 4.942266136286684 4.820975367130321 0.5879066490874197 1.8543184235771226 1.6258237143026968
Ni 6.471474854179563 7.481466154020816 1.8797560586514257 0.8264278893599122 0.19431523517923951 -0.0439190699804534
Ni 1.149621518935049 8.671170152161723 4.349241126666383 -0.4195819244346709 -1.6934686671451804 -0.22002472413020172
Ni 3.618839494076075 0.07131008771626059 9.749141225447412 0.10728030784591845 -1.6641601479890502 -1.498876267045154
Ni 8.053388044383151 9.095792177362876 0.8601828019579076 0.18979703559391184 -0.910487021894361 -0.3559298948016644
Ni 0.6649898458400176 7.580383257956418 13.243630438592477 -0.8036682270658934 1.854929317688244 1.4102374855598228
Ni 7.703069772860233 2.4825077004307055 1.47230587947007 -0.5367653503269142 -0.6232264074346364 1.450866829045411
P 2.236958463518747 7.699406519901808 10.730561007024573 0.47629300397347 0.9639356286318044 -0.5532605197684601
Ni 1.9679365854984996 8.367240719368025 1.621288986180504 -1.071141888706678 0.7049296381423988 -0.8515434534806173
P 5.304084239881622 3.4166650270034955 2.6089121852358685 -0.46304925158968646 -0.5341798489879251 0.5272777225514532
Ni 8.509263645457452 2.0754414672556254 5.0040554759342895 0.2151519694189327 -0.5569737069539892 0.6609239219854101
P 3.7223658048986077 5.0084365409914025 10.289326361508413 -0.4526558241705043 1.3628415127743627 -0.36221932735480195
P 8.200687909544335 8.420167769073679 4.760925840786515 -0.2593284068258308 0.5414025919886095 0.3339433632282442
P 1.262486806287035 3.201441960152424 12.118344975576932 -0.4094250385063271 -1.6568127064850433 0.5307710804166923
Ni 5.548019790680249 3.585749654694655 0.4987607006448054 -1.4520814181788024 -1.4539467535223154 -0.3326457274627433
