# total energy = -340891.03942929755 ev
CRYSTAL
PRIMVEC
9.10430861110940 0.00000000000000 0.00000000000000

0.00000000000000 9.10430861110940 0.00000000000000

0.00000000000000 0.00000000000000 13.32507592997341

PRIMCOORD
 96 1
Ni 6.348953372607529 1.881969851250432 11.684199333324733 1.0401945483955441 1.0923316354104153 0.18423573945605043
Ni 4.859342807269326 0.20379903887174325 6.173201066986695 -0.39565292442289923 -0.10235895928490114 -0.5396472998603997
Ni 2.6490624815135826 1.3328707874872443 4.752855171485406 -0.13749899752114386 0.980510245161034 1.012010115541528
Ni 3.8053916198193707 4.436411252884541 4.686268989255587 -2.083519414889954 1.1163807059398192 0.21968662406449263
Ni 4.779734732366399 4.7012100701937385 2.386760976069192 1.3075854205145352 0.20228179832448387 -0.11890683634125326
Ni 7.22539785415831 5.991745822422678 2.5076598220273842 0.2608728684948152 -0.49410046446853617 0.4673370803317629
Ni 5.2813639307883395 4.371579470933061 11.5005262791717 -0.07129103423550302 0.9594876201627798 1.196194690044669
Ni 5.7473497608153865 7.775188845379484 12.266585570402203 -0.8316302594964582 0.6649649248240032 0.434324115740852
Ni 1.6956137573359755 6.52930972711656 0.5931338734478842 0.7633577003723048 -0.315097948386967 -0.8202119903571874
Ni 2.999214192488715 1.5849235726756619 0.3004285292411054 -1.6297238206880515 -1.1869641725853366 0.5663515486244632
Ni 0.31272298765246315 9.082066831648996 4.606611751085909 0.5583685304189867 0.10667018506574533 1.0013971159123722
Ni 8.728063998111656 2.4745055716195052 1.6960689727688605 -0.5060527517344059 -0.21910838296351942 -0.7473685240329
Ni 7.022453709869526 0.7410388301774112 5.0569600205624905 -0.08348114854379171 0.7809553588494098 -1.0071445599191107
Ni 0.7998280824727758 7.498399653568096 2.764567024592088 -0.5095995885453998 -0.1927535471190745 -0.013541743240176677
Ni 7.563604712174541 3.78346844457163 3.669885821050765 0.7711805388508332 0.7770894481361004 0.6777775032076392
Ni 7.496715356466421 3.985101568413706 12.71894498166127 0.8513645047005919 -0.13365879783944723 -0.8020299201315219
Ni 8.053980985095565 9.256805827716226 7.190664006198321 -0.48149948787507396 -0.6869717681123976 0.05674810342432162
Ni 6.990907280370596 0.4477908691746336 0.3144637314678153 -1.1202257907175224 -0.1515765586601325 0.9987972163956799
Ni 1.6156050928521102 6.599503946867426 9.118736255629612 0.9875077595247896 0.2391745575857752 0.008805256996455802
Ni 0.03016803716815391 4.804434721754738 1.4685832540623798 0.18054029288233422 0.09153615763778429 -0.5711775092581969
Ni 6.167622857072123 2.1484347570439883 7.096015613392874 0.7511354472744999 0.2757875808231186 -0.004739314457198289
Ni 3.1983436314499243 4.355373801522355 0.10902409617595457 0.32528028823660754 -0.4367898036725252 0.13279002208124874
Ni 6.120325973595372 5.793636066031132 4.698021741301812 -1.0273986821824566 -0.16596342350942386 0.09631121042892445
Ni 5.170537181498161 2.9461633859402987 9.660773107167023 0.132530597772275 -1.5136495686995868 -1.6960228010256015
P 0.12247389135597443 5.702128659712591 12.621565296258513 0.07706521771511889 -0.6169341466680214 -1.1407462792683774
P 4.053629699680212 6.104202242962586 12.440863888451354 0.42269167370824623 0.25133201888391554 0.34690480848491867
P 2.174564122891587 8.486681462670061 1.4018914618521319 1.324456742348577 0.2719401820525704 -0.6278978447683767
P 6.656742735398384 7.820619345581406 5.752555604505859 -1.0018120919626037 -0.10325421740566088 0.9772498292422075
P 4.874446855332449 0.708386227176571 12.801267050975056 -0.3862048916361219 0.3927048975381689 -0.1358807451914305
P 4.003437646050314 6.166266315082125 8.278909303500098 0.18013328725190267 0.43857852014183174 -0.5723237070474982
P 4.7968963541861624 0.9127342558603736 4.010154804977964 -0.7440284039160735 2.4595018574671195 0.008362513032082373
P 0.24782201295518466 5.478818176956532 3.5531185103614367 -0.664602656388578 0.3866671759845212 -0.545898165866118
Ni 1.345006830927958 0.9960750973129572 2.6075304462788877 1.0586105890088866 1.0872920161039792 -0.21446214244075967
Ni 1.7689489635737472 6.3983715600015225 4.789445387980701 1.1951996731212513 0.8231147658262791 0.4725286518350313
Ni 5.8152952163278 5.539680480333255 9.36067961648452 0.9184391868619021 -0.17364973641008805 -0.09426692630538605
Ni 8.664880096027218 2.363223606896441 10.461690064955258 1.0944689934683924 -0.6843980938479504 0.6155843175083463
Ni 2.505487533981657 5.168106331086555 7.06101136746575 -0.47299530705880477 0.7321249676102682 -0.3793392748645402
Ni 0.36670880670002537 8.816885633376174 9.570842567107997 0.011712660451237892 1.0710447010071813 -0.980576322512279
Ni 1.6059181084403176 1.0451837382125897 11.563554497578089 -0.2981978301975187 0.5527211023252223 -0.6524274544786247
Ni 4.125016583865236 7.079246387276257 1.2973011639924772 -0.1750486736401437 -0.34945405726933365 0.043885131418724424
Ni 5.778258888708278 7.59507830720421 7.827443024920352 0.5598618271350615 0.11663552380857332 0.30260650078817564
Ni 5.309933251356202 2.934901356130724 4.907918846112482 1.2803471536238724 -1.8166952139077102 -0.2384417931848087
Ni 0.4441272953707753 7.390122110702073 7.013853779911462 0.5701752932459278 0.09200821217819638 -0.5389497595727428
Ni 5.225527205790667 4.748889334634112 6.95405030763163 0.34363822191850496 0.6731767712108342 -0.25364344062591154
Ni 8.042391200174313 6.919538604802887 9.005126319182775 -0.15202213083798335 0.6792420035683077 -0.15077977379045
Ni 4.861391276717308 0.4062178645509792 10.54089481898465 -0.6847781028951884 -0.005142977653520175 -0.7697440635146228
Ni 8.29500845249951 6.997544321382059 4.7068165034651495 0.4573892250904317 0.04620555202178494 -0.48954164145326007
Ni 7.501604370215606 5.98441685395323 6.788952774432903 -1.0067820343733693 -0.18879404825069424 0.7600767156281877
Ni 2.421272678897935 5.233120199211188 2.4815950967712554 -0.44920720350027155 -0.29169011098598796 0.1644197331713878
Ni 2.1880020824703514 5.585557091659404 11.235024609234129 -0.8456844235966791 -0.04884761763032232 1.9486876797883277
Ni 1.0907599073530345 3.5290849563668405 3.7791111224480547 0.9441815859333288 -1.2616786306800916 0.07203151194595336
Ni 3.7556456773136992 2.5380445417415918 2.7842742111125447 -0.8712509592118738 0.23971783168375488 0.02933782973216883
Ni 1.2549288010686765 3.4948709644312053 8.146591833623418 0.09373779327479341 -0.46853778550808334 -0.03867684774490758
Ni 3.8634953176728106 3.0440802255538593 7.486441144146207 -0.7821066988450337 -1.034635823360844 -0.15478375274352052
Ni 3.896143368519322 6.934342210680307 6.060510665714285 0.16107087130381292 0.3431913641890735 -0.614922001333999
Ni 0.7338819331415934 7.701890056376342 11.711009701459925 -0.041463152240793104 -1.3274430786704106 -0.07220146186491436
P 0.15880918720885412 5.426049603976504 7.982826260781312 0.7086891051848311 -0.18596712032486037 -0.7140681101085573
P 9.10140438323795 1.625801918548734 8.312915717198338 0.01625528551659781 -0.7766395050828753 0.2135776829532773
P 1.69603255553423 3.23303104743576 10.389735071909994 1.0524975341326133 0.4628260798352868 1.09790732972598
P 3.86460604332905 6.3905509588645595 3.807694099478903 1.005633522591223 -0.08899719326601446 -0.8407571614983907
P 7.053098812811343 3.7473607564351923 10.195335321296461 -1.0996171133282353 1.2437917230973417 1.1281733276993733
P 6.527152005964686 7.908794574931227 10.211032059853201 -0.5926971284975276 0.5171470618753545 -0.6897822409779991
P 1.9857316570222359 8.417333943624364 5.886352524539414 1.5015389014789817 0.4076574050829431 0.042394920026443114
P 6.838674135305198 3.91669179315975 1.4362429288484988 -0.8185389735301386 0.9333420721156634 0.5919815904877417
Ni 5.059801475294559 2.635588104700187 0.6040872671939627 0.8688058401054909 1.2145050583180825 -0.6380030515231786
Ni 1.963808481774495 1.1564110770837075 7.224896206751271 -1.1434559648900566 -0.3220252716344196 -2.1544224696584187
Ni 7.025676635134351 0.9958839068311455 9.404745380818653 -0.6282004636104601 -0.6958916963098467 -0.849709485595672
Ni 2.7113905785841954 1.7433749605542683 9.189665193089153 1.115358692433208 -1.2011420067476153 2.3793448882005537
Ni 6.314584607424712 2.1263568085490667 2.5609063712119418 0.020668069872312792 -1.1906951003826782 0.6770925613254727
Ni 4.205234647448228 7.180650177105717 10.345762171524171 -0.23620647609638673 -1.0465783404347007 -0.1636795125712536
Ni 8.470339228629491 7.218806334690137 0.6161395509950256 -1.4576925937179925 0.19885168959701238 0.0970635152139167
Ni 7.875745934503777 3.500970851231864 8.191151051486798 -0.5648795920646271 0.7088590551037921 -0.2051336659509822
Ni 2.9239670814328265 8.152826464192213 12.411695504373816 1.596274282780354 0.30782224066116015 0.7210224299392034
Ni -0.017881772634588088 4.75609994709101 10.052397675370575 0.29873776186138873 0.28113547539859324 0.8244849067009284
Ni 8.759018647547835 2.3518523253829744 6.217533587564498 -0.05955317697328454 0.09777416812769611 -1.1667938682850487
Ni 3.743245608921912 2.495773236643892 11.556105352234361 -0.7725712485507727 0.3535678223273911 -0.22567266644459844
Ni 0.9181604238203626 3.498139411239319 12.532300281162364 0.2960882400536836 0.06043403691634108 0.05000949914890742
Ni 3.3958160862354316 8.336296492262177 8.073396833738975 -0.735017715777031 0.20295876978685043 0.5318368026770454
Ni 5.599131615868035 8.158106963213678 3.758177585551406 0.6823633228061088 -2.1199403767211487 -0.2697629718955935
Ni 3.0844214172161273 8.465796178609299 3.5713599031880037 -0.2596351394329722 -1.1765092958005996 -0.09268132698582103
Ni 3.4058854516108474 4.571218751179101 9.594135030377855 0.05595800342285847 -0.801708018015729 -0.5822293961969843
Ni 7.535763736299295 6.26222572833428 11.252493956686523 -0.06394616383465761 -0.7677028647148779 1.1720378902928072
Ni 0.3623596784542422 0.23095628116679587 0.39371218617876286 0.9109243665420956 0.4682305386803098 -0.26346788291550105
Ni 4.577154760423921 0.35894010012241023 1.803842136935247 0.4665225548502675 -0.2529566989715321 -0.5508840491164835
Ni 6.120025531409668 5.84584927618304 0.22449040115809749 -0.3221044616117872 -0.5841168430276844 0.6200122713727129
Ni 7.982157094094972 -0.139455247864316 11.5366376090316 -0.5713407743089386 0.7258653598538015 -0.21669720241886553
Ni 0.24119316582151348 4.827614291597241 5.772116211656927 -0.10821721783789105 -1.310364525921569 0.4117590859561424
Ni 8.063977516001719 9.213287232332423 2.4597156222050716 -0.5869599689034343 -0.3982019160969981 0.659621915344535
P 8.683835266652551 1.8751598283744726 3.8871246403630044 -0.61886684491436 -1.0000637418129292 -0.20839768141423465
P 1.795661005175438 3.065630124146635 1.4137907932677456 0.39281391231220736 0.7264816532815617 0.8556788158052296
P 4.803433247802391 0.9672508561026798 8.270595248833887 -0.24913346857069998 0.8400573072178886 0.5461807301035432
P 8.457283650014348 1.892394284663498 12.702901368944671 -0.2544628512034134 -0.667799823169637 -0.23922880786247833
P 6.382912443900748 7.705021938554592 1.6021671332733454 -0.3642877798480565 0.9404946240000448 -0.7494452040562706
P 2.2773699762543322 3.3207601656613552 5.9130955207905425 -0.6327734276931231 -0.8825226754709511 -0.2562471967973458
P 7.009753199292034 4.0024452764066245 5.872680584228147 0.41314439633944333 -0.2191184102658484 0.3727171415623323
P 2.4083354562953434 8.42764002102488 10.239095180859694 -0.4314563072747537 1.0229180207032837 0.2760197514385827
