# total energy = -340889.39496169554 ev
CRYSTAL
PRIMVEC
9.07661110435727 0.00000000000000 0.00000000000000
0.00000000000000 9.07661110435727 0.00000000000000
0.00000000000000 0.00000000000000 13.28453782914167
PRIMCOORD
 96 1
Ni 6.555963507671829 1.8380954156699982 11.307373307938809 0.005783182340680363 0.7517679386521763 0.8808224049503927
Ni 4.644928446058568 0.6452707981010487 5.981123580235456 0.07413390300093683 -0.21894948878815196 -0.84643415727851
Ni 2.711165550517741 1.9254577964818325 4.61025306908034 1.2263460168170686 -1.0304112437565351 0.2971483058870818
Ni 3.6060649348047 4.716842434959572 4.862539286965129 0.563495567232907 -0.7678941547900775 -0.6133880811879758
Ni 4.225216877111033 2.775999782843863 2.8471023227220544 -2.3850277975179437 2.125636912885294 -1.2414620465229005
Ni 5.07421583960418 4.932457329108677 1.9668153744734298 0.18634455826893712 -0.552310497150365 0.5453060408080738
Ni 5.460516403484872 3.272336101797997 0.05253451676891587 0.5963087571081859 -0.29391745765460997 0.5806623088201806
Ni 6.070573581575782 8.248152401622322 11.958541180202294 -0.9327237218053742 0.17555209563912344 0.25302560453625456
Ni 1.8890605863981489 6.782624637399946 0.1326891607908615 1.0003532480288901 -0.10602946615795288 0.9944026868724101
Ni 0.8050872261679962 0.5047403530729566 0.3118941376008906 -0.7648733656858826 -0.5526827928881192 0.2576062819284015
Ni 8.016281297183973 8.926075400111163 7.130103628400608 0.6918100700413053 -0.257121371872183 0.293539762600217
Ni 8.818635555781846 2.6996382545560755 1.2907712344602311 -0.275526613852248 -0.8322707212939344 0.3415412301801602
Ni 7.246838830048304 0.8487920157624963 5.117788110678176 -1.066753786941311 0.08932449469844617 -1.31427285983704
Ni 1.2520004906017637 7.859918519600027 2.7375176752149875 0.5057028245941549 0.10082658180077475 -0.9527438736810431
Ni 7.942261534532491 4.058878904045301 3.570471912455035 -1.6021055447501504 1.1075317401896216 0.6113954762379793
Ni 7.894346105098136 3.935073930094816 12.504084530335147 0.12896087814314564 -0.11526512582360794 0.20396252846101648
Ni 8.71495342840381 7.153676494811663 8.847422027547532 -0.8641351741026989 1.4892533992434094 1.5271784564239568
Ni 6.815000908813537 1.0670373117774978 0.5793972938161773 0.8161578748924718 -0.2245912604549616 -1.0114028209748325
Ni 2.0933115635834687 6.722383170236503 8.831574264752991 0.5356932003086581 0.13549996481324406 1.369990208004002
Ni 0.31543129290503313 5.044199487048883 1.2483816457986803 0.1693436528355664 0.18148183085999714 0.9511119945045748
Ni 6.358420146010659 2.4624119496315973 6.766439224676449 1.320491844163558 -2.2699598753068067 2.618874515132903
Ni 3.5377725136900775 4.637639927430838 -0.0802889778646485 -0.41517428228527853 -1.598989624828988 2.7486694591415692
Ni 6.198045506367615 5.939452859164586 4.842878439892244 0.0590196730673177 -0.9157711531114358 -0.6836565876962355
Ni 5.642665832901172 3.28488905480192 9.066484218551942 -0.49335124500733746 -1.181952578303358 0.5868787220435376
P 0.17935746387471885 5.944726370151773 12.572300707917424 0.2850147558483414 -1.1573723178608326 0.30761989484236696
P 4.219907059679872 6.45541281108653 12.553064646239035 1.7827576806200005 0.3959478299554987 -0.743275842020765
P 2.5737819665210733 8.707256462281375 1.0211423359502814 1.317462313308615 0.4153483459692976 1.6062643041135303
P 6.48274248678777 7.904112538527074 5.882698625944822 1.1649465306636648 0.4510635399827199 -0.08499167165104717
P 4.832777987178747 1.2877804911378936 12.757752208413137 0.5803275511885813 -0.8063293188378243 -1.215015679405914
P 4.367147843215412 6.210580306149552 8.006896081416759 -1.0930088639830982 1.1852222501935652 0.32411686405612566
P 4.9739646711816645 1.1321529190444173 3.8065908708383134 1.0995278960485386 -0.21547952796168052 1.7237128107417026
P 0.3998501287716956 5.985471276901313 3.516443385516599 -0.641468641474276 -0.2574167916254147 -1.3922909283837313
Ni 0.6208783137172852 9.61521708978789 4.402734511937382 0.6959279488644209 -0.8593891747772812 0.7692501545973397
Ni 2.2544667917719483 6.673950373975521 4.584241317295348 0.4627736293307965 0.2804536188402202 0.580511127954297
Ni 6.310904087460015 5.8240528269940235 8.940148685456487 0.4208543633891913 0.6457798672551202 1.8714936498048282
Ni 8.681487963671007 2.605187040558367 9.940567303186553 0.8763584556417681 -0.6150708682070375 1.8208434317481286
Ni 2.6107237732643633 5.4167943683294855 6.846160006692908 0.0025641611827504226 -0.5656177557822323 0.7440227474891186
Ni 0.8454972059718786 9.599151488329506 8.916807272625764 -1.3336204111257162 -0.8584679485145926 -0.015901758831921
Ni 1.504947485766875 1.3135126833042885 11.302059859863249 0.2426427186400337 0.06825507562265665 0.043234128098286834
Ni 4.367538137488131 7.186415830664992 1.4025152077226368 -0.07769359532773716 0.963991164460088 -0.4650598542618119
Ni 5.7356920189729115 8.095347655547805 8.07521845534766 0.08095426835687992 0.3200015563361715 -0.32674838814170176
Ni 5.389746067569041 3.187478865620351 4.905129468729634 -0.3394750916797508 -0.3724728867620102 -1.5196361253003248
Ni 1.104587251457348 7.547265577320086 6.7545760941080255 -0.6507953181918404 0.38392946533838396 0.16078419330132954
Ni 5.521311543918915 4.684556929655916 7.060160171746279 -0.6367545238280582 -0.27347898729459996 -1.2966934561923797
Ni 0.8179242770960146 7.604384690301787 11.374620103466986 1.17411045655112 -0.253936289275982 -1.1761544835643423
Ni 4.67239427092471 0.3578317734997762 10.21534445545198 1.098271397933618 -0.5569616227691311 0.5414959230333642
Ni 8.443980283805733 7.608850382910559 4.771646104476847 -0.3033040410758325 -0.6747957948714959 -0.23825975908098967
Ni 7.6171736351915404 6.127919609832318 6.866431709685651 0.02718607349648866 -0.10493186221839994 -0.5618698587040258
Ni 2.5946854016389596 5.692904874749848 2.3838438972113045 -0.44552332689078106 -0.828993078983927 -0.33609023436791796
Ni 2.8334547304323214 5.353003946267608 11.256121316303267 -2.283100526453823 0.09224269678650565 -1.4147780537426538
Ni 0.9369603996305477 3.4264841862995423 3.536117847505974 2.874757129501978 -0.01045564811568522 -0.6304391231329917
Ni 2.0187562808833746 1.465573147277344 2.396091876085849 -0.37881219871647664 -0.6222601868666251 -0.03835314585690169
Ni 1.4753395807062823 3.0242087870704006 8.208449489814829 -0.6842098890965442 1.6195178266893269 -0.7023600776430097
Ni 3.7954030401278027 2.803284075490136 7.042465318614572 -0.5671743016360749 0.7672989444082398 -0.48524352829853845
Ni 4.470503212597683 7.212901381543841 6.051399240852145 -1.3268072448586246 -0.37762306350438185 -0.6305375963840689
Ni 8.136682542011918 7.88020474517036 13.114668151863675 1.2916425240320337 0.038643680514127 -0.1434547008839465
P 0.5150595521113955 5.599597313737312 7.773858632465752 0.3122080284336816 -1.3231866173869018 0.5227908904246932
P 8.622390149492738 1.9396626926865619 7.778482258105809 -0.5916015814405037 -0.3406811961727101 -0.4875940308085861
P 2.0601183971804686 3.3287472391222095 10.298651406471947 -0.5770645641665934 0.2786075667704169 0.9169505181315175
P 4.39719142560369 6.337371485116877 3.549283471751955 -0.03737278422150338 0.5399946558974893 0.4264709382450204
P 7.120628554184558 4.19325812980314 10.412394049475106 0.2590977788722635 -0.9026330730675809 -0.32903898394809133
P 6.790811740516026 7.815733577283975 9.947395637636916 0.19375987689640176 0.41421140415137697 0.41225273776310933
P 2.3361109076579174 8.642431306566246 5.426614353763284 1.550732332484497 0.928194466476453 0.2582706549852778
P 7.102665941028546 4.238877176656157 1.3658892670419185 0.09016524543218665 0.4188607299979303 0.055549198020214005
Ni 2.8952846045196168 1.9753337738907706 0.28081491389826185 1.4079011241171624 -0.869727837699128 -0.7438893072350479
Ni 1.5027327926844762 1.1129286569603172 6.7027795058128765 0.154630772105424 0.1798286115272903 -0.31914872141757294
Ni 7.1198479656391225 1.021372881869515 9.14045315218186 -1.7772910010784746 -0.42387643804496683 -1.5591274985267278
Ni 2.970856467650976 1.5355356648147587 9.255550025545242 -0.17273802322909607 1.3159445911125078 -0.2225734586939844
Ni 6.504027139567381 2.468565891885148 2.5933674777227127 0.23535749783253013 -0.5561319277789842 -0.2710582936682493
Ni 4.2213411642168355 6.9645743813743906 10.188297062352635 0.7186796407386397 0.4042792326393295 -0.4792723983167681
Ni 7.673212631465022 6.068331658660403 11.293172042378476 -1.649396102305998 1.6479742822578072 -1.2739394503253156
Ni 7.826471208089211 4.036677513555354 8.336366168545341 0.8911106742502781 0.4574113365776187 -1.8958252845716574
Ni 3.3284658641814127 8.304826760665344 12.157596705254969 -0.13118873903239986 1.6249006882677952 0.10178071818392795
Ni 0.4119619584813384 4.892102716631854 10.163973560212423 0.8395464290197413 0.44672737450121125 -0.12671450531113015
Ni 8.922544598434715 2.680078157865218 5.580275931915582 -0.042358667471868984 -0.4652886824431664 0.5499610230815818
Ni 3.9848319115608395 2.6854515115733326 11.154202774441254 -0.07328261074423509 -0.0345517698329405 0.7849490533898352
Ni 1.3653855151317829 3.4713589510510965 12.68014446143595 -0.7622960918770098 0.8598211201083773 -0.7451026108168587
Ni 3.3898782141630095 8.717240734374156 7.87774407593004 -1.1103373279592168 -1.0880209238502037 -0.41063397121276374
Ni 6.167076109658007 8.176365485275227 3.5509172617307736 -1.0015590954115332 0.08783222642363583 0.11120201149782785
Ni 3.529776019404859 8.542361670363599 3.5398111205192038 0.19319577686281567 -0.3631161281374585 0.28149774383401843
Ni 3.613362530043424 4.519580448239199 9.14381331357163 -0.22468382016876787 -0.39086475900563655 -0.3369230146818585
Ni 5.254259495270003 4.710171125879397 11.371271741671507 0.3173078115540922 0.8847045136136183 -0.18323840853978765
Ni 8.27933056038478 8.725672905987059 2.2180133067001053 0.10034192885487234 1.2223024428753142 0.6742070122475614
Ni 4.770612278484695 0.6540406196429078 1.7554183814529765 -0.684503251967247 -1.0328296233900407 -1.4904739019140718
Ni 6.463618067424598 6.095035048203096 0.15856567107205197 -1.0764751279941331 -0.5686020352215369 -0.30453868481388197
Ni 8.350790718736112 0.11227767798881966 10.883543680583552 -0.4552593232316224 0.19932220147552768 0.5646939584163824
Ni 0.5729492693664394 5.307312286526644 5.555832618510256 -0.9725112861159573 -1.520735786122407 -0.05991518829839358
Ni 7.319043270501099 6.175063527332232 2.5645002241191843 0.7104279422528087 0.4854381608078479 -0.4025411669023003
P 8.462950400782017 1.689375144542528 3.302535801895361 -0.6370756546129028 1.025998202290504 -0.9184970366830311
P 2.3070929823118984 3.645421120072244 1.5960839214297804 -0.431594889735147 -0.3191155541867923 0.10489663810509031
P 4.846002609396185 1.269482043375124 8.141136435026398 1.5070624024003723 0.09126130670984282 0.5535775367882466
P 8.644110479600032 1.8055103822035585 12.441341549181914 -0.7590405610541896 0.09060001897676008 -0.7768873594276233
P 6.556607947052363 7.989414528643398 1.2430064767683666 -1.3499001221223461 -0.025078540235182616 0.6218837773638128
P 1.9227620430167816 3.39336363278449 5.833918195482791 0.3663647169817432 1.0730519612451972 0.5673280536051196
P 7.260562665870381 4.016999420921581 5.703145107272643 -0.3333777205327613 2.7292056939900027 -0.4561864630315821
P 2.368314723462633 8.611234994581803 10.032296441547329 1.2064127682282513 -0.637434066393586 0.8099062375558052
