# total energy = -340870.40775723435 ev
CRYSTAL
PRIMVEC
9.24389875697931 0.00000000000000 0.00000000000000

0.00000000000000 9.24389875697931 0.00000000000000

0.00000000000000 0.00000000000000 13.52938021844459

PRIMCOORD
 96 1
Ni 1.4344404725982502 6.272022261158568 5.065210945907331 -1.0817901124491434 1.2102478257036253 1.1362761593121657
Ni 8.648212648160142 3.702504976202273 3.160544437797981 0.21940020317232536 -1.2757569631500287 0.04742708313371187
Ni 6.3151912682088 2.6974528433235774 12.066664633582016 0.3388081475197133 -0.40201486208518505 -0.8783243211188874
Ni 5.984897522831534 4.831619473882074 5.455654740294417 0.061834773918609635 0.2765699675150979 0.586185552631255
Ni 2.56701218840156 4.726682735544979 1.0964641229898386 -0.388518370260647 -0.23725651462745587 0.005088213156184785
Ni 7.470650877257586 6.31157690380695 7.404102201549657 1.701433944738844 -0.9948953102381123 -0.11397134671284888
Ni 7.625929888056257 1.7733125559932073 4.767726570278113 0.6054901664971378 -0.2438984454240058 -1.0217543394124855
Ni 9.05722743508768 6.788090639231447 12.286408745315786 0.0444443463563041 0.2238286712573242 0.061446023120623215
Ni 3.8848501224705543 2.251980119820853 7.889279318860124 -0.3422575395208944 0.012680166570829774 -0.18842380939546904
Ni 3.0877579792297745 6.261484216610974 3.076932449431803 -0.22026769337894322 -0.05425027670313237 0.7252758058989187
Ni 5.032702002867875 8.747196315717717 7.4371953589885935 -2.251561318194961 -0.4540372778990632 -1.6464904986234288
Ni 5.245339405261126 7.927807888749924 0.27213113459352795 0.33162782772119015 0.6128820880858348 -0.6480025859380517
Ni 3.0064856216311364 7.316536597698385 0.8797899100229608 -1.3134372513096217 1.2979903206269323 1.1956570723736442
Ni 6.774918083546954 6.827599062386199 10.889053870016214 0.8047568321443817 -0.1592304756609645 0.939783199755317
Ni 0.7412691632245819 5.506535007661844 2.938946924369657 0.3457007608744885 1.5812487559057993 -0.8791781844787503
Ni 3.1068836056937847 2.4305352676114906 1.292120483423502 0.32346560362537197 -0.7897269343944529 -0.11572201085536844
Ni 8.810997704724294 1.8784156845073692 6.771698433620703 -1.419208835820498 0.35048969762269966 -0.1847723286858108
Ni 7.349472608858981 2.485980172169797 8.851962041928383 -0.46461685318712237 -1.3848139032803957 -0.024417509612416014
Ni 3.6947308573737407 6.148043091445997 5.6709617806397254 -0.5178343177503663 -0.29121060024640816 1.8213743645509342
Ni 2.357878223625448 0.6051647715531688 13.42084772866174 -0.4447260278004664 -0.24150089172610661 0.265830983831039
Ni 3.661480553656464 1.750665004114606 10.303854070931372 0.3817211448331555 0.2203114021326851 -0.38229964304444486
Ni 3.061144794797736 7.209640152831388 8.059560252901155 -0.008569229726249758 0.11305911931122464 0.4084680739096965
Ni 3.893881411525817 8.481748519903059 3.953068246288392 0.6591115513670197 0.4619333928176883 0.08574809020109747
Ni 1.3118848632894762 2.0958414264406677 10.704323797876635 -0.22483937191002568 -0.5597152742548683 0.15889931757379086
P 4.010946144991371 6.1603467206502485 12.982441041345137 1.0514559802419763 0.014787699832135822 0.09803616353983116
P 8.053987106359275 0.36775464496421817 8.669735217563794 1.645291078998689 1.5088480335458851 -0.5267347055637897
P 8.515054287012692 7.170732583093823 2.547406803593672 -0.3734699605679568 -0.057379309250417315 0.3488673315279282
P 1.1985639088079363 6.1623896222686865 0.35646229828058584 -0.8393713368944575 0.7122410842021476 -0.62452918540646
P 4.49479953600428 0.7867814986018445 5.5258723194066794 -1.0725657656373977 -0.850625055431406 0.29684465860373394
P 0.5846377700423028 2.544031856168824 4.537876104067252 -0.8577004742209486 -0.5165415670808717 0.405575839963566
P 7.007522307188279 0.736136950651929 2.6399474737392548 1.1729758287260446 0.5423243324719306 -0.13458233809498113
P 8.427459102685498 6.010105634657226 9.504227250659934 0.23804147242259652 0.13092931472342612 -0.7106698830602858
Ni 1.273384025095854 6.567032045098847 9.81245396099859 1.8289848299083404 -1.6261538439486056 0.080340546032281
Ni 4.928347630150516 5.199702277251064 11.342964424275994 0.5985091071936144 -0.14140758854693067 -1.078714301737297
Ni 1.297076137530489 2.050065639949715 8.062969402751289 2.3894740062147557 -1.1657464008571408 1.9842578635834538
Ni 7.349897828200374 4.961413055893273 12.500497439809012 -0.818649530966074 -0.09717484398080038 0.4853281175925448
Ni 5.225927217936611 6.3686117589461215 7.870567819059036 0.2657926743939358 -0.8050725636125876 -2.7739164066338162
Ni 6.212084821819445 7.8312830982534525 2.9253898224981647 -1.7262877705577302 -0.7514563209490284 -2.516444079180118
Ni 7.655612046865314 8.515895481796754 4.310297788163233 3.194907038490556 0.6445693918867867 0.4860827363703822
Ni 9.041327929279031 8.096675430675756 10.09809967552947 -0.9077809358171076 1.362582088465389 0.15554968437526762
Ni 5.194165181914214 0.1320444713509715 11.237192037494072 0.5597546121332361 -0.14756306662536522 2.0295447604457113
Ni 0.7988854595936161 8.439402219839437 7.69034322315849 -0.03849249964824339 2.473186296932747 0.7431465155317524
Ni 2.22185425387295 1.6537334820741925 3.60098016088493 1.4027836003849388 -0.43449020900507107 -0.7014637910809856
Ni 7.662591190403413 8.95834545041609 6.6290170080057695 0.14270265320927036 -0.03837114357903069 0.7616851977658882
Ni 3.1425742986747154 3.2941557499830028 11.963435243339607 -0.38467148571073106 1.074085544716034 0.46170585018791455
Ni 6.799571561449088 5.2462915268299 3.2071530995641426 -0.6419095856664364 1.4649855278349804 -1.3612751967285073
Ni 5.58204841635421 0.9261462133539036 9.072017673049217 -0.1462374058354062 0.9118723322776618 1.546475356980356
Ni 3.328247248484342 8.150142140906706 12.073686299054255 0.5833133732897825 -1.7653299720618567 2.7024482233905007
Ni 2.7599415987110647 8.259645365214425 6.015013220490838 -0.33563412066710585 1.9802870518611637 -0.04880853686227078
Ni 0.6279944282366715 0.14504139295967086 5.365779086151528 -0.9715496935336363 0.07327026944906091 -0.3946841327517267
Ni 6.148163262129433 1.4653335821404074 6.900808891516054 0.025478603887078698 1.8187266425154418 -1.2767337252410011
Ni 6.076208754446564 7.4427805225988175 5.6656040169381585 -0.5530836278709637 -0.37917061049715994 0.2558651308675787
Ni 0.0923280604748856 1.1997378839461332 2.3291102864003883 -0.26815628953010595 0.06940513006669982 0.24156465508450656
Ni 4.738986364749232 5.746830155043168 1.5361529390597302 1.947008492313692 0.3432661832910669 1.2258647063052759
Ni 6.663640030683851 8.091831627743353 8.883945931520204 0.8401210705762886 -1.210057049849058 0.03718997878673595
Ni 3.302706356304516 8.65824227827781 10.00877865531014 0.5451841705182289 -0.3740014075913946 -3.0653715187908626
P 7.288601535748535 8.301372324063408 12.495748849033488 -0.2818232454942372 -0.14280215490161213 1.3346287977855724
P 5.262292715524537 3.3462173876076076 10.016084108473265 0.2007926153734671 -0.20204885637807138 -0.5681639192428538
P 4.961588689969068 6.48678576025879 4.14833821175531 1.4444578401952737 -0.7947148745273475 -2.4864912415717693
P 1.001752061033528 2.6987192574490337 0.7421232994668606 -0.6452005977128824 -0.42852704944310066 -0.15259882927705978
P 8.955156305355633 7.3570156302193634 6.01999198434464 0.06934625180430638 -0.49603264849424256 -1.0889298088177182
P 1.785283404843325 4.116548444036734 9.976415765870554 0.013409074317054325 0.012038162111456686 0.4341179132673169
P 4.095222769675946 3.3647144289582536 2.9696181803423913 -0.004867355394630326 0.27280073028065277 0.4164282092970376
P 1.5796713654818033 8.955137817558182 11.239059305036717 -1.9171698116857046 0.6377022324533081 0.0970959111137489
Ni 4.899432714935714 4.171494178063839 13.439639650381745 0.09376530407861916 -1.6722408681146554 0.35311505106068863
Ni 6.493034635797539 2.9042481017220223 2.800568533611658 -0.5396066764304513 0.018684463783380723 -1.6117343260891661
Ni 7.908950335348965 2.3660775617953735 0.7090671176228286 0.030886148055895193 1.6136366853182014 0.5125902957426075
Ni 5.402143659349581 2.500280483498857 4.715489298577715 -0.9929209601205609 0.42896670808368054 0.236271010785735
Ni 2.2918305672284656 4.402203402466341 4.428748182047808 0.6111093124561281 -2.5987011255088213 -1.9793131179836685
Ni 0.6279574526417677 8.260874803744978 1.1156812640512364 0.32832833103431197 -0.5033829182117266 0.23022300481944222
Ni 5.6380109792411695 3.96701913824561 7.875168507454946 0.15996529694446002 0.06766089368208347 -0.0765229720584037
Ni 3.829922876240902 3.784914333344204 5.931942924590001 0.3056602000128349 -0.8681718060659177 1.1179539639642102
Ni 9.185042822771527 3.780125993804157 8.485857432886748 -0.09791969256662492 2.3951157778815655 0.39924732664237694
Ni 5.934324152901808 1.108611530305622 0.4431654463807249 0.3970076386785808 -0.7997529511718872 -1.024846348074248
Ni 7.530440414217094 4.262001190489711 10.329032602281142 -0.6782976373771673 -0.27496894157656515 0.19378121705264048
Ni 8.724983227079237 4.875611187918917 0.9416325168895039 3.3644162703697087 -0.18206675682918966 0.8063511732146951
Ni 1.018233932461914 6.252757976213668 7.45866616255938 -1.532288781067329 -1.8242378021416583 -0.1345738534545489
Ni 8.396390359067547 5.394156930850352 4.884917945156213 0.07804095136482687 0.4214819696708612 1.2427470838829113
Ni 7.4693382436385 0.3684913836926772 10.811111164738666 0.12948949695310605 2.0593672431237824 0.44227345249491573
Ni 0.4740456144646659 4.148939065172497 12.444838076800265 0.28644686030917765 -0.9583995293049237 -0.2514690586824121
Ni 0.8094244285310829 3.895720947372283 6.213867969883683 0.2997212088205806 0.47914641426186505 0.5883802462897287
Ni 3.6782582298440807 5.168023436317199 9.286391079623204 -0.765305825237611 -1.0908558221958375 0.1269309921973104
Ni 9.134201379778748 0.7840822801738643 13.124323794110149 0.04621223689000428 -0.5002256035296675 -1.3771075357750735
Ni 1.4639562412302396 8.074536293227082 3.6235472908446154 -0.6971206836209414 0.6423060497739067 -1.1945808085903296
Ni 2.2511943884291465 1.6674329399860646 5.967877656497296 1.5839628124028526 0.26802387771729974 0.3490727626705149
Ni 2.272381404309046 5.563690033484454 11.805912738320146 0.0596418800323489 0.7875607799810694 -0.05527460420258868
Ni 4.912938050974342 1.1047013611445413 2.4941416103549474 -1.939708873328485 -0.4574997825263669 1.0692464714561778
Ni 7.286447707345387 6.766108648061115 0.6761736283963735 0.2295144087881918 0.4662507892461196 0.4675589665345819
P 8.619926318058704 2.4234267094912276 11.564995476554566 -1.8094261910501226 0.09805441837227628 0.24874420355208127
P 7.5389725327411545 3.8182293443525626 6.646686720420441 0.5938957767913192 -0.32039673489206116 0.5451121796297128
P 2.8024912645466578 0.33639656731614503 8.105614280743758 -0.38329697396070767 -0.05791229893575188 -0.70150467162125
P 4.94355384355472 7.014242621562052 9.743940956811395 -1.8862929196011904 0.3749660854975091 2.2733308486615686
P 6.821997259758267 4.388614871339181 1.077969854808811 -3.403932840407092 -0.5606239021120667 0.3141409837903364
P 4.182170881092323 1.639627292618378 12.786509212729442 0.8450362484897189 -0.33131903823151976 -0.258331075909568
P 2.611798877728835 4.837184300915101 7.370562563802257 0.5590904961866758 -0.05964342269424566 -0.19991124120977827
P 2.6971662824630727 0.014139467491227976 2.1935318725664823 0.20859617057828592 0.04300221459313885 -1.124538302049947
