# total energy = -381173.9465428746 ev
CRYSTAL
PRIMVEC
9.14621386193092 0.00000000000000 0.00000000000000

0.00000000000000 9.14621386193092 0.00000000000000

0.00000000000000 0.00000000000000 13.38640850039801

PRIMCOORD
 96 1
Ni 1.2033216017109036 0.9529165638084135 10.964699544083246 -2.1906634542683237 -0.8559559807260161 -0.6736226004990012
Ni 5.247173637213117 8.740734580946713 0.2765394288478688 -0.33429920390576623 0.15949709905878984 0.06087369555692097
Ni 8.340368223683814 1.9392076613046854 8.253429804249294 0.9050360260821187 -1.284866895871097 -0.050432959839571204
Ni 6.142313569257704 0.9215816357693336 11.76986542837569 0.18815512911511467 0.45600597158965983 1.6049455853021068
Ni 3.505633945780176 5.545898121942945 9.57871159216484 0.1817692801934289 -0.14636467544188986 -0.08897225356534999
Ni 5.040505793088467 2.125278232240775 2.9503243265699224 -2.024107905700856 -2.8524083294931324 0.17874874819955022
Ni 7.725010967855064 7.498303769575825 3.7485025036172246 -0.5476346889412504 0.38740328281959735 0.4619930424110301
Ni 7.5828422225429035 3.942603450157025 7.681603037769404 1.481018927148759 1.8678845922973313 -0.15792821190977316
Ni 0.4128820360511861 0.8414498285492555 6.417109729779756 -0.2192109699796547 0.4704373165236414 -0.5487528617060936
Ni 0.27408549971976454 5.982327999713167 7.0171415899802865 -0.21331594465145845 -1.0338256687547227 -0.31619760920904905
Ni 5.625387864963273 7.638103645547027 7.096483164339134 -0.017532866677440775 -0.23234750736161275 -0.8307769103572272
Ni 9.169536516514777 5.389909447772919 11.723039558240934 0.9499259446162737 -0.6079453129058497 -0.09014879037195442
Ni 8.300435854793381 0.07749495381854077 12.655577443367537 -0.03630886173336328 0.19271086680659713 0.6009943355093132
Ni 6.900955408466557 7.604436433021675 1.480322914349191 -0.14233035747151615 0.32233431823440617 -0.22986613570065573
Ni 2.2612275522562113 0.6958055220418681 7.950910555467097 -1.6953941663026673 -2.5122246417821317 0.48392635214901175
Ni 3.2492472841364255 8.946917675746764 12.30016838478628 0.19172330608234725 0.9550763784689617 0.4893148701544347
Ni 1.0099797909058508 7.515379750500799 12.97172363589913 -0.1259899684402798 1.3731480369066933 0.7011228628017989
Ni 3.3414136793056635 1.0506987341720457 9.983730628322508 1.5552284205826377 -0.6947434416380163 -0.436873364525267
Ni 6.286713990705747 3.6164769092669276 3.9904344891742967 -0.5839646337205363 1.3797981952333593 0.41208433050604515
Ni 3.6573421919518685 1.3917793344152944 1.0405372907828403 0.0501622226766878 -2.531430782396937 1.3329532098553625
Ni 6.637535308509305 7.690346818039503 11.496850035655509 -0.3422634530581654 -0.16301102574931925 -0.2799185722723566
Ni 6.863080937652245 0.34104675925266364 6.924160267172905 1.1218075333823456 2.2709230105510243 -3.329782739456239
Ni 3.5961448762748445 6.325786615511046 6.892528087189496 0.22615577672860404 1.325730466854678 0.2514325490175218
Ni 8.847507479349579 3.5963826778303076 10.234779559667482 0.28704644156638953 -0.7302727448928777 -0.5945238972936212
P 4.828752654162378 8.796060027446536 10.6975605936471 -0.17921231809953006 -0.17566213885442652 -0.4954690626812886
Ni 0.672891512930278 6.546786576459174 4.457660582998338 -0.45484588984328755 -0.022378624805516296 -1.0841650404392231
P 0.4276897559855908 -0.248023363862392 9.067243433568285 0.1934120066386798 2.2227577636997076 0.6504716163038347
Ni 5.646158916211595 6.218364335937491 13.5202723739633 -0.6322813185480529 -0.6182466948318579 -0.8137497796716114
P 3.9774139393913326 5.018801828045637 0.9197871486469553 -0.5531412205817765 -0.7363775722390351 0.5453376653769576
P 0.38035261250658836 3.1359165505309843 6.756909860108974 0.6361757685064527 0.35834544622169257 -0.16880577805422542
P 7.191475739532912 2.8635880384575443 12.619406912160256 0.6615042199689123 0.13510041538198023 -0.2101624866241413
Ni 3.9583898149542964 8.78971255515841 2.6471886229862567 -1.0035815251582008 0.2657677346932713 -0.23796973864439658
Ni 4.292565023875448 4.269635466200616 6.115835280678271 -0.6412896926942504 -0.8260190839572678 -1.6809448236465567
Ni 5.154431030582566 8.962136975296394 4.693301802792048 -0.0005800408731860978 -1.0929129618351823 0.6061928489911174
Ni 7.959428424259507 7.6672160436638945 8.424481377715162 0.40424735096012954 0.1728272405087927 -0.4709839330557307
Ni 1.6531323900827521 7.300672384558767 8.41792262789122 0.06101562045142395 -1.1292254231129715 -0.41484158153620815
Ni 2.2615110848800324 4.82112471196022 7.751373099520866 -2.384952721305635 -1.4566014175363429 -0.08095555390846057
Ni 2.2794102250354555 5.834607502702314 11.974958294506083 0.5867967038526927 -0.6509740098615499 -1.4514450701463841
Ni 3.2472991406243636 7.0934100365454595 0.5170939946259897 0.1285703275729463 0.0574700691920107 0.18035285946187649
Ni 2.4741788451732862 0.5400107476016811 4.79562689748639 1.7877517914004821 0.1768250488142761 0.08230486884750342
Ni 6.798435499421009 1.5419693091174929 0.8957810816229702 -0.5157033874502925 -1.0619591937661452 -1.0963811228894407
Ni 6.85375179970716 4.822368597019565 11.563808551324307 -0.7303892158660841 0.031789376596454935 0.2659921919992516
Ni 5.564318596277652 5.025277347325166 7.845559893290173 -0.4120087400731033 0.5154262225295059 0.22729708942189886
Ni 0.506222805055864 3.285585191053899 12.55226089911119 -0.48183681660983463 -0.6277574625357705 -0.9835824563284545
Ni 6.693116848991934 5.638622436146154 2.8327378597430624 -0.20925951519389765 0.23608871957159985 -0.11145500804889837
Ni 7.9535839937233215 1.3315332249601222 10.384987826797024 1.130152562912931 -0.21019385408270896 1.3471536697254605
Ni 2.53537616085031 3.140325025520721 0.49840919471617173 -0.6944066271238879 2.809482219553568 0.5275803413935365
Ni 1.8231422098114207 2.629152289625759 9.16331800583942 -1.7675256941615949 0.8544007204237544 0.2061348535219869
Ni 2.7225534236406697 2.4012926684238907 11.586846948941831 0.2686399140347438 2.031553049124992 1.026382067992484
Ni 9.157920825151777 6.8229839369157235 1.9172411999294787 -0.04769833451722753 -1.8992433091142709 0.03172741301026794
Ni 5.6862193320934304 2.1385402420646704 9.851232174725387 -0.7335748126829172 0.8244129158124124 -0.9568319277074875
Ni 8.966737520773234 7.6678288399798955 10.883565311844755 0.10201854522634689 0.9001789551001337 -1.2465762278210144
Ni 4.038071628461729 4.722418774015752 3.401713751421498 -0.07608151364561092 -1.8529228287811763 0.741916242669077
Ni 5.736175951167995 3.6002332337860734 1.6283763335376917 0.03860151442228191 2.4227242836274536 -2.1967685387247973
Ni 8.145105708007716 5.7689559809671955 9.60944652858706 -0.016533478878648946 -1.0181151999980016 -0.8662830736836372
Ni 7.41351836883961 0.5612226463489766 4.665980233312088 -0.2641895915728741 -0.8634306918365064 -0.5401736046775149
P 5.415207874788709 4.308973331202392 9.996581058531179 -0.6509143602682079 0.7511722140497064 -0.1709991861611184
Ni 1.162200225043156 5.2827981394642025 0.5617522121205653 0.3905852800920047 -1.1249784749111593 0.581490718258747
P 7.291078006417203 6.184706269625812 6.8407623470506795 -0.7380616448096773 -1.0312291116721402 0.18269513444180793
Ni 4.2000327801593444 4.424663787935119 11.86482873568572 0.10388336634922755 0.34209684557331405 -0.09117080387856556
P 6.197163412646602 0.22116459279421855 2.700372940865546 0.20891421603933696 -0.5071603829762878 -0.08788930491381637
P 1.271662110265488 5.357632459725659 9.708827457100499 -0.6056711721596924 -0.290312513912171 0.46630195419902926
P 8.280533693843868 4.353936117612233 3.004953746209333 2.0643464415059283 -2.4971685187799575 -2.519490322205609
Ni 1.805105876450923 1.4564156264328596 2.6001624507720904 0.14002922014216526 0.220635104020691 -0.4089856369760633
Ni 1.6739491723994322 4.079357636975566 3.1441060702525823 -0.7539479770226306 -0.003158086013007464 -2.3970453908041107
Ni 5.834058729882015 6.7841125288112005 9.201496130947628 0.7970882598555304 -0.27090171348572695 2.21798913866647
Ni 4.878535495177181 2.0679040338785013 5.238355772612278 0.23848293083538927 -0.03361434562033566 1.3381116141278504
Ni 8.000293706944449 4.963897107374709 4.896038604280622 0.8001872104958283 0.7906903267489865 2.7372540182157765
Ni 1.6817234540203365 7.7704402111621595 5.994861970928799 0.2652324310150916 0.7994253926291394 1.2005192855619518
Ni 7.316861182757591 2.5564490371497968 5.664498903865991 0.8478323231776173 0.12951752197756405 1.6330976222562907
Ni 2.2040728630220574 6.274723304582212 2.666545669600941 0.591520334580607 1.1843609306345344 -0.643610113297311
Ni 1.3448684044933912 1.1494686956122164 -0.02676182120325394 0.437079309888486 -1.5352807738161172 0.5185028045723005
Ni 3.4708417489732115 6.8413403877547285 4.605888694867967 0.0833415376421339 0.3305847311686565 -0.2868713494411059
Ni 7.636118917180278 4.924778751501053 0.6839145296473532 1.254697314266252 -0.3253983018717106 -0.454810665729978
Ni 0.41756672669380623 9.285784892281475 4.000514531261825 -0.33436630969827574 -0.8122474840944721 0.9556957572205154
Ni 3.9301280147088917 7.97866291161099 8.83298146279626 -0.34531149585586984 0.8290681551962368 -0.2229239000548677
Ni 8.742792479022834 -0.17542254897955226 1.8889162908097394 -0.39250152327811116 3.1031937318449585 -0.970646979213709
Ni 2.766912559948182 2.264959207434245 6.479128375444494 -1.5175221642811154 2.3264971482719026 -1.0816281329499824
Ni 4.487882416833577 1.0328819099396676 7.560134917860294 1.8957707771846384 0.3161101917015653 1.023866757769798
Ni -0.09907818884090532 2.4712154719436707 1.214982109520893 0.48860601701286815 1.06512010799263 -0.013115454336035478
Ni 0.43007051540432184 2.736684323763372 4.5389960319376055 -0.6299007341310183 -0.9122870512175771 0.6443775875909548
Ni 4.359103728336716 6.746110011005488 11.301957027011744 0.6491665243391659 1.312759765626623 1.0994679893448807
Ni 8.338804221145963 7.901441429581232 6.044043905705373 0.36226869253549865 0.10220957819123043 -1.258694351240787
Ni 4.700239205861996 6.608596688452199 2.484597297166665 0.1641145432261432 1.2315902959351435 -0.9620854627969431
Ni 5.77268763614523 5.975075052271547 5.199856615404192 -0.1285793264340108 0.25409132679660756 -0.44414804380980927
Ni 3.8277635912957617 3.3246852545002117 8.373158314318054 1.9736487206090398 -0.5799015193947561 0.9784533626320052
Ni 7.747281998145537 2.0499774550820637 2.9207537031481046 -0.17362531093005582 0.222426648703475 1.7254935567912086
Ni 1.7889719555341286 4.700184328579965 5.343385402689326 0.6110252373827542 -0.3472135979745891 1.2079088931578037
P 3.73297223280276 8.597294511934193 6.4421685259973485 -1.20890930939786 -1.1055602182855477 -1.11248291354731
Ni 6.5457713467416205 0.1623800482837764 8.912322122533741 -1.8936303338028675 -0.3784663853412837 4.047045702353011
P 3.03856425220992 2.77858312859321 4.228337567609006 0.06676357867879469 -0.31058283412543286 -0.011916034711295608
Ni 4.637313255801029 2.4971998649848346 12.931939435670177 2.460242078067253 0.17437350194999002 -0.859512844839339
P 8.079563940836657 6.768252994304557 12.757715955302979 -1.1270315007854461 1.005753593108855 2.225769553942838
P 5.798278741998512 2.810283905179156 7.371774135020822 -0.38604265502664487 -0.6101896288553361 -0.952365921516334
P 1.6453398160345045 8.440409508824345 1.6054586659406331 1.1087267889389874 -0.023084392623289273 -0.07575421221317921
Ni 2.1937376415730907 7.973815418365016 10.588541385166478 0.017656279629182495 -1.081623247853976 -0.03978576453837019
