# total energy = -381175.953775095 ev
CRYSTAL
PRIMVEC
9.16836948397235 0.00000000000000 0.00000000000000
0.00000000000000 9.16836948397235 0.00000000000000
0.00000000000000 0.00000000000000 13.41883549278564
PRIMCOORD
 96 1
Ni 8.27713959206186 3.0320530622319777 6.89883755350405 -0.33053356621574687 0.4793461889774971 0.8169644299541672
Ni 2.289268458019845 -0.06351296123258525 4.759620460516501 -0.5869962214580084 2.624435039939816 0.4689972416430052
Ni 2.085244736810052 0.9030128591263724 2.134936381378648 0.39577376627147964 0.9500701835036218 -0.8598314045210224
Ni 0.44651241882562387 6.284522889916012 1.343748288479373 0.12837929460806277 0.10813957052242021 -0.2283381290919035
Ni 0.5958862413693847 2.7726798957813847 11.464489243381504 -2.173913488503495 1.7517882288216795 -0.7251361949972609
Ni 4.846794232306141 3.5935790061143744 10.194141085547948 0.06294471915333676 0.21546512978397733 0.9680704767357843
Ni 5.350156041583993 5.891694940473026 9.14480196982084 0.3131907040619251 1.0889948577276989 0.1160534260528582
Ni 0.3756583443241454 1.146706280463363 6.254264520837295 0.8713278351963961 -0.16520931895221871 -0.6395117748582213
Ni 1.0432504016995423 6.654365737616629 8.378398729550263 0.6096579247215823 -1.5723360267972017 -1.5585207181806642
Ni 5.469482367542087 1.3557542680292862 2.44375731377544 -1.6182343319912131 0.18505129337881032 -0.17883616570703395
Ni 1.2716711535182086 4.176375566686957 0.3311981712570242 -0.921720171606019 0.4160420296022126 -1.9213152013126458
Ni 4.174560229572881 8.462212294005008 5.921852457489849 0.4775453883233323 -0.2561978316166491 2.068247833442864
Ni 7.108319204936113 8.68459109047935 2.939543299531266 0.9852814412974321 0.19361538089873753 -0.6940366453789789
Ni 7.196555590723335 5.749126798433197 4.49359197481789 -1.2499939952533117 0.1764697223573864 -0.08733266107939798
Ni 0.8027384044968167 1.6437969251653157 8.450887524291337 -0.7758128954165219 1.1630711680178227 -0.4994619858907656
Ni 6.857206739191494 8.647651730718676 6.288952129106973 -0.15212986006044124 -0.08015851192846193 -0.15479429426648178
Ni 2.729735254153439 3.6612965814909764 11.900064714513281 0.8645558065798853 0.45695547998712266 -0.32803676793582215
Ni 0.5806667483927858 8.145170084890074 12.412207987871247 0.407435261769808 -1.5375302319719262 -1.1133871705291343
Ni 1.3453940107620834 0.6527668042771075 10.721488265654765 -0.6091164503958155 -1.0364358526840602 -1.5629635844433662
Ni 7.105642041111314 8.132261020967753 13.16995628755754 0.1502465269947993 -0.4733169520642817 -0.5351578966304783
Ni 3.6314993813861896 3.67647023262126 2.6195442913290106 0.5244101711956711 -0.6419005868053719 0.8106125195942105
Ni 7.650637415212501 3.5157670561791963 13.14342669425809 0.08189323523138155 0.1286261205115462 0.0965040431660209
Ni 3.9406567929349343 0.9129055295611617 0.4996733743233429 0.023219889759889045 -0.8831412828915565 -0.1164293213350382
Ni 4.601008589103332 4.053354387915871 7.839538828159884 0.741486097110194 -0.8447773384013775 0.1601766416243177
P 2.878125310675279 7.879204860939375 0.9580148231721041 -0.5441832400575403 0.13675749136942897 0.46483488273519946
Ni 5.992372803350153 6.356357063091707 6.504901148217164 -0.6629419808567034 1.0945625816234632 0.5730456728151874
P 5.725050660748529 4.695167741434458 12.181430965151986 -0.6143087932300324 -0.99566252742144 -0.7417033553273227
Ni 2.9214641921815336 0.14868252750132974 8.763291455396114 -0.08004666894094602 0.567778510878977 2.214134283696755
P 4.148998816067605 2.0436295087252434 8.65944225359091 0.06461799309070163 0.13475640177900017 0.12355076287116785
P 7.340132253382094 7.64752933803234 8.867233257730874 -0.305496420741461 -0.3349095837962555 -0.358108390510222
P 7.433686293341863 6.559610641283407 2.2288553224350838 0.01694074161939663 0.43055025052071655 0.6815832501069746
Ni 3.076675515435054 1.288926024471196 6.739985470816188 0.08019605003461672 2.3266799537066705 -0.6273782248194808
Ni 0.387649654483238 4.193841310132995 8.812806150437932 0.4504364479216823 0.2082292741571704 0.7500584121602373
Ni 7.815108791421663 4.465665122042757 10.797586647374686 -0.5251781597099471 -1.288739748562942 -0.42375713885828314
Ni 3.8107776739551147 8.706100084770375 3.087727984581614 -1.758874960465132 0.4886615528411519 0.1555694818696095
Ni 4.928704443301885 2.765711935141496 12.97542274537189 0.7705909848959502 0.5066063102450307 -1.1768769635526632
Ni 5.496730760991756 7.84965520680469 4.309338008249928 1.8029213000520692 -1.451644330641384 -0.2767604862593492
Ni 2.8142126085428263 5.170410162182654 9.169573069895645 -0.3568902018324047 -1.110817867140061 1.1469143557523023
Ni 7.3709471424750745 5.050817953515934 8.091691903815855 -0.05807942064123546 0.2770636193220648 0.12158412606310028
Ni 7.333531027512725 2.018159778912598 11.227955401601998 0.2082974083909445 0.1487858832888728 1.3655247160334805
Ni 3.7830800304115573 3.3425032138468067 5.39904178649437 0.22736985164136325 0.122145397883209 -0.9251124851170197
Ni 7.539507611375541 0.9049207967700051 8.246196345799197 0.04180228074776672 -0.2976219030893906 -0.9315872942080858
Ni 0.2779253616542964 1.367508117424467 3.5179619637807615 -0.5411066580147456 0.6309551435374617 0.42348563036445136
Ni 3.412026957968222 5.6366675810531 6.5887550534966675 0.353081883829908 1.6615535636041385 -0.4646855016415288
Ni -0.21746088320166243 1.8145578026889033 1.2261483664535042 -0.5623313717214766 0.6862297477400504 -0.5611005846381691
Ni 2.019259983224159 8.536054340049303 6.939953105464024 -1.563790965440668 -1.3149418608796062 0.8314366554284132
Ni 3.263288503414388 6.87071174711591 4.385717858906223 1.5492583190421318 -1.7211797599072034 -0.8335048508113516
Ni 0.22760293328040568 8.711601106328182 8.63111565991591 -0.1618432306934632 -1.052615033547084 0.5584379502043415
Ni 5.85492977972835 4.002314076228686 1.4285291158913656 -0.20386431232025534 -1.6098715618488144 0.8066820741915526
Ni 8.035928965121293 8.851235370203845 10.821901162660192 -0.48178462321566057 -0.40051822293500056 -0.8648584254219687
Ni 4.605748636012308 1.165061355727912 4.489781600552182 -0.05682137986441827 0.4286291222386038 1.8942705384900282
Ni 6.67446280304115 5.850565635959157 0.3066691161307635 -0.28390378217234974 0.14245711285736753 1.0740179247028923
Ni 5.065019757504338 8.355712516645868 1.4597813361981926 2.9983685704077523 -0.2949600399865114 -0.14615821585803862
Ni 6.076547601553861 4.069857452589291 6.06908454897377 1.292483274765774 -1.6018540908609766 0.5918352947178646
Ni 8.605788956663767 3.631994473326392 4.53952458798865 0.338357690245856 0.08707735053548228 0.47325473136777857
Ni 5.819466527419022 1.016460426713023 9.798419598765554 -1.068445058600805 -0.000494166027599149 0.7417828024150064
P 1.895578681866135 2.4879561883185657 4.502005787290555 0.1816641220741323 -0.007772959077199518 0.2074342890597008
Ni 3.6501111709901024 1.4406441990355088 11.051497299418376 0.8015763775338711 0.5870075343119181 -0.243029155445175
P 4.998723279363503 5.339254850530272 4.753286951029613 -1.0522921029900265 0.6210201438119369 -0.7098599855644807
Ni 8.987367317021038 8.697362628862725 4.705704031391511 -1.006656821649415 -2.215068879695882 0.7801230927561016
P 8.56847369376331 0.6789718373046466 12.754830864066909 -0.5777554195860307 1.4362853316868103 0.0060366931123831515
P 7.334218655207452 2.146196055670552 2.7842072864557688 2.2448707935486625 -0.5652637148769233 -0.015583713370869934
P 0.2638775862695103 4.982660296414707 6.707713727847313 0.5150742385067258 -0.5421757227092082 -0.39006797413595407
Ni 5.2247969286508384 8.522998582218774 8.280897706622769 0.8962207417833341 -1.6735922399362275 -1.1079158630019177
Ni 6.553376150184559 1.0258763419461359 0.5308247425682768 0.6652112365068543 0.9822447113536374 -1.3404114659056205
Ni 8.43779692665761 6.871151828840534 6.5233919153468065 -0.4269810451122195 0.3559702611212966 0.445735185791271
Ni 9.420224366666334 8.587718100846372 1.1590450718175238 -0.6802354778298284 0.7392782908255978 1.1467911999108766
Ni 4.704959559807354 7.161156516998848 13.093884494108481 -0.1303320474590594 -0.551688804405966 -1.509545316723226
Ni 2.9486850805234144 8.727636584169188 12.141482546599192 -0.5613294128195236 -1.4991313204787537 1.9124749773131964
Ni 8.753665584506878 5.863575551943369 12.784379601364668 0.4565757280502008 -0.3640440392683666 -1.7632023841958924
Ni 1.4482631138930713 8.000309850534494 3.1151964188935963 -0.6243312104630409 -1.994498310364539 -1.230911524700564
Ni 2.3385759479163206 6.288336931529424 12.754442125210156 -1.5050116905189306 0.3874547048828231 1.5008722144292603
Ni 8.771782282170589 6.5281172928649625 10.33997775123004 0.10198486377493403 0.8951365075802197 -0.7451280647381554
Ni 4.970411355079324 6.070652340117745 2.3408221983857582 0.7039073675254717 -0.23538012354034946 0.7899305657648266
Ni 7.443973203654961 1.49538853190495 5.220678497177894 -0.8499539975063105 0.26874738614688554 -0.8356254966987803
Ni 1.6185747413227713 1.3655185812943933 12.860169009040426 0.225497831429631 0.09890031131233934 2.1039920809220085
Ni 2.3749193636748975 3.7370914901882917 7.248157006609416 -2.5189894713097907 -0.9777064571636517 0.18855082189163658
Ni 5.523098990992178 1.3471818427683706 7.006994055189017 -0.3145387334493874 1.3342171641694507 -0.6824494547620118
Ni 1.7338669848051398 4.756137397033484 4.299945013939973 1.1389583341300191 -0.5554467287865016 1.5940518212077386
Ni 1.4650412296443822 6.887948281330371 5.611260196151442 -1.895088406405633 -1.3799547754158814 -0.16619250880109443
Ni 1.926127688250489 7.291695758565604 10.53832075084447 -0.034911467165204386 -0.3790207151828569 -0.808276415261866
Ni 6.632554187139925 6.483861574432407 11.368369893701944 -0.8747373750985774 0.8171284663358573 -0.5002729118278352
Ni 5.900606595396672 3.178856990871316 3.88897927958397 -0.4666462249123254 1.4879357088732503 0.4777140526907127
Ni 2.20909106881481 2.7210986503076824 9.686225347257157 2.041871400331864 0.9381772887207779 -0.05112972879627968
Ni 4.180482996116787 8.105663581735758 10.371592122122756 1.385028590394363 -0.21802800541514708 0.09948498017121576
Ni 3.919633722214849 5.927350728536877 11.227391546892324 1.3859873547632067 -1.5855198724773274 -0.7021747011050811
Ni -0.001574209002459059 5.913451480734151 3.48360991782611 0.7759116257779154 0.8062244178288437 0.8559061013246873
Ni 2.585993560847946 5.8554523767763405 2.2380603651751474 -0.6271576241682425 0.5981645793700021 -0.4552472390467644
P 8.074041876147632 2.6325413715962553 9.352015366697234 0.4026388688224291 0.8338018132264801 -0.3839742025333903
Ni 3.8523562285628716 4.770834292962091 0.4566251301227255 -0.005514759170642114 0.261412285938053 -0.5158010893704215
P 1.0865434413594823 5.109752231138572 11.189939675289848 0.24874163244892003 -0.42874199366738425 -0.1381569428201169
Ni 8.074481957872257 4.113654752558697 2.2367181159150427 0.11657664554617989 0.5601541615644997 -0.8525068458351511
P 2.8531965146491505 2.6935660374108594 0.7665325142771846 -0.04280423964971983 1.1812462962649526 0.34851406195356754
P 5.176901367620867 0.12892469173954016 12.027422531945774 0.9963346137878003 0.2903999314196547 0.45870922945343584
P 3.448095322648909 7.0307181274939845 8.514935001451954 0.05970924293517459 1.3087799550432686 -0.8305123438419308
Ni 1.2113341153983304 3.499126465966831 2.3607221438711243 0.26719778227157853 -0.6673673636179087 2.0987043501605083
