# total energy = -381160.76293256745 ev
CRYSTAL
PRIMVEC
9.39787742084632 0.00000000000000 0.00000000000000
0.00000000000000 9.39787742084632 0.00000000000000
0.00000000000000 0.00000000000000 13.75474355742296
PRIMCOORD
 96 1
Ni 8.820556133001592 1.8391739507532685 10.54837463773018 0.030404837544102475 -0.814740682829971 1.1613562422092452
Ni 8.297686443536236 3.152734031921407 6.329217439119121 1.1310115684791169 -0.0896206857826263 -1.706509045268906
Ni 3.2357454805445798 4.203538866621154 1.7147488770143091 0.222014757977037 -1.129686679020106 1.1456771409110913
Ni 5.28240576240873 3.368189762832181 4.146807641583381 0.8304241550034988 0.4720234300638387 -0.6981295845014299
Ni 0.3836608152249686 7.8853451869087765 0.8567828421422924 -1.485545611374519 -1.0246535153371514 -0.5010259879437758
Ni 2.325899404805432 7.066188625401896 7.144516172067208 0.2520735250356304 0.7207267530756556 1.5181186602145338
Ni 8.631818566750127 5.050005659046061 8.082741017353214 1.492861685419958 -2.636986908462897 -0.024262214981474343
Ni 4.765889037878194 3.4775716546611304 9.161965972259157 1.7864896368586074 -1.7899588263541302 2.1092785261319285
Ni 4.837106150712612 7.0780393484533874 2.030007243603054 0.22185997756672757 -0.3343025463398759 -1.0669502192228335
Ni 8.753051181630568 4.586258014558447 4.390912800902142 0.6700683074888395 0.07531763889639287 -0.09937699383844176
Ni 1.8163747008540476 8.742469171990615 8.868659167053183 -0.40397635668693005 0.5223435184746293 0.2872948101317697
Ni 7.568636727880027 8.745495288424065 6.299809602027347 1.3823441015836644 2.5431488421648134 -2.5328418038118508
Ni 6.469150889685653 0.2227898342171848 0.15428682829574994 0.39844051447036544 1.0345491771843085 -1.2237600012574472
Ni 7.075689879172758 7.728034121755001 8.049633236038307 0.06034584807790898 -2.4343497836815233 2.8724606201583174
Ni 2.5152666288241052 7.400395931632767 4.696777049519221 -2.555267479805219 1.0998821940641639 1.206440021921761
Ni 0.5900861260087185 3.477759612203581 12.268253815865672 -1.3923276951589376 -0.9366122582265031 -0.33296531558569104
Ni 7.238658466354289 2.2738069719153327 12.58737846910262 1.03300497262564 0.3091219333091902 0.5759271081280404
Ni 5.92913947234883 8.26433337762843 10.421638626006796 0.3164704032544614 -0.10810846017416867 0.13247840437810088
Ni 8.723786192271056 1.0878418684395779 1.2701202737447383 -1.0184872386254393 -0.6412403275135536 0.7746582129867884
Ni 6.778829736626761 7.593005423258709 3.8871038858166704 0.40796388057976835 0.2717944005033255 -0.2183149405279466
Ni 7.213904458013584 2.659505246900463 8.069000381212385 -0.28781288741876887 -0.275208568391197 0.02766224180195881
Ni 3.628463969740228 9.458681387497467 3.672612377098666 -1.164133547844066 -1.074975146409839 -0.05037459579781002
Ni 4.73104170950791 5.735684171781863 9.565419656491855 1.4255370920313708 -0.30519945832633244 0.3472534500735891
Ni 2.1990562572828503 4.655614347722605 13.30031364485685 0.8430066196541999 -2.227997157721776 2.347787939329879
P 8.289472698931158 3.395030099894083 0.5853636927546547 -0.0006723434766762614 -0.45575657458301505 -1.0263435014450648
Ni 0.1531816379461422 6.274069756376491 11.211422122567255 0.24998116128297596 -1.392796664375556 0.9375954480753788
P 1.5827998628510647 1.3834802869596485 13.025123127379947 1.0593983750175044 1.800549714496099 -2.1144230464473455
Ni 7.720553411565478 4.6471750540665875 12.470957567308906 -0.3746979194377869 0.5540930429720844 -0.1244161961952567
P 6.57436952194933 0.4873974022664237 4.661276568688921 -0.04202828071564375 0.20028687938164214 -0.10572504754365662
P 0.11632034450850241 7.4269355366267495 4.696735698859881 0.48317918957034206 -0.19545371965905692 -0.4083176643747613
P 6.611265587532323 5.050428563516575 8.047886170681231 -1.474618422939054 -0.056160863462283925 0.16387363085993067
Ni 1.5511008233168224 8.347457600777075 12.18634473822897 -0.5077553362478094 -0.4726183833353602 0.6519985944713222
Ni 3.4989988145004642 2.2511298944187046 5.321063929952195 -0.6813510794915104 -0.008349657516275942 0.21306371943133628
Ni 3.027197189318854 4.821843998265647 8.158708757073063 -1.4728664732449537 -0.3230868801297146 -0.96312701668758
Ni 2.0681720225975866 6.318277370360802 9.451117975989268 -0.2632711935236627 2.2339027245729333 0.6325222309142655
Ni 4.295656858176044 0.6031078245496749 9.854654361540645 -0.9417858320076425 0.2806387382678328 0.35825648605231203
Ni 3.5909476442671493 4.773106607508286 5.171192224328602 -0.9511991549017424 -0.8347762613246074 1.025238184196028
Ni 5.080125855223721 2.271495094143194 11.74734828271892 -0.6228744234118564 0.06015995731934801 -0.24140987467419714
Ni 2.2601518564563188 7.561870256351817 2.262929868933734 0.9852567587070838 0.8176383160927403 0.6285730164585304
Ni 6.196405699836029 6.925098296161581 6.066584365053322 -1.058217724445842 0.6356733749487375 0.42219365102590517
Ni 2.7995900032886682 2.480221945034248 8.91629230724865 -1.030107082252555 -1.2446335022723467 -0.8589438597097465
Ni 4.825979064199554 4.135347870220186 7.070735318353769 1.7637981087983623 0.4264089746588333 -2.1277835269146514
Ni 1.6949447305540337 0.8674983016373837 10.756718055234636 0.12284576638434325 0.14895814720067896 0.20167604641968492
Ni 1.624498243643663 1.503030681835159 3.0918461258323457 0.21280686622552383 -0.20398978215452612 1.4933483952483897
Ni 4.475522828423855 6.636151166152742 4.188319004621241 4.718592137049273 1.8096442205981995 2.376489678139946
Ni 6.039545732784135 9.676806115511036 8.176369247761691 -0.44284423739672124 -0.22517207265909606 -1.4932566068655317
Ni 3.6224587262589414 2.0421962902309554 0.4945369695163982 -0.46792406318348445 0.8258229087860616 0.40568511184792067
Ni 6.92366981883896 5.722123035094075 0.9279736409207664 -1.225489068133412 -0.4047661995780771 -1.3686231524531463
Ni 3.3628517686265926 7.715196621605646 10.931018602650495 0.10275850871616496 0.37163959222743737 3.004970649105302
Ni 7.367851083157499 3.7353648220088345 9.966507895052814 -0.31518459456350234 0.8949894404793942 2.0847558584002166
Ni 9.278289136130796 8.381543701100435 10.456617524656796 -0.6776800583978264 1.2999420450366643 -0.03294740146029809
Ni 6.614686414804917 1.4564454049388533 9.880375411437255 -0.06578553103624153 -0.2246362547602841 2.4987842000065092
Ni 5.45558044414531 6.13389102121706 11.977327492934831 0.5593460638409076 3.0155024018745613 1.4212559481575133
Ni 2.6710646357611556 3.0706717688876077 11.128453904178848 -0.00031521724757365067 -1.750663114078301 0.4770401665521397
Ni 1.5678290445948988 4.164020793320979 3.8107104222631722 0.7461570202233021 -0.5582872835590902 -1.0934400379832458
Ni 7.356733394521563 3.905081084964329 2.450558485684742 0.812975106289116 -0.6538950401630867 0.8337881863797253
P 4.226103169592312 6.598381097997355 6.692838221168039 0.5125478725404464 -0.90387902965954 -0.5115700820082093
Ni 6.035983937354702 2.4729855796499116 1.120235411093174 -0.12835461201771442 -0.21449608100248865 -0.17905908035111742
P 1.193925105398525 4.6335669279931855 10.115581720908706 -0.7956785239921974 -2.988370835765092 0.467021348863557
Ni 0.02566466263387566 7.082484544332337 8.444366630089021 0.30006676508545743 1.5419941812805507 0.5173069844919865
P 6.967304162318795 0.29313388426692033 11.739315917142308 0.790401334753658 -0.6681998868215331 -0.2305456782661836
P 3.817972161915739 2.074665955689244 3.10877828104398 0.02623193711333547 0.8966385460470429 -1.1827773881974986
P 3.017752322810727 5.737272413015568 3.2618133121070114 -2.71012219499599 -1.1799615160152581 -1.9922377964651365
Ni 4.4188442314979675 9.369504931481925 5.928912983510179 0.4981250122468969 -0.9060978916877298 -0.012653427097952401
Ni 3.0563588020300174 5.188370603920847 11.405157479872475 1.4439536468653453 2.4945655339394714 -1.166155206259785
Ni 3.9981764557399604 7.668752312866177 8.986111015967236 1.1530351239380594 2.1369204562189132 -4.557808715078893
Ni 9.7166531145105 0.6182299486275135 5.226197059338969 -0.7141226174955766 2.6558019842868714 -1.591991339134284
Ni 5.767965879697702 2.054234970824897 6.34830922649351 0.5647160699035694 -0.48880399195628715 -1.4037685900060275
Ni 8.225125434273298 1.9161801558951546 3.636314016500665 -0.2663716868258574 -0.3098107318460987 0.5961161814814057
Ni 1.402257245450433 5.430619682507912 6.047108204504623 -1.0843833270976164 -0.37936292901362406 -0.7902288137315358
Ni 7.465015734727179 6.144003137000887 9.893470413419767 -0.572799361132336 0.8052828798511807 0.9624467027911039
Ni 7.269652665104341 7.978487547070021 1.5212334300337582 0.5923050352654315 0.2804363924490396 0.06121642360832037
Ni 9.131776231790791 0.35085658534111847 12.837177802169911 -1.420731186002295 -0.3406338878745424 -0.9309010667743388
Ni 1.1797531066977727 3.2267517121383333 5.767336221930494 0.06148073301330057 -2.0172286620825193 1.0020872000008614
Ni 0.5070737375978329 2.8112245751663414 8.863363463294645 -0.1809727524340625 0.8840959334953418 -0.8351621839091165
Ni 6.840865123512481 4.884546634427067 5.544014467868174 -0.891310191855594 -1.4346105150875486 -0.07095601949358749
Ni 1.8440138574713636 0.24288437508054592 0.9236459185058484 0.33853123970924276 -0.3984489991107977 1.3496628093005594
Ni 4.511253557243656 4.321068717915324 13.587842635207902 1.1307914820485105 -0.3115976485431924 -1.3072738028113873
Ni 1.2708091381378186 5.481349423215247 1.8382661158232336 -1.0545132790110614 -0.02825256708779005 -1.1201774539780902
Ni 8.455721145228445 6.218547098336674 2.529730901503368 0.9807133623107754 0.5359973618126382 1.199828173032198
Ni 0.7649411481748042 8.516281065405929 6.568040991495028 -0.8039659608119702 -1.6463010083204423 1.6011118133783135
Ni 8.731887162350665 0.33560665013441365 8.520829637933227 0.12382869912290287 0.08255632273667718 -0.6126640585377578
Ni 1.0342927645954887 2.5761648725780013 1.264745627818372 0.2804096529761622 2.473830358274649 -1.6066065179442977
Ni 2.099363576767213 0.9755278389484036 7.009595549157824 0.15961357003199608 0.6448275306441797 -0.08628570787212236
Ni 3.871624642408176 0.34407789657264853 12.631503381768251 -0.9792303500073458 -0.3916844266934545 -1.903262200465677
Ni 9.663273172454616 8.766612318318357 3.152559231406928 -0.3801540574563517 0.669521176736118 -1.1282658874131795
Ni 4.288664837596893 9.176491331139717 1.0100424824685514 -2.643420579903383 0.6472659648823434 0.33366979785188344
Ni 8.642475759407057 6.426305967884108 6.241187524112525 -0.7692486119354429 0.046521797710623106 -0.027149820941914534
P 5.3689508128299686 7.7380616566447245 -0.017970620633672794 1.1057458519337924 -1.8919483181147545 -1.0323092321101963
Ni 3.0339542629699423 7.385227757957028 13.735788715809091 1.0232823460212377 -0.5173928593375734 -0.15944413433366733
P 6.023184028713836 5.414079418772285 3.0382302970606863 0.4396771525226492 0.5975233462415774 0.6479192821956261
Ni 5.606623125258368 0.09688365504371729 2.591338684980014 3.1760366839486145 1.0956835826017841 2.2894655494399023
P 5.285478868227792 4.344206291390956 11.190226150505136 0.14434044592300949 -2.5615651398884722 -0.30472406135181074
P 4.217043616046207 1.3274595414323376 7.696095436354134 -0.7813417956545511 0.38030806653571275 0.11265288501174146
P 1.1674700812986458 6.3087761165899385 13.328799550202906 -1.8010546791569755 2.4464277978919804 -0.3996396769847892
Ni 7.636592777352932 7.399249390623821 12.466473840133755 -0.2652560851641755 0.6663733751357557 0.07887784544382544
