# total energy = -381162.81242270634 ev
CRYSTAL
PRIMVEC
9.30212554005675 0.00000000000000 0.00000000000000

0.00000000000000 9.30212554005675 0.00000000000000

0.00000000000000 0.00000000000000 13.61460100114048

PRIMCOORD
 96 1
Ni 0.21725393593442632 6.561059004966452 12.175877879210642 2.234693081684713 1.2804389420067304 -0.9446600682316441
Ni 3.6688979007581475 0.7905923127527739 11.038609295488447 0.6531111108092107 0.7286838031392031 1.2986564934560214
Ni 5.95037445396111 1.9110380021795688 3.9126461510592674 -0.19029145873182712 -0.2655787586109168 0.22729169010526012
Ni 8.820294175664406 5.495733061266728 9.765099918606545 -2.049471324166309 0.5622717221281349 1.1488786785675245
Ni 1.705377305482278 2.596846520190535 10.992360987024037 1.059621289661588 -0.955113145244168 -1.1102290845161267
Ni 3.898753426353609 3.757742503144317 0.8861632822194 -1.396049624095215 -1.1255759992858423 -2.350550075456048
Ni 7.007933122716592 3.6758558907680787 5.697506399641624 0.6276710734695513 -1.089293105694408 -0.20303590288168905
Ni 1.0174386006901965 7.834520010794807 1.222112341852656 0.35443968340938314 -1.4666282056447255 -0.9280060046147307
Ni 6.098055001284199 2.135888984158261 10.18926289650475 0.575224682744377 -0.5009393417672405 0.4919731337128882
Ni 7.471513858191113 1.301190642485581 5.788873738512678 0.5666976191099724 0.29435377386108014 -0.4091612433219792
Ni 7.611389922067234 7.742252226157762 4.867274008508742 0.7174897341955965 -1.0611107297229208 0.938987443326899
Ni 1.0246756544705797 2.294025120747611 2.7516878438634174 0.8510253761936183 0.7359044892573584 0.8760545512481043
Ni 9.018187597417455 4.037894622300874 13.253704949614038 -1.4413743161739434 1.0808326336318803 -0.1839593458662122
Ni 6.72752984616663 6.444847548824644 2.7161267475947453 0.7467602010249397 -0.509222150601323 -0.6290718104718198
Ni 3.4838507145715627 7.011933036759735 0.7834771168188214 0.1499091982600386 0.3393529642795897 -0.15637063761466619
Ni 3.2454558376002764 2.4488869090969936 7.494946842995951 -1.1170144828690762 1.5083111872058088 0.7928438827568797
Ni 6.232907917292188 1.4365086647776562 12.630402065121434 -0.6569963047962298 -0.5229952931260154 0.22157458511582487
Ni 0.5136010559028683 4.454071725301316 2.918085198270709 -0.700462860620297 0.8375430254364672 -0.4343665389430132
Ni 8.577341257109074 1.8795782131239696 11.217001740962324 -0.01619203637883018 1.8720132697537244 1.211015042886953
Ni 1.2656751266327493 4.714531244389657 11.30896813672728 -0.4161996382259994 0.6735575515890206 1.3605300910323663
Ni 4.051968738457325 0.004550599883500591 3.901454763651582 0.6249801569009495 1.0142408046442597 -0.06659748541457562
Ni 5.227980675643913 4.8711511344928855 6.921132197342699 0.33258222121465947 0.8516444978348559 -0.17219989133743893
Ni 7.98173545183381 3.188517526302429 2.723560076227013 0.347391261203034 -1.3316049233575842 1.4052408036761799
Ni 5.848125488467572 2.0734531165825127 7.599928773014779 0.5756448010009312 0.36289784147906534 0.32315218615001123
P 2.71902063889433 5.909054411682881 10.301868848732322 1.83806210961926 2.8812890170832253 1.4912154080657867
Ni 8.39347544088407 6.487218731304908 0.35539794400860986 -1.7254251654471189 -0.7153102100457746 2.5118430900729964
P 6.942074072889969 5.945751297497292 5.987062037649838 -0.8241228953758195 0.7589937669766541 -0.39067141204790784
Ni 2.4574727711012265 8.380368745798517 5.24682213121225 -1.6891800670721553 0.2072252583726883 -0.13218221329392074
P 5.683915063808055 0.1814677282242564 5.4329613869538695 0.7326217047410286 -0.5850848633679084 -1.0611009595309082
P 9.559887584367114 2.322182655186197 4.763422286760243 -2.298593222772783 0.39204412402571837 -0.15603022355611193
P 8.740574958572012 7.66837474399349 2.9267585002563505 0.8683967775925303 -0.4258186493730021 -0.013668241515711943
Ni 3.894009342255928 0.6538854830964171 6.3189990904765665 0.17023351163968745 0.36328119296041306 -1.0694457319511774
Ni 5.4559385676003025 0.3179866549418423 1.2176817393904498 0.24777335499837974 -0.4450700414034464 -0.013066860486287172
Ni 2.2236545399653505 2.170139410918378 5.108838119699792 2.147241378528947 -0.6129520220918219 0.17866621578807293
Ni 1.6485227133155658 2.839259915456327 13.346924341708325 1.0800805859572045 -0.0383793711091468 0.5420957614008922
Ni 6.988659118304055 8.536988635901745 6.93087989484458 -0.259484729898037 0.2534362097111119 -0.17937918269469752
Ni 2.1438236973647737 4.362892289369033 9.156364162931526 -0.2781316555752629 -1.009410473135152 -1.2910527129668348
Ni 8.269747867191425 4.923791863725776 7.21866533833556 1.2080364198746034 0.17691323765270822 1.317908399707098
Ni 5.015129435794648 7.365125446769207 4.802427960168859 1.6593750678955808 -0.1612585618345868 -0.4690054691731213
Ni 5.259905570983598 5.407241939656464 10.83810755769424 -0.6958184198697499 -0.7833200024268446 0.434556029246
Ni 4.818770864779084 8.279189524758378 7.66104466895629 0.9443078270985479 -1.0682601962835088 0.5671313642132813
Ni 5.51459777214927 4.997920503283454 4.324079169962029 1.9001277686017535 0.2722546279691956 0.23224594878674196
Ni 2.138372651715282 9.23949446951141 7.545402502906202 -0.7566316945023808 -0.9115321753294237 -0.23300031045426325
Ni 0.1647052977457853 6.830057875430619 6.102718156888449 0.2917132509144395 0.278251726092895 1.3373549384674839
Ni 8.2363160274913 7.576748806028484 8.415266600506081 1.5535824003387824 -0.443763663887197 0.003273271434633072
Ni 3.3371096819423274 5.603070289508169 12.653029485842234 0.8405342468543072 -1.073123952133713 -1.8263533058227643
Ni 0.9627607059330083 3.4940923549471434 7.416077840190865 -0.8187580315194801 -2.629534308839594 0.9413194338941853
Ni 3.130351334414593 0.773097804983151 13.491403097371764 0.47177968948414883 -0.1030313027615774 -0.2956894619533682
Ni 1.197490545385694 0.36626561744257086 11.146981850318264 0.08936331835618158 0.5209193844335932 0.25171022815894073
Ni 6.53092941988334 4.327432586270291 8.793167316751356 -0.1093230493075601 -0.5954397242396713 0.8982573125973885
Ni 0.31776991541345806 7.833375849335955 10.280262801411377 -0.9692058758918082 -0.18533668582971308 0.008912214887965297
Ni 4.224653399612896 0.7328000663173437 8.77561792644021 1.2564533777254103 0.9268122414169456 0.9223027835823664
Ni 1.1515008360152386 6.4061507059886615 4.061998290367363 -0.09056222376028919 0.9714501918412948 -1.0589121794097054
Ni 5.681580230261941 3.7992113794334537 12.970412432827333 2.0883016667699454 -0.9644647616623969 -0.894863199314175
Ni 1.0108712999588978 6.464456429761723 8.570636284917686 2.5173989868942193 0.6220807238659674 -2.057527361701566
Ni 4.252066763996943 6.140416881638781 8.52828184626365 -1.4151837738215047 -0.526601522420035 1.7947133103199802
P 2.1801578002775974 1.3378596219229468 9.166343483362882 -0.3380923523996113 0.68984394745387 1.0016799372601137
Ni 8.200493541490971 1.052461103881897 3.4724044489201984 1.1851805983223525 0.355011239642137 -0.7154567629259678
P 2.1690975728420248 5.24164549827037 7.044888607624955 1.3024218740357245 1.5419193621785576 0.7574948138336244
Ni -0.08744835332134242 0.6524092357507272 7.273913453397038 1.0271415718663277 -1.2465898546677692 0.27842938932133987
P 4.075893805710726 2.748359543294496 12.311356828277011 -1.7276324575110829 -1.5905144974784413 -0.6712780115262246
P 7.090284841376916 4.497159171459073 1.5778637666371715 -1.3248159254602088 2.6645959284294176 -2.4940975931641174
P 8.2244558172471 2.430915202279898 7.563074681276347 -1.5071984137576042 1.7774450101578356 0.6953301673794218
Ni 5.8167959291715166 5.873883074480273 -0.12083182196792239 -0.4614243143917537 1.2974388189988364 1.0699134156162153
Ni 3.179020055981386 7.148711492783842 3.1983963837764224 0.2828977095053386 -0.7446045881345176 -0.16659334378393892
Ni 8.228632471678194 5.367326518356175 4.281465202001472 -0.2505794569886071 0.0644873810501083 0.4633528988730342
Ni 6.362402808907502 6.795519082774368 9.314688202459646 0.053297682981875955 0.08491505277684086 0.04150377567074143
Ni 7.740075528748238 9.174974925782955 11.35430483687488 -0.7689722183456047 -1.8141133121131465 0.5234673476664274
Ni 1.0265639859839704 0.850085917975392 1.1841801337477118 0.1084154498916262 0.2698704440077352 -2.762834952008674
Ni 5.80479618704209 2.671728631928433 1.6855833122441324 0.26293797855396006 0.28069401698580043 -0.48505249533365496
Ni 3.4891901347128735 1.6301603172198378 2.2013043225898663 -0.610055160160001 1.7759067191364382 0.2441900085224956
Ni 1.1377615963833285 4.446071897215031 5.471612649374012 -1.6869030981125204 0.09270652379680162 -3.487813281271832
Ni 1.4237089398396003 9.11729244443057 3.119472498429814 0.6768840448590923 -0.2772705931265483 1.2375791665287266
Ni 2.5721307722541873 4.668067126609434 2.457380680056978 0.16836020587637454 0.24758489313665752 0.7053309873458756
Ni 2.5064763691925624 7.937745699484926 12.098315825063839 -1.613531270088589 -0.5979434644981315 0.7868676105687867
Ni 4.670411262281228 7.775284074453572 11.720632778559517 1.8528050722563898 -0.2668324285123598 -0.23146870430108524
Ni 6.7766171633891 8.7351332150482 3.1531275891463006 -3.4755051533284402 1.1754191480602143 -1.20971689290082
Ni 1.365663675585627 5.534308976468848 0.23348800567417538 0.8744321851533327 -0.43798022443620055 1.562351147670348
Ni 7.4552816488764995 6.5069578420015315 11.618237769692778 -2.096650810065589 -0.38564002027158745 -0.6616456306427831
Ni 4.664020701937882 5.363521948952349 2.1956542114507855 1.4986384400027353 0.9155569802181006 -0.16182651852291485
Ni 2.639626996200795 8.35167168807039 9.693092163704302 0.3187882527543606 -1.6198885797651845 -0.10530235818394124
Ni 8.121099898797436 9.011127284025026 1.2820608210211104 0.10424434923307209 0.041365193210348115 -1.0721734152949858
Ni 3.372560082915387 5.140447672978867 4.942141236845549 -1.3481836536518716 -0.5805628071278389 -0.3298167426543804
Ni 9.004066970632595 3.289389777195071 9.458880452652089 -0.2349191247435309 -0.9667820969416641 -0.544758652945036
Ni 3.5856717822837405 6.903795825709665 6.417936499227409 -1.4661481806845136 -1.2867751686374034 1.4459897034587679
Ni 4.057308158598636 3.1854943354558674 9.695693038044912 0.5890651881718952 -0.12888811592368124 0.7390713170211143
Ni 7.684476723548559 0.5428776360609661 8.996473645438602 -0.8768374521607157 0.46596128303015877 0.659278158851871
Ni 6.568063505604792 7.990498054225997 13.391021998715118 -0.1961350619967977 1.318462215328039 -0.5026167294696634
P 0.22536724995402815 9.14144076270033 12.988370186455906 -0.6801521740874028 -0.11392326708373283 0.3995628010002667
Ni 0.23164246393892085 9.386775025430186 5.0865102274259435 0.8335665572872224 -0.7877986070234884 0.7180214383293505
P 3.489050602827648 8.83852634200059 1.858583315460313 -0.5225996003494935 0.04300324303440336 -0.9213306494770842
Ni 4.688810866879684 3.0574877839496297 5.73655300240324 -0.9915369352888407 -1.0404046075238211 -1.6290764169120395
P 4.242504178796129 3.377704158417382 3.5029554202966926 -0.5304802886491509 -0.24523130530281637 -0.2301543563650359
P 7.898741886501447 4.151622410885661 11.375216945619968 -0.5376138143701387 -0.15943590680355121 -0.42105336677387484
P 5.749857832765813 8.749504999226469 9.988638370651547 -0.04102246515894871 1.1201982799136967 0.2529960368498998
Ni 8.321188622211373 1.9466093307864907 0.22506400065680388 -0.2602411484480873 -0.5924505597043603 0.22210911746305617
