# total energy = -340882.95316521404 ev
CRYSTAL
PRIMVEC
9.15448808450202 0.00000000000000 0.00000000000000
0.00000000000000 9.15448808450202 0.00000000000000
0.00000000000000 0.00000000000000 13.39851866151098
PRIMCOORD
 96 1
Ni 6.502057411764733 2.2566636544087615 11.257971325983718 1.1623707995166883 -0.27295011137432346 0.5513959557558955
Ni 5.141828674663937 0.5327161281925763 5.7108240383506415 -1.5412061381616167 -0.8572235345845302 0.8446793793709324
Ni 2.961614148595185 1.6635993111709195 4.7405435290575815 -0.7244083156923008 -0.8300981391226477 -0.18852382530844308
Ni 3.9762426590055178 4.71624568730928 5.280596979291173 -0.1658225270561854 2.8303225533376866 0.7593560354120794
Ni 3.240176060492942 3.743828520543516 3.4710604840291133 0.04427002556196891 -0.8687850141698843 -2.3223201340760777
Ni 5.351960789610242 4.13943971455783 2.9024944658242853 1.0140392301564147 2.113748903198456 -1.491355790298393
Ni 5.066899191313082 2.90555206477837 0.3790040375394476 0.03986829694984747 -0.7590199922288993 -0.8091531614398645
Ni 5.7494211901776255 8.242865673770241 12.178221643528365 0.9267212243650363 -1.0753705820760449 0.3904929774885146
Ni 1.9360094072089609 7.0692420177474915 13.182386574284449 -0.11706489803650806 -0.6510773682086335 1.1348268284601488
Ni 0.17948197405357508 0.6759701318841879 0.7426907859472338 -0.7079342292966776 -0.35533648419203967 -0.28365412805538887
Ni 8.13935587923779 0.27120811177854626 6.902862862205837 0.7114247589484393 -0.2780632642311727 0.15202418772051238
Ni 8.801344361772953 2.9212703204794597 1.578881849371839 -0.10937370003983746 -0.7304794615870452 -0.33773316928797964
Ni 7.0709905249338085 1.1332249009797053 4.734768878098788 1.235192668574421 0.5584268944607479 -1.409174334402631
Ni 0.6776307559867957 7.515743009922758 1.7729588234628322 -1.0598537173873683 1.3493784452909214 0.9963448982004453
Ni 7.912095717455878 3.819536135364721 3.744376874367916 -1.1286358691580884 -0.007146124126478016 -0.2360920620057095
Ni 8.009819875644071 4.04102896977815 12.506846703330925 0.3452988974503795 -0.6984969951431776 0.5003955534486285
Ni 8.504180530489865 7.731560061846569 9.061819751953388 0.5825520696437257 -0.5364102809803406 -0.5923649419690895
Ni 6.850330748918051 0.9267454267001066 0.2779210977457034 -0.45618054949431114 -0.3676083595808572 -0.6600698015152309
Ni 2.542887872667504 6.566898649464685 9.411842511741812 0.2683038708515637 1.6013023321225648 -0.02421902044836474
Ni 0.03436594752585297 5.260461683184856 1.2864023695402633 0.2151260012770037 -0.3296514207211097 0.2966140306501666
Ni 6.698228932684153 2.408326055224107 6.935327422597668 0.5403029311665275 0.213257066389065 -0.7298737096822462
Ni 3.6360161167044187 4.70339278631666 0.17924945006125845 -0.6338872295825922 -0.40570670911447543 0.7992299887888816
Ni 5.980352301602018 5.70444519119134 4.546425359771098 1.7120042640555226 1.3763580592035587 0.9368012343088575
Ni 5.524458804855219 3.0876989102556998 9.095115539845313 0.36259702240919495 -0.07599589591034009 0.195807760564366
P 0.24806465095273136 5.735213424977806 12.552281342160322 0.6571932512983842 0.6397835404623691 -0.933016827565761
P 4.12507632306394 6.506707891611066 12.570704749031867 0.8801976268822003 0.7344962960559221 0.4088316278967023
P 2.1977636793471373 9.013929879472837 0.8868400985541435 0.7519826257661436 -0.8258995276602679 0.6057459912616858
P 6.811836127355394 8.206943463303686 5.572068550006446 0.12658929258717555 -1.1998412856583207 -0.2419528916618607
P 4.875039434188195 1.024799146452214 12.404710081981447 0.1463039974072835 0.9950832578792023 1.2712158807465654
P 4.651779783612675 6.385740488679095 8.220031634634989 -0.8622590401259085 0.46228460550952 -1.2062775282019675
P 4.680177005036542 1.1489614656565679 3.3717635848220215 0.2950202038004855 -0.317653367818969 0.7582550890384167
P 0.34517545845253117 6.144776058531119 3.6577818271033182 -0.2535765919437181 0.3490105419740119 -0.898718311394207
Ni 0.8362890164449905 0.22580276731038476 4.755428726361001 0.1270909148139424 0.6830577777699719 -0.9498873780688543
Ni 2.3044592356640834 6.723248148077908 4.594137635186653 0.20518663067610468 -0.4865537624695298 0.16651569646846806
Ni 6.607837519293031 5.788602398331768 8.930527917583044 0.4022557744513976 -0.015101374417812704 0.28669600020550623
Ni 9.014085505766907 2.7669714271528076 10.526304374349385 -0.35462171751320215 0.36803773380879196 -0.3271289114095721
Ni 2.606859434018239 5.527836810885332 7.377358278337966 -0.24369044317825772 -0.11072558608204157 -1.9088857173000418
Ni 0.835353427782992 0.9581087021991935 9.36047301841561 -0.3443969544614004 -0.518501776131036 -1.2002302935666234
Ni 1.3013287620391722 0.9759782625536061 11.670698665999387 -0.10064866146201375 -0.07816899230225892 0.3635377890559094
Ni 4.642689377141398 7.179306425606663 1.2746534997867527 -0.5214495459054503 -0.9209233867363364 -0.00440198572243758
Ni 6.202961983537597 8.017097693513824 7.882978037835344 0.24430673660601795 0.6413850806215342 -0.5702565401058244
Ni 5.050411958629529 2.816964085500885 4.724732813028838 2.061384530664127 -1.0013400374221915 0.6389759569594092
Ni 1.5898141388058757 8.247827406204713 7.909386904490267 -1.0815764537764405 -0.9976569321436495 -0.14536245942962062
Ni 5.406045504043577 4.558880040540657 6.998622467293592 0.16653292285964869 0.43384100545684634 1.1347226987821168
Ni 1.184316097874161 7.5261516626496885 10.944084076229602 -0.9603723367605781 1.147813984748436 0.40205574262544946
Ni 4.96118316519999 0.4670702110074033 10.18241878324006 -0.6350452544464353 -0.28080328887015515 -0.4236175279566253
Ni 0.15480879830192912 7.530509198883653 5.924422957859557 -0.12727654846218725 -0.37481567596257387 0.12218267887904763
Ni 7.429068318613547 6.0327617447521265 6.705288873742208 -0.396370262204898 3.0926360109337705 -0.5196225199990406
Ni 2.410605522707841 5.994093187919627 2.0961845663099457 0.7330389947841053 -0.9812514942024327 0.7154158823857034
Ni 2.5088331777297914 5.4176625491715225 11.581518391355646 0.19837166463680028 0.28525978197961194 -1.7416835362875098
Ni 1.0936866677979902 3.9088198557215788 3.59058880146533 -1.514130107880431 0.07486023964400011 0.07905910821669611
Ni 1.6412440517521307 1.5463669392966328 2.4716915894767575 0.3820312198744065 0.39738764772581886 0.7636148106884332
Ni 1.368595939029041 3.4739267541863703 8.02863326369958 0.5457307870503182 0.12525257605362297 -0.31162413090575364
Ni 3.8105647372359686 2.5894567525460372 6.9231885716601935 0.7928960761510538 1.188888643301559 -0.9546236072022591
Ni 4.401276377086985 7.220144596068258 6.013643512249997 0.0582174888809965 -0.13853155255071625 -0.08348166276442397
Ni 8.440639230069795 7.7499788914741705 12.928377914347026 1.7179879924427834 0.688462236614995 -0.09745946510075473
P 0.36866404347166637 6.189770366493177 7.741530214603736 0.42728006440987704 0.001967151028699838 0.3505735155857575
P 8.751058759812508 2.136739863095849 7.8488784859069884 0.2914587117014722 -1.4348182602229806 0.7803406080835463
P 2.001134434033393 3.580997644506663 10.15063714764456 0.5405214749352368 0.3958814954939376 0.9653430505022923
P 4.306344337704168 6.121056780417244 3.4010396370829907 -1.5384244616514215 0.944976056810166 -0.9827381060502883
P 7.304045477547866 4.118924507204224 10.063573390600173 -0.23716729734775926 -0.1782936629400026 0.9394949790909368
P 6.607929064171897 7.975728562754814 10.087222179157324 0.31829460094739376 0.2761251666681954 0.4979288370756909
P 2.4689745374720498 8.554896393380975 5.794389865573602 1.4748392807006085 -0.09664236851609807 0.9631627550215218
P 6.985945332468392 4.2782766778442145 1.1485385283162124 -0.40924043329934684 0.09941504616522877 0.5537739690697688
Ni 2.4305165338609394 1.8546992458012288 0.15121840815285092 1.7888457957956094 0.16521368982759288 0.6434987845304273
Ni 1.8453891316206767 1.2442688390427308 6.9407001915382445 -0.6984728267734616 -0.2171494594649357 -0.24802480888755352
Ni 7.162874119850428 1.059641127348164 9.200989938598841 0.20053061996133206 -0.06574182228249968 -1.2395928545246457
Ni 3.038969571235957 2.0903998454144777 8.944461963595057 0.7979966306024127 -1.3662844770176406 2.146706846181716
Ni 6.270760120824882 2.274377588469104 2.1875088220167003 1.6311631242377391 -1.477889894601474 1.3577041915477972
Ni 5.004685291636552 6.4404202448250505 10.59593707100912 -0.07629028722230731 0.554829921138109 0.2951469591863369
Ni 7.597611595091566 6.120342730362098 11.196539219572692 -0.4420294548049097 0.745718904244619 -0.2565973810479129
Ni 8.333815510922438 4.197296078000396 7.726858316868071 -0.9346805884214291 0.3510170308810794 0.7427834757653788
Ni 3.3021153255328786 8.629432233752711 12.12740050402656 0.07778821192407248 0.7397824841555259 -0.27536026347771286
Ni 0.35496435234954626 5.300631576030738 10.018661473029095 0.5855162944783722 -0.733032567026202 -0.8412112183166739
Ni 9.284756249106517 2.4636191620584578 5.663259150190058 -0.2478317190401409 1.0804904198011134 -0.2505329200213879
Ni 4.136574359849361 2.647679295504062 11.28228930760537 -1.6379513508041663 1.3420924531524692 -0.030768905751740558
Ni 1.4719867252189673 3.572914231702899 12.37182990783957 -1.0127853031446559 -0.3237440540977392 0.059061067828214416
Ni 3.916381462715813 8.591596735317882 8.08419734337537 -0.4350126571674444 0.29546217643391054 -0.16551476600777945
Ni 5.965961446644468 8.242618502597306 3.159571710101258 -2.093677329259562 0.856125673534661 0.41935001092952295
Ni 2.925325758613171 8.58561885472801 3.107464365051403 0.6236874062314549 0.24614173293222766 -0.5843431001058774
Ni 3.8770171648039407 4.763730015976463 9.377019755270425 -0.016980079497764304 -2.470308975384952 0.5026817783796439
Ni 5.704820525194686 4.459828481608923 11.984224313481985 -0.6805913185073504 0.9101746328602647 -0.15756388659181897
Ni 8.153911514977295 8.17222049075026 3.7228857986056116 1.1962677093744494 -0.4703339581765577 -0.05061705082591928
Ni 4.6831796770633085 0.4444934129817617 1.3750901327357112 -0.7947159029686119 0.16234202470675266 -0.9767242957560405
Ni 6.845716887023263 6.3698391432202754 0.10117723101897502 -1.6437216776290402 -1.5565137150529644 -0.021693940033665864
Ni 8.33792587598347 -0.060746435268327806 11.059043388761678 -0.8513966434901079 0.6946799353899327 -0.01643192030377815
Ni 0.4417159413570031 5.177732576154718 5.648841747217638 0.26960073528611633 -1.3763382617092168 0.33655843225358817
Ni 7.020576760142954 6.27466908715241 2.397638190616639 0.6960572753534335 -0.8336591170010287 0.35681718250262423
P 8.857269128271472 1.5937688775728358 3.5324925904401385 -0.4613505237310248 1.326304594190593 -0.8009341159641818
P 2.129773297814236 3.6621155616687786 1.5366897301518327 -0.7400725045921189 0.13555292953836653 -0.48407599035299864
P 5.193844474834927 1.2442322210911847 7.893375705176811 0.11707981043484353 -1.0428453557548298 1.217345098870039
P 8.417661465474726 1.7580186992320936 12.46102391421514 1.1002431769480083 0.38711017705921075 -0.4267470747245425
P 7.539233425839471 8.359896646911025 1.4226815689111645 -0.13236244762552687 -0.8890833594076043 0.9893257865701349
P 2.3001840898210966 3.681303368278845 5.771933906788062 -2.5305365527174417 -0.5319273055083227 -0.18656618736143998
P 7.1516507177016 4.241246774343395 5.686787099507105 0.3551562498604335 -1.3413411768087415 -0.04247745243792039
P 2.6738336673957406 8.994632219008134 9.909155488930997 -0.4896455140209761 -0.30860257047061046 0.24888947088069394
