# total energy = -340891.61631186004 ev
CRYSTAL
PRIMVEC
9.08722455963726 0.00000000000000 0.00000000000000

0.00000000000000 9.08722455963726 0.00000000000000

0.00000000000000 0.00000000000000 13.30007169376197

PRIMCOORD
 96 1
Ni 6.474902041544124 1.923283846230168 11.089347490993815 0.1476196308949135 0.4970626324206537 1.3204085404211325
Ni 4.497585557243562 0.40596631116918747 6.168373595384874 -0.27896726410268086 -0.5492917649286991 -0.12959491218271876
Ni 2.8010643161947937 1.9898568543875348 4.6507689040233515 0.9706274388296832 -0.5349588932457948 1.381485096017479
Ni 3.815907396320157 4.646443385065815 5.270459470373366 -0.7534743798203217 -1.5626884764051088 -1.0356105285692876
Ni 5.043009871004593 4.432811819576935 2.7081610744671334 0.7927166131503961 0.5092278070282779 0.03358246394113571
Ni 7.273959883926539 6.1965694361862225 2.6972009727556125 0.2811174776764642 -0.2456046294818351 -0.706563574201396
Ni 5.292790416352879 4.687036017803866 11.534474288288221 -0.6874083414291839 -0.08625716862703209 -0.052052754831181325
Ni 5.542979886812697 7.748294838853953 12.511084687930309 -0.06568371535105462 0.8411443696344804 -0.350680473477267
Ni 1.9904929601165842 6.399287244809556 0.5156345737471789 -1.4082268828876972 0.7191894904955226 -0.06442644590518581
Ni 2.8653927798510863 1.7672016747708543 0.2709292433942371 -0.6016047153998026 -0.9258552768203151 0.8024366686516373
Ni 0.3232453047186674 9.113305035596293 5.074097266705706 0.9532364970467454 0.8111974455634029 -0.5241864852206392
Ni 8.707060655351265 2.177162729918472 1.402519534139441 0.10639687679970064 0.8247361034797861 -0.2957444835610197
Ni 6.799979330762453 0.7465373185022195 4.867959026705027 0.1550040962844427 -0.8095210863022445 -0.7589806543505316
Ni 0.5636142114444327 7.521813937638275 2.577606734637041 1.3576591972424747 -0.24882776440482307 0.026991440987179323
Ni 7.570403328112946 3.872230015015128 3.8559838746952066 0.2685170153036343 -0.42533219665488686 -0.9674233300700886
Ni 7.664928639449683 3.8995280380160464 12.777259495361138 -0.9300243205963402 -0.7102111982563123 -0.47726899473349416
Ni 7.86498389123571 8.616879037421464 6.87865106988634 -0.279989277609292 1.5849956245427412 1.4837255274466448
Ni 6.77455327604988 0.8110638836569876 0.12423144888334174 -0.010621998490220415 -0.17844510091620236 0.15279191912447235
Ni 1.8312211727873229 6.348035297497578 9.355643143914701 -0.452457335006453 0.6909518358060681 -0.7782330748222404
Ni 0.09923431117664168 4.853214095905663 1.3495719106983117 -0.20960661412067128 -0.5735313542023542 1.9441260285595743
Ni 6.498765093608175 1.8471056415641558 6.949739519997486 -0.2348497049581762 0.32647019477965067 1.487967076331818
Ni 3.2337525203188746 4.172808146440356 0.46322127911845107 0.5375747336020871 0.7319123373788298 0.17383588427896512
Ni 6.059697657744199 5.633243289764802 4.73013036350202 0.9209902354185301 0.1561209834977053 1.4859963257586923
Ni 5.4454557913247275 3.3597923269176566 9.27806368919984 0.3506856156835896 -2.422299280274893 0.18814690158499853
P 0.25980648036057385 5.480041768535611 12.593652120283387 0.06987178529047322 0.8946017181226722 -0.654717278954066
P 3.9154942918151856 6.1608839047865525 12.723167790330189 1.0099619747632476 -0.3900795441001798 -0.6058627193452083
P 2.389276728882334 8.602321303450935 1.3732723014402213 -0.24669297745000743 -0.16069626157321357 0.7251999583556608
P 6.14487221486391 7.8286168179834865 5.750179514658417 -1.2418857643238805 0.05981080151004538 1.3567323145528312
P 4.6156740422292275 0.9701248473731924 12.552009004369935 1.547716685586625 -0.007513020547593513 -0.16927988947716652
P 4.102672946200313 6.160574939146729 8.366743181587381 -0.5404086035064564 -0.46068692200509687 -0.637915891126011
P 4.71466118089401 1.2419419126206885 3.648276270988717 -0.7160026081271088 -2.3383733308841985 0.7572446454960313
P 0.25195420949669445 5.626400609565171 3.5608417210859407 -0.16437885263112334 0.5124627690258078 -1.0043014340433607
Ni 1.4956299645902775 1.0902488706918154 2.9822753901189674 -1.3541529838614292 -0.08880024676385997 -1.5739697057458828
Ni 1.427966489468826 6.908280874745459 5.022107436748032 2.38542323318415 -0.06382223666228364 -2.961487381110687
Ni 6.10273475392674 5.646910475714662 9.246675506361134 -0.017160570939686575 1.2854803610853796 0.790177134557994
Ni 8.933232590927117 2.5050843204681223 10.269370857350376 -0.455608479040925 -1.7465190100029404 0.3457892068232367
Ni 2.3975006672364727 5.322114890462055 7.103874299203438 -0.6982913068902747 -0.4981782340823356 0.244572845783211
Ni 0.6054890515877527 9.01302751102401 8.744092004729108 0.3247128457689117 -0.17857905539090535 0.5159193601158405
Ni 1.7289353715561846 1.0550267877518817 11.665373033934472 -1.2488138589022815 1.433275855436525 -1.0040615501184127
Ni 4.083998699440364 6.8731587512772325 1.4398525793773485 1.0915991281197652 1.1105363313439003 1.3761240888158817
Ni 5.667956488121495 7.831724648831129 8.013945313419551 -0.31858847803872875 0.7375602796932265 -0.02762933168149435
Ni 5.420147870533263 2.6213371860642445 5.01500486192196 -0.7758622605972186 2.243118843854563 0.3125736393032165
Ni 0.6330042592590182 7.203352148002059 6.9594219579160885 -0.5145602749847848 -0.022422590669574288 2.498718893986213
Ni 5.262738964267647 4.494114237407893 7.302098475212273 -0.09531773616740358 0.5411853337714808 -1.4133804020641787
Ni 8.073181296353567 7.266844586985887 9.186851579988982 1.5258486818689398 -0.25767210216933045 -0.39300391683582636
Ni 4.716096962396722 0.10554084511893114 10.46321953466582 -0.248167762223321 0.8098887540543084 -0.46274560430633854
Ni 7.971904177064207 7.270125075102842 4.990984600870585 1.1956583579252247 -1.189814497549938 -2.0844866638992294
Ni 7.157597971634009 6.181902655519284 7.092608866741974 0.806286895635663 -1.4167045813414052 -0.5496746021894147
Ni 2.6824215105023854 5.3243412605137275 2.8784147728471967 -0.9415122666312817 0.2144657419851855 -0.405735762580198
Ni 2.361687914690993 5.138434817586699 11.65968079638195 -0.46064295614103895 -0.16702991710072526 -0.9112730081307662
Ni 1.2091461186758432 3.5726423910822764 3.6607248601062126 -1.251494233947922 0.20262838303062522 1.2014484822444405
Ni 3.665831880388009 2.62050116139178 2.4349636597876 -0.1159256422257423 0.167147416515196 -0.2772842199733031
Ni 1.2487482439215167 3.380038663550828 8.321309784251264 -0.5692121580017101 0.3940454707264633 -0.22122388664462547
Ni 3.744163757308088 2.6408292830472577 7.102531207392675 -0.1843280420595406 0.14692980391674051 0.11243974055967086
Ni 3.957904369493377 6.8369461608449225 6.013029306571258 0.6037492725466312 1.7677316395248133 0.3033726895302388
Ni 0.7277885564997244 7.308009714880082 11.409187812617128 0.14516911247189193 -0.21178459560859658 0.25755948785086613
P 9.171463273680805 5.527222639181674 8.206888903154805 0.37583897502076563 0.006041835318705724 -0.8237781104418909
P 8.638570242782048 1.6063487103436704 7.781047014120235 -0.8582815435353993 0.054399657796803086 1.061419004991959
P 1.9784251257140475 3.2370784445593332 10.595967530538664 -1.4474092095141136 -0.8239349477347294 -0.21525841308980992
P 4.335514904706484 6.287032758081743 3.7951885240025485 -1.554594900763697 0.2705201617765921 -0.6926719038209684
P 7.106236977625622 4.01605352035319 10.410219205321429 0.7219698814541372 -0.1521177758755832 1.0188582488116131
P 6.3361673820384565 7.778673431028411 10.151160603553723 -0.6975595709305729 -0.45269001984254936 1.5579036534219555
P 2.310136088963892 8.583783365061496 6.25233682545198 0.46261859181017095 -0.34253830398610685 -0.8327944550078882
P 6.864216922171739 3.9991421951851773 1.5637423486119437 0.4708517783532407 0.14188067152860728 0.04879928089089015
Ni 5.36766914788669 2.949604091152522 0.2151127831150951 -0.16879780763442542 0.0002951626429156207 -0.09288264436334971
Ni 1.5098514712468811 1.3873102461578706 6.92440342880945 0.6175836073265621 -0.1368248542722547 -0.3264354848869733
Ni 7.0218166601560705 0.7309636328101509 9.114738999654064 0.13416350539000763 -0.5246929925434125 0.05016505089016522
Ni 2.627561934984228 1.4051757299194572 9.261531301301847 0.4860228296667243 0.6080443003775593 0.3152326741926184
Ni 6.25968021173262 1.9294540718019468 2.356147433790973 1.388915327043279 0.8550851480852887 0.5318519721856969
Ni 3.8294837100230104 6.900347727581742 10.462966909819142 1.1573460926085875 -0.6311510615983518 0.4619364781414818
Ni 8.306332220499563 7.083955102659493 0.4654785457341063 -0.7204436746175978 -0.035652201985970855 -0.16035019108770449
Ni 7.738017187717456 3.763910296582721 8.21905851447399 0.5295971147132492 -0.1680079647432784 -0.33859988816364905
Ni 3.0888294607920272 8.299444104176429 12.329206611713103 0.014674314182723115 0.07429202584535594 1.465451411727805
Ni 0.22150655441451136 4.782969848969212 10.203682036156389 -0.30540437524828695 0.6711954791147472 1.3626155128064854
Ni 8.565445345615473 2.3870776205047637 5.652530924192049 1.0042106741017673 0.5702382852733792 0.44643324029956016
Ni 3.8443958457568677 2.694307600410908 11.44811657451248 0.526837549690241 -0.012237679716772473 -0.4308595542310193
Ni 0.8828220622285767 3.4217126760282626 12.789721715315682 1.2516487572479154 -1.5526200364255132 -0.6442114943267356
Ni 3.293691854444727 8.235242861665947 8.326284131052432 -0.7177843826178799 0.4448586967235887 -0.5630870189405786
Ni 5.617586001605487 8.070082552730627 3.6349898397538154 -0.10333829247903493 0.18099563525219795 -1.0984855708269532
Ni 3.148832405490784 8.516019930468337 3.585007377732526 0.04785260070690469 -0.32679878176366295 0.14293071005967642
Ni 3.3948417525882775 4.225032426795309 9.34506924925296 -0.32688799904335963 1.0013940305885785 -0.3862959086880315
Ni 7.424471586644321 6.014297883139476 11.527597985357199 0.14117413237988588 0.5661790276023411 -0.5465576538269877
Ni 0.5111536632472612 -0.07465518580617406 0.2174200294666042 0.8361618288182244 0.0012953217726558337 0.5685051046323564
Ni 4.603578946152589 0.3880526651166872 1.4659874376165767 -0.287077294804325 -1.0437102748582863 0.03498911448067523
Ni 6.032754036506608 5.711002671528737 0.33718510740954927 0.12290978685305927 -0.5502392164436329 0.9664949047185483
Ni 7.818584521913908 8.577885756230739 11.567590861265003 -0.2940061607136743 0.02959442582766516 -0.3657993313965765
Ni 9.245796771732575 5.016229819811614 5.546036829202013 -0.5841811206067166 -1.3039215985097028 2.0576872843181984
Ni 8.004763581581958 9.10103728225034 2.282584532393824 -0.529566775695946 -0.4083364334278387 0.22673761737400308
P 8.36208234403839 1.6391808531873184 3.6244422980437068 0.8401046155160564 0.21282152151354317 -0.4402769908901772
P 1.7353963883183858 3.149850174657263 1.6979533876616 -0.7358965188375585 -0.28050246980028465 -1.4720457771158713
P 4.875450534748289 1.3352949719710334 8.560471907536776 -0.15021027444022517 -0.46064295614103895 -0.8309041799637109
P 8.61874191848511 1.3717438302455625 12.259793845836766 -0.27700242706682615 1.5754948841411576 0.0321596154516801
P 6.39676099634276 7.9175898350280915 1.3659171017674703 -0.4344375013902647 -0.6583731305390984 -0.2584354626979162
P 1.8481234107306348 3.3860907552014976 6.040586315476146 0.23023817432809382 0.7467861691668687 -0.38323603881578516
P 7.041463239958995 3.9642836012332725 6.049590846432075 -0.6551322550042976 0.7400393373613384 -0.22749712124784693
P 2.2187186084747967 8.534830485598798 10.311971766747282 0.011070141771232549 -0.6288375829738266 -1.0002743151618385
