# total energy = -340884.98443637905 ev
CRYSTAL
PRIMVEC
9.14617410728779 0.00000000000000 0.00000000000000
0.00000000000000 9.14617410728779 0.00000000000000
0.00000000000000 0.00000000000000 13.38635031546577
PRIMCOORD
 96 1
Ni 6.377005178767061 2.374740051561914 11.446721186187721 0.8192763659167955 0.5597317293151006 0.756406208755136
Ni 4.669963266512483 0.48908982452545624 5.9805258535275305 -0.21009640927289625 0.01497230503911615 0.13551102055683759
Ni 2.7421144219515927 1.4024102953907593 4.544518917243689 1.7021404838875653 0.8604600392439569 1.8328815938595853
Ni 2.9390864248572646 4.966381619139244 5.552001993119893 0.9926054857626712 -2.180074623008884 -0.8232448636462403
Ni 3.9717626369706376 3.041432111731079 2.563285684376715 0.18840041235670132 -1.04431705520435 0.8281217321225673
Ni 5.330124958457529 4.964652992256388 2.5583723597128527 0.582702479178661 0.22001803926198238 -0.533941507724874
Ni 5.412586863091515 3.3472984620826525 0.6199084656268732 0.04719671229046065 -0.8749397209173707 -0.9405545307037029
Ni 6.115662403366492 8.296787097874628 12.462825445660641 -1.4515790246210871 0.30914892989238374 0.7535026619550959
Ni 2.6970695150835375 5.407373543920999 11.145140732964753 -0.6834848380050615 0.032560450434524574 0.938549584458532
Ni 0.27367181793014095 0.7528718845273884 0.7986054982963906 0.6899833012452117 -0.43536849784496634 -1.6390337852350674
Ni 7.817234903579021 0.27284408918464675 7.234158080583144 0.015372368691012234 -0.47004548040186145 -0.6383272676318167
Ni 8.805433271611307 3.029148800071425 1.610472034251257 0.2648714481312471 -0.2402924732403023 -0.03296617051337548
Ni 0.6448857521580349 0.37481295369034673 4.638718106950524 0.03311863693083974 -1.1345398933473492 0.5175486681891474
Ni 2.3653377847070183 6.658003082057876 0.8075614318608981 -0.9924039112748264 1.599255219785549 -2.2511427426003037
Ni 7.736821741917307 4.483216686120209 3.7622466564467856 -0.2101095218990188 -1.0797789955563855 -0.2111014534986429
Ni 8.231776093200896 4.155372079686619 12.863947368814129 -0.3642895796202694 -0.28746681693325976 -1.0025065469264671
Ni 8.389044554844794 7.319326338098808 9.304048836340433 -0.6036921940564507 2.075243805144723 0.9853387768979289
Ni 6.952262937624563 1.396355528213774 0.512012880379955 -0.02761544772442341 -1.0368870812888658 -1.2788844530354169
Ni 1.637814521374516 7.089043969545733 9.415195886438438 0.5833573391538405 -0.5725782462604655 -0.21719933886626466
Ni 0.5490027518208637 5.249034979921046 1.5175030049451848 -0.7448347018674527 0.5758839135949309 -0.09412525852119918
Ni 6.626229273639678 2.4374370742178564 6.980954485410368 0.451107505846778 0.33355898330563194 -0.9148324433472503
Ni 3.5027285427558965 4.7235598460549815 0.4243998505585391 0.8544963654613542 -0.15675681730949131 -0.019182229355405676
Ni 6.158978683351693 6.281711192034419 4.6509941016709915 1.1015852927981995 -0.01674559488945503 1.300756827628476
Ni 5.80713451638576 3.281043577747182 9.077966390880519 -0.25812873009077475 0.5977334053698544 1.5033839251075207
P 0.5666301729389961 5.854301335617956 12.576248063845707 0.9823367568468114 0.8267341077464213 1.0131090050326617
P 4.101647453708353 6.539889391236746 12.437365241143159 0.5746279297006426 -0.9222184513986762 1.6130239914348672
P 2.7449588820604185 8.805515587177158 1.5874739797700947 -1.068178949423612 -0.32312030447081125 -0.5116153334238479
P 6.319146482148318 8.226462166116562 5.840651585565187 0.8331922046669392 -0.010617113394213973 -0.3923706541272017
P 4.8372193501462135 1.3393748642974321 12.593744694675875 -0.2667123579947277 0.006740918268259358 1.5488094044301712
P 4.351072764408603 6.257208591932994 8.329549607700427 -1.0020015822655903 1.3143260816724784 0.6327559441916264
P 4.956787282630698 1.8482405462097127 4.245320127725987 0.5985595008155756 0.2146477760890045 -0.7242255102575333
P 0.35875867449735244 6.115333141103092 3.6903357781200046 -0.058631179379647416 -0.02611238081633567 0.12462908353701116
Ni 0.9522630504516595 7.7806410614715915 2.3780720027440525 -0.15404584613623146 0.400413064815704 0.5880238913915744
Ni 2.004786460108927 6.935525439235012 5.097642935061456 -2.305897212633364 -0.48891146406842895 -1.5400041474337156
Ni 6.402742512356241 5.850267872891293 9.275977399150701 -0.6781809092936449 0.8151623437484219 0.20380209162375226
Ni 8.974454566823827 2.4572293947178507 10.206891450290398 0.6075293084143537 0.8604237866893827 0.7834920092283344
Ni 2.1452991310153084 5.933699271967516 7.362599631066286 -0.02980602761783899 0.3429591935736094 1.3958701610945572
Ni 0.4727748793739361 0.30969128031141496 9.286097640663291 0.2932445999573014 0.21863555709215896 0.10089548736549721
Ni 1.7146972598786523 1.4238123425118252 12.04609557660455 -1.6563704767413023 -0.36423044424755985 -2.188761866370237
Ni 4.436808999328633 7.1215494718826 1.7582568280918096 0.754016882587353 0.7410652075226914 0.061541925268539174
Ni 5.670655308206041 8.22041654511356 8.175258225688111 0.08913577572640778 0.15519487213901012 0.6281693532622085
Ni 7.095903600033254 1.0130210842231295 4.780706970337819 -0.9072091224740376 -0.4759068242786449 0.282996439866732
Ni 0.6328850572744664 8.056498814983756 7.359775292540223 0.6124457718793646 -0.7594380536029244 -1.3865023467264121
Ni 5.1756735184005045 4.644207640575337 7.221775075627072 1.5706123592378756 1.2577057620752725 -1.0671883033755685
Ni 0.8932903498417415 7.803360157646262 11.45029551098042 -0.6240288487312736 0.311102968294961 1.3327922587974659
Ni 4.8639993475694965 0.707407168273497 10.54974218437849 -0.251642865256115 -1.255225161745264 -0.8263790383998478
Ni 8.299302295720052 7.728151168981081 4.678047569696377 -0.3881874692837895 -0.11698030874250176 0.763454373851169
Ni 7.498554763476758 6.862474947629903 7.0528397544499954 -0.33802138995235975 -0.9927764641228966 -0.48262460261845275
Ni 2.674734558216169 5.4225013156894795 2.8210395011062137 0.06611463224088612 0.2745400815692627 0.8853771142006106
Ni 3.785500803799482 4.328088429188416 9.243461836022453 -0.6293397194212258 0.9351575280578476 -0.43957199440335265
Ni 1.0148045881498848 4.055944022313497 4.114736543295942 0.553704035063782 -1.5614283787457626 -1.0715236975261286
Ni 1.694648846507124 1.4687474952920798 2.6007136575514265 -0.8125999823378844 0.1720685079658972 -0.6324358418480464
Ni 1.2636353975412162 3.5916110615262027 8.173624719014683 0.24114299416605567 0.47176272020328436 -0.23913367704551072
Ni 5.003487646989742 4.042554023601856 4.737616600850009 0.6717744915466689 -0.8199754488663491 0.10331078167520916
Ni 4.180267965269328 7.031276734666823 6.243326529061048 0.6566309510370111 0.320184618881255 -0.2921166570004453
Ni 8.285171456915759 7.512786210194868 0.10946232485026802 0.3505313494939124 0.764052155336168 2.0450503122804777
P 0.08179514855059968 5.916641657488547 8.129423089387894 2.0793495997829803 -1.0360887537572865 -1.312795503960565
P 8.853907993723123 2.0570476982498542 7.931853841321108 -1.5914328955276529 -0.1874532179520836 1.0840262008685138
P 2.1040956172202656 3.446671642411874 10.293915466507286 -0.7305820486031804 -0.42990850317165963 1.0473039057468156
P 4.212206404819226 6.403090066967609 3.970712656197348 -0.6058007557590211 -0.44070199424273776 0.16415336688387858
P 7.410339915407238 4.17526500810043 10.781138556922738 -0.9283284209511561 0.9666522562320191 -1.650351781351048
P 6.5267463392226555 7.893230463206772 10.367727834405208 -1.967286782946754 -0.37998410753739076 -1.5861333376916102
P 2.3963890453805305 8.720163491564428 5.976095446849991 0.6146036987626319 1.0670684899682528 0.47731064660470696
P 7.084672098381686 4.59094032329624 1.2640661823358326 1.4515800530623515 -0.9814327569753033 2.5301858542462425
Ni 2.885974592535885 1.7617543250230467 0.5382916674689491 0.03889410596203624 0.45087199279720414 0.532617903817444
Ni 1.5422918802922891 1.266772535217509 7.087778139066436 0.7244581950936299 -0.04739802966798934 0.05047846836552596
Ni 7.022624454078562 1.3917732950481099 9.308908198577793 -0.03527167871810054 -0.9716360825998556 -1.8691351768749809
Ni 3.1910818104468386 1.9277116519511401 9.035384548666183 -1.3437752401715308 -1.1200082753900775 1.757223026684006
Ni 6.692356111539381 2.2951043146887855 2.5883580911173034 -1.1322760370138372 0.4091697279624114 1.6029452670426265
Ni 3.8684017247846705 7.411940495854325 10.480401380941036 1.234668420639835 -0.31436004177967797 -2.412578196332387
Ni 7.7999943656203845 6.61924159671639 11.506291131958754 -0.631165716886371 -2.0674335650716844 -0.241301631231107
Ni 7.9299432055759835 4.27085167240054 8.3538052611043 0.20903608632918194 -1.0894707689228527 -0.37623595334886817
Ni 3.1559513561767476 8.50916125776828 12.378438271403157 0.2995355751723357 1.247301021802181 1.7748818774163495
Ni 0.3672225439015551 4.942665590000388 10.587813133584232 -0.4057180219683851 -0.16125470517984486 -0.6316115461745381
Ni 8.859002412631854 2.395382966242361 5.678596931075794 0.08011711716756524 1.505916461721387 0.34560691560910156
Ni 3.61655267797883 3.0515203416347267 11.982496741193849 0.8042863202658664 0.416804875910166 -1.1637057162780282
Ni 1.518658166719283 3.620055662614457 13.018319237157497 -0.9365071001072065 0.738541155549257 0.337589958841896
Ni 3.2243098605283906 8.555779306561472 8.074874393133728 -0.333489049299645 0.28533357264034087 0.4001934926057301
Ni 5.73761444793823 8.549230645989388 3.4472926676253444 0.4107033909981185 0.20667015720016668 0.7212378883841192
Ni 3.365490202135558 8.39959009344761 3.7816703861352505 -0.45818935239422376 0.3158415114212109 -0.7395654830487133
Ni 3.9326810355397344 2.7865282428147955 7.0761451203769985 -1.5826744326087323 0.2786191367346428 -2.567172972993553
Ni 5.31459475503378 4.9358699827307495 11.23612778636863 -0.347409258925163 -0.3818543279769101 0.059530037044832965
Ni 8.166810819397078 9.225562773537016 2.5853590606681593 -1.178281300099358 -1.0477368795191762 0.15300866312096875
Ni 4.645259450583424 0.5577382625923721 1.3288640811557533 1.7976160857890717 -0.30051593680773403 0.23175075431787828
Ni 6.0477154768440995 5.827814015762141 13.39103497315346 -0.6291903383275551 1.4467785179086503 -0.3108561423914775
Ni 7.802162008854442 0.22199776415894548 11.045479448155055 2.090442110151716 0.20760681008182308 1.5021945327851096
Ni 9.053934818739238 5.330920675594081 5.795848137690293 -0.17790182681822264 0.1711331406358214 1.021005891282235
Ni 7.568312632447856 6.553645236907721 2.6627859965243057 -0.42191622899480236 0.6250500909069363 -1.9041014085375207
P 8.781003840901748 1.900401176436823 3.493757060695617 -0.6926276808465943 1.2410319009640176 0.2149192845828363
P 2.020709949013959 3.567949909431247 1.926456796880623 -0.6974371864200957 -0.6071225598942382 -1.461172067626161
P 5.057422634969623 1.3619018908184517 8.127054230326202 0.9176909958419679 -1.5480627560721338 0.9387758415367251
P 8.576019789586653 1.8045126883952616 12.421796623788682 0.8596676252496486 0.31272096351435824 0.6214163508090911
P 6.417833699428788 8.335603460260014 1.4062626638725513 1.2137463257751873 -0.4431121463461272 -0.6893762637888321
P 1.9661621673771916 2.9735217699046204 5.848161509022925 0.2961023811210707 1.5358937248097677 0.15710057380215525
P 6.993740836639107 4.32290254853985 5.829219782703383 0.0046428980886500685 0.27917603767937726 0.33257193680201436
P 2.3737248262497603 9.145295950659035 10.351423864662467 0.6353954386970025 -0.08735811500069471 -0.40954305214143016
