# total energy = -381164.18081340374 ev
CRYSTAL
PRIMVEC
9.24287726937153 0.00000000000000 0.00000000000000
0.00000000000000 9.24287726937153 0.00000000000000
0.00000000000000 0.00000000000000 13.52788516808638
PRIMCOORD
 96 1
Ni 2.489467359795229 7.7616693368528304 8.89719564724143 -2.1732216046427926 1.5387993284923367 -0.9302973717520688
Ni 8.990916575643377 5.233529777957645 10.671824413568402 0.29130598817369185 -1.0088656563752754 0.8529557604471117
Ni 3.4801189610221317 6.181414585390212 7.923539849003295 0.012209911802630586 -2.607455988883316 -3.3849843243290474
Ni 2.1686563276345225 0.08395120697540315 5.317135301317767 -1.0321097145048805 -0.566266959330457 -1.321545225128737
Ni 7.251850704454309 1.6177161336213486 7.324051441373362 0.8606209903018534 1.7226190634568914 -0.09882446376908142
Ni 8.310714740996145 2.254994045558207 0.6736209059285002 0.2634938510574301 0.24747510703167055 -1.983294728339236
Ni 5.682160561875833 6.518825825386369 6.187627647587868 0.5960048527145219 -0.6412488121539859 0.9589266054529871
Ni 2.7955544882355174 2.371842501825332 5.9216832600440945 -0.6064892971856135 -0.2843192724432136 1.955564095193187
Ni 2.523370234149589 0.9417845083393614 1.127708684671883 1.93626770885742 -0.36846787936767506 -1.2486855608545335
Ni 3.183579724950451 7.879747095816011 0.5850972474964171 0.8061400856451535 2.0402940285424154 -0.6545244462169696
Ni 7.881604914176214 6.243563693121595 12.647679864074426 -0.6156485950873785 -0.060634840073237516 -1.9518642777440964
Ni 1.4036048783272526 2.31021099522913 13.143503855780489 0.5687771273468204 1.6776676955571819 0.241057633541101
Ni 5.620806341602048 6.503584320530769 2.0335383998709884 0.5860102033956553 -1.288818167209361 -3.1761696099820527
Ni 4.982021840646717 4.300729346464641 9.900436971793871 0.2922138446999419 0.4504760429103662 0.0006623161743472465
Ni 3.473953961787029 3.8359604985817 4.408332152454594 -0.9903549991655977 0.4182742613668409 -1.0799911115671916
Ni 0.1196878682086901 4.635672738191273 0.9296569288845209 -0.07295968018717756 -4.252405882492503 4.397127880124647
Ni 5.8267191646299725 9.079296969475543 6.548362364450379 -0.7579416715630559 -0.02418636743821641 -0.9697820601102523
Ni 6.503667506427494 6.1603130962541695 10.882778301937893 0.0712342128556386 -0.7686050648141731 -0.9723068834146352
Ni 4.608628078878063 6.745230107641015 9.64538254241921 0.06691707353752346 -0.17935527143529756 1.7270966396122707
Ni 3.375452617186589 5.959363698397535 5.348857780890175 0.2950896235858402 -0.9059937620096977 0.39382049919985074
Ni 0.5531094973422274 8.824276738747315 1.2662224455973012 -0.339325453475764 0.020886613641022095 0.7135348633129066
Ni 7.385798483937238 3.8123264610342362 5.074850831378217 1.6174007803463242 1.1526281183076277 -0.567860529069822
Ni 4.863269351632318 0.1716235963976616 2.1536662290445823 -0.006079373424860497 -0.6204699277354218 0.24492482980599106
Ni 5.671448066953067 2.6866086921573173 3.436285539174227 -0.2655653888744781 -0.3478946832020138 -0.6248279475938013
P 7.478717130579653 0.4311303198226196 9.788358764560083 1.65319876388154 -1.767878192405007 -0.3468767834604607
Ni 1.0111153318213824 5.41888644161695 8.396352773099593 0.12416011432039262 -0.5125787257783818 0.3070115718344067
P 6.814348344942514 1.213090689070965 1.574740450797458 -1.1904793848274466 -1.14378249499154 1.401480051082167
Ni 9.04304640425804 8.1326876791261 3.603057549217307 0.583870274234517 0.6294482199746321 -0.9044192184337263
P 5.3939676441089475 7.4748073934335535 -0.06876700795977006 0.46161226203284367 0.4824243136821885 -0.12928663691368056
P 6.454033254714595 6.153648981638713 8.420811275312381 -0.09216350680913805 -0.49348031438603407 0.04827837539041362
P 6.290628424913416 2.2792196272601637 5.542442454023377 -2.4248235893586436 -3.082355197833053 0.6257813126460061
Ni 5.973311200415181 8.370728744044907 11.207500919820182 -0.23107738239993755 0.1257310583519383 0.7636999142030718
Ni 6.665593475842442 0.4866670730520651 3.8383479338177224 0.32607887287850296 -0.10723171399617015 0.5426994564231621
Ni 0.9918069609036458 7.380927487540087 12.947525277397077 0.014121527003046648 -0.33821165158629496 1.3248881734590408
Ni 5.649644119133565 2.862251091654563 12.040345177807792 -0.018213694794549276 0.5732377342213354 -0.8920936069888378
Ni 7.132793200485251 1.1606188739919845 11.731138578240296 0.51377094631427 -0.1849808451521911 1.241544578934378
Ni 0.9488645524384454 2.9386527163582543 4.516284339210794 0.9433554904876076 -1.1404354328961779 -2.8201013898303104
Ni 5.272793521212094 5.323028559956899 12.925245321390754 -1.1687435358122515 1.2804055176656335 -0.9990741242061503
Ni 3.0310075474784184 5.797252871434308 0.5369187489762154 -0.8235778215056268 -2.713002344757263 -0.6326924379435426
Ni 4.7226759432887615 4.111675531839756 6.371120022872779 0.1884268947192626 -0.6726833765141834 0.6818010225447355
Ni 3.106410941421403 8.028742279728846 10.937754936796054 1.0989722806553845 1.173552784275437 2.417171215019708
Ni 8.472511310127299 6.451177205593686 1.129727329099089 -1.4521953180488474 2.9785340521803283 2.5271802346506993
Ni 0.2739949337713209 3.414873489357076 6.40710439322076 -0.8471952038142506 1.1734041745127146 2.5381961261452286
Ni 0.5973264986028113 0.5862470614467121 9.949164497232461 -0.3532806301042754 -1.1415497490062791 -0.11456347177089303
Ni 8.743678847697693 1.0097936003511878 5.256178524772782 -0.40256610660296477 -0.33856183583686206 0.764826057387715
Ni 8.6001462043365 8.128546870044651 11.213047570556293 -2.24603318928788 0.1166658628258765 -0.7992716406600945
Ni 3.4247356395577575 0.07106201442165323 7.304597957280225 0.5531391636992473 -0.4013782569424507 -0.8163573924977876
Ni 1.0810839138449655 6.858381412942561 10.806453393116739 1.6175712444859176 0.6962614209444395 -1.9129321194552733
Ni 5.493975577727859 4.883816268123525 4.217264314841211 -0.03045343139385078 1.5867447460233641 -0.8053157899716452
Ni 7.6015827000432585 8.372817634340459 13.423585224328892 -0.5718755637664861 1.5563645910696098 -1.6804540000530672
Ni 7.94172058887653 8.769836190779165 7.400619437870503 0.5755036474373766 -0.8677576013466346 -0.24765405581169608
Ni 1.9309480063026183 3.635769016673009 10.552305690016386 -1.7884303055247457 0.5005847866412992 -3.333427278187363
Ni 4.621706750418798 4.38544031796347 1.6732233096430695 0.8116098505104732 -1.152162748635435 0.9641158629634106
Ni 7.420366845465402 4.503582777068548 2.43349064560088 -0.1364337894814231 0.2724222638953115 0.9689207405512217
Ni 7.420810503581272 4.351297128796348 9.613469659572074 -0.528916800816773 0.7844667144367781 -1.1896980265767318
Ni 7.2769173880009355 8.114922868736494 1.9848515430930191 -1.1065236106400813 1.7312973079571796 2.5927145689080833
P 1.187035017641047 6.430251331128509 1.7844095792064105 2.13736962794119 1.6007744846435528 0.48109556756843597
Ni 2.684427373087626 8.44701945421963 2.6906561481768847 -0.5556745285265915 0.28926633203584373 1.8193647903200731
P 8.370192657154899 4.216212475391504 12.633908901015385 -1.1924452503045657 -2.23106911177888 -1.5666104371673342
Ni 0.9163296239413499 2.2689600333306816 1.9945916873118374 0.8681460950343048 1.5589151254056055 0.2708698318065271
P 0.7243301042846408 0.8676741929465883 3.4955111247795783 0.7155097276510903 -1.044733573916478 0.5485461450119262
P 2.7052608187786635 5.743681153943068 11.402667973566652 1.3233887060953788 -0.6739712420876716 0.602015577684976
P 4.043869783131037 7.867814541074605 5.690329416934279 -0.10582969144232096 2.617697721215982 0.4065001515500483
Ni 6.649233582819755 3.980713201761533 0.3898516292919297 0.5552173863845148 -0.9297250441883665 -0.17251845101912225
Ni 8.865370571729727 5.392322411929264 4.534818157001243 1.6318910035426994 0.7535545982389539 0.5530113798721314
Ni 6.916038482250766 4.2877523465754575 7.332248949351791 0.03599364448578962 -0.35533905529520093 0.22415751535165265
Ni 8.327897250108673 6.383537828678418 6.848099636107286 -1.0784751891432973 -1.541064727487746 1.7455139657771939
Ni 9.063121934001135 2.6988832333630395 10.998684908996538 -1.037273260983691 0.3601328771394185 1.1106461174488873
Ni 4.390154185444583 0.08024666170789296 12.685855720657253 -0.08811041978568696 -0.07696931556720293 -0.30009299033770254
Ni 4.91239524508745 1.7996344468826648 0.5185411358140634 0.03453197233859859 2.080366728193585 0.5590611856106371
Ni 4.006352943707824 2.2369149773365256 10.249997974150663 -0.06528313747852627 -0.7525248714228588 0.5782752966452428
Ni 3.2990602353603125 2.0584165287183698 3.0227379450561593 -0.42907495152677066 -0.4002487713236978 -0.6024660349588333
Ni 0.07612618695675513 2.4805941974778394 8.604695548599645 -0.7348487942993345 0.6143244769593161 -0.09446618680038571
Ni 8.10967291436537 2.3896350408471814 3.14962971192128 0.03339194519688443 -0.4154000251428394 0.1929101273015968
Ni 2.26537379689407 1.6740144999497033 8.544090925684133 0.5425462186747494 -0.16786886806225282 0.8954905484855287
Ni 6.758123921633471 2.3246483697497156 9.530395601663255 -1.0063251493416088 -0.04913301008122506 0.6020204627809825
Ni 1.1845948980037646 6.925299845419541 6.424203716436563 0.7959448902797067 0.41263968878888296 1.7187001880184594
Ni 1.3996396839166694 4.741771728025977 3.1226414341602946 0.5729639117346584 0.06663245241756911 -0.41905459117629124
Ni 6.025062071055874 8.35699382820778 8.850835222708552 0.2056967375433038 0.39801808222096613 -0.8820930441327002
Ni 4.9679172097130335 2.005963199394217 7.971116636203849 -0.4446769197300858 -0.10861239639378069 -0.5232351770509635
Ni 0.2299064085067909 0.5383791236076191 12.504393081252445 0.059991035841651524 -0.404344024438994 0.05885075158962123
Ni 4.402770713114622 1.0087768838356537 4.936812154351875 0.6884339544802207 -0.19729668640506665 -0.3678215040329278
Ni 0.9159173916086878 0.201809909743873 7.495814605219974 -0.09856683923232057 -0.25297418247302883 -0.979042659476572
Ni 0.008562601636281045 7.603976605293471 8.829880695323391 0.00965140704683499 -0.2953390205924849 0.24958546850645402
Ni 3.1739578895625318 3.647562928253206 8.287588137418707 -0.2272955467600021 1.8399899227695924 -0.4363694283056549
Ni 7.652048810723413 7.750993813439721 5.256963245065227 -1.2195421065213576 0.6353668994519122 -0.40848195786676744
Ni 3.390315164068217 3.679099625989595 12.057417696679094 2.4193617949131236 0.8439432725358562 2.7997050855621457
Ni 1.6451489937859451 7.001562826962023 4.330885158315386 0.021399805832014757 -0.09450218224464371 -2.3706723001272207
P 7.165411314879072 6.215104873564051 3.6871335350377987 -0.5578977614301552 1.5120809386608862 -0.20089108862454433
Ni 1.1899557669038543 4.627807049512004 12.7606509332664 3.327050685237057 1.1345998000510071 -3.8550087216849867
P 2.0762645250047025 4.69822853252887 6.5439793919806855 -0.023700171830417248 -0.42990516073755 0.6623683677414206
Ni 5.290854103678948 7.598467850354758 3.845666444154086 -0.38832785151639576 1.409654102252527 2.5177928798985283
P 3.119443398575069 3.33860126493718 0.7189830997006722 -0.899336147483864 -1.3928547713070012 -0.14888178543678876
P 2.0418995067796453 1.4637944960468796 11.278414123915471 0.28254881080635214 0.03794922555026367 -0.32262536711226375
P 4.174822870331846 0.34103075079145856 9.312515100959752 -0.04522544749670276 -1.4770668844795465 0.29548428792109754
Ni 3.5835652450390327 6.02790887729937 2.9689517928089155 -1.5195204256580668 0.17739043439944288 0.1515621604824293
