# total energy = -340867.19535608834 ev
CRYSTAL
PRIMVEC
9.23822519112639 0.00000000000000 0.00000000000000
0.00000000000000 9.23822519112639 0.00000000000000
0.00000000000000 0.00000000000000 13.52107638132274
PRIMCOORD
 96 1
Ni 2.9862746714737116 5.603713214296748 6.980823064553626 -2.600234274323896 2.345043543815523 0.3732131073621443
Ni 6.47515496797535 7.721918084175955 2.1345990237653294 -1.08932550159424 1.4130836967593663 -0.0015884275330424256
Ni 6.37170532568029 1.6410043632930915 9.7049279995777 -0.24616127331625348 -0.8937367990192155 0.9081822850205843
Ni 9.06167317209848 9.058421316937928 1.5870226438054398 1.848908822525777 -2.5111905440906623 -1.8271413489416983
Ni 7.076554169954819 4.766702324775469 3.305429474322067 -1.8836269427332528 1.557262420293531 0.06670084376165933
Ni 5.658486649657297 6.284496482738215 10.44512598756341 1.56525058070533 0.02666696776822504 -1.6083003607069528
Ni 5.023210877013781 5.902579027646229 1.4909016853139765 -0.7886838378419192 0.3684514243074428 0.7850914925049705
Ni 0.846496698836208 1.199795980870359 5.225030061738027 -0.10324547565491252 -0.21974987320226025 0.30301890573524587
Ni 3.5619177024656263 4.467143644559394 4.678968750659759 -0.7854200794889828 -0.423321079762129 -0.6347156390211585
Ni 0.45355065087300894 0.7414211289608724 10.80865383219348 -1.077602299620041 -0.6123400995394357 1.994855436593642
Ni 5.3948923789299394 8.70054172300434 11.122910528206253 -0.22779254100107865 0.39749100607290255 1.7339632848251172
Ni 7.731119356164334 6.187088639519862 0.9649584565741568 1.0295000447961755 -0.278363826190727 0.17623626619034166
Ni 8.154673490826228 7.024838587032177 11.203914979313595 -0.30182051455177056 -1.218628593568153 0.041722576549766854
Ni 7.229021833505244 7.098208569092131 5.590802795015865 -1.3325971120675244 -0.5513622743044827 -0.8049118696650074
Ni 4.022655692301447 2.989101568289419 9.569487308318223 0.8112110724101577 0.1912887896480899 -2.233548169446992
Ni 7.96116963232361 2.3162077439022464 6.112323685501831 0.28216340244247534 0.07001036775086651 -1.3742880640484074
Ni 8.510668486882679 2.054156256731175 12.973012873612792 -0.3132578098544347 1.2419680396250417 0.3282316575554476
Ni 1.6438127836590226 2.1369677046265947 0.7213030466224234 -0.015319661076205877 0.08602139846714217 -0.4164204959875538
Ni 2.9959748076060397 0.24151029413275557 4.199118721175786 -0.5381776572934086 0.33915550355680296 -0.3350296543138875
Ni 0.6857672907685053 0.1092623333945463 7.601210513967749 1.2178040407843285 -1.5811227718508962 -1.3304672102087152
Ni 3.1697365795231485 7.221307915723821 3.287825112975624 1.2554874142677153 0.4727587655679664 -0.8667674695192235
Ni 6.13541924772166 3.6299849434399074 5.738764052465956 0.8688531484036585 -0.6276762156758737 -2.738137449261994
Ni 8.223156451920467 4.911317497171153 7.826836604228195 0.21639406935614988 -0.5528368019674801 -0.6475688408347429
Ni 3.0067281013755927 2.5786379982937238 2.9621028560544387 -0.7925857439994866 -0.5091851267158004 0.16237056395184293
P 8.661353173029733 8.970029981210196 6.040310798677914 -1.3813886796489305 -1.1569254601314012 -1.2237926542675956
P 3.971651452695175 0.725584040035491 9.926552090816694 1.9875095377515317 0.6846528901712339 0.1691060829034636
P 7.76003500006356 9.061774792572246 9.819100449500183 0.6388777408186481 -0.3713531713352701 0.02173456346361418
P 0.1201061617680006 6.475653832119298 13.055004890960653 -0.25041850593071063 -1.4026434752626489 0.3227012146555216
P 0.8851863846668662 3.510017355045226 2.4452592788292318 0.5480218970773401 -0.5893937751559074 -0.826171807485048
P 6.183134679267828 2.675630121392119 7.490040487133845 0.9343563723127908 -0.3984507988830106 2.615697402956502
P 7.509448149978412 5.503450759588025 9.651357381097561 2.25856526031662 2.5499859196913053 1.2788294314277655
P 4.844903898451812 8.21027836642669 6.7613496320685424 -1.494131553271317 -0.031821001165338744 -0.12914291224696467
Ni 6.160778175039033 6.96532594230412 12.864803697855471 -0.1097159138706046 0.49813503954922594 0.10918472395748292
Ni 3.858861965038417 3.833235129199294 1.0221680118376517 -0.31670823029688033 0.03919903879696475 -1.0471460400127128
Ni 4.81203429430055 1.1488471706134156 7.862059184258412 -1.1035156770516932 0.1743066532677966 -0.9219207176525993
Ni 7.846929743359446 4.6417645713910805 12.454777095896974 -0.09212211204824133 0.37636810805135823 0.13000628868852449
Ni 6.39314724564518 9.225901095931242 5.781517633424816 1.704925245721554 3.228931475065116 0.7381837722098384
Ni 8.31577889464687 9.282568367393814 3.751774309782489 -3.009298587056695 -0.12996360837604715 2.1908424030483493
Ni 2.45439311177593 2.1131330844157312 7.907422563748113 -0.9488864476081657 1.8396883323687736 -0.7524184277519816
Ni 2.8488006469164 0.11111459748457662 11.673272232969854 -0.2080657519961126 1.7366976530371443 -1.0302204679019678
Ni 5.363547081885188 2.7760034347994975 2.438404515962386 1.0667890110546208 0.262875757857457 1.3876364603308553
Ni 7.860454504595379 3.041925738198613 1.8795510348817983 1.6610421711853587 0.12452366830739843 -0.7502473882425917
Ni 4.432176963358573 2.138990875877052 11.650407626372223 0.33820008162206916 0.2673188812304751 1.085800262049801
Ni 3.806610565072275 7.631318812700008 9.54297267906737 -0.7337324213067041 0.027392018859707667 0.2548135496746128
Ni 5.904509816647806 8.700356958506582 8.896381004758627 0.3098539263792083 -0.4053765794685663 -0.6589937948422327
Ni 5.45246499643153 4.621495905986958 12.06472076467872 0.6692216432178281 -1.2992234217030851 1.6257231841690905
Ni 5.202765015935623 8.070365450498963 4.360992745307104 -1.083632822084837 -1.6477225712583172 -0.33837543085766886
Ni 9.017061784114658 3.3692914753273615 10.682785789562876 -1.3669905019457296 -1.016002781640689 -0.5435103823602317
Ni 0.8779824168992569 8.066023484801635 3.968056859391281 0.9863829018917271 -0.797551058424562 -0.5143970099340431
Ni 0.08507204152549705 6.740125734211008 6.269912097107637 3.0538622325996823 -0.7486936706022267 -0.16487996063725796
Ni 6.338336857385081 3.860607989542236 9.60391170571812 -1.1476136958121719 0.42700958435730973 -0.6012630157896677
Ni 8.068961240315998 7.54095049684626 7.970390304584255 -1.2323482571470907 0.515182739060132 0.5033541218563201
Ni 3.2401965207434036 8.241235658026149 13.492330447462987 0.4944748170888194 -2.1811231188780567 1.761931745013585
Ni 7.2528010243667795 0.8919034979828814 1.8257910327914573 -2.6352154183847714 0.5432334745497611 -0.6581000793833699
Ni 2.9200365990272408 0.27237520348333555 6.719704638096235 0.955802972222341 -0.10879648738012876 -0.7492837387777417
Ni 2.05833193438052 0.37733252408010565 9.269860265237977 1.488360712225811 -2.1987441743939296 1.1898618058481056
P 2.6395456149798573 2.3613179960300177 5.341109281277379 0.006471466656956596 0.659741728751851 0.6075622185348182
P 7.969317746674767 5.014101987274281 5.727825070376157 0.33487178857978456 -0.9928510261145739 -1.838683802363659
P 6.488190103292222 4.446366876786436 1.1172450509167788 -0.5339075691631451 0.7598998237306912 -0.22163114938537315
P 0.3680961468371515 0.25253888700396854 13.033790231328007 1.3046132252600888 -0.5115844801859125 -0.1640878037532658
P 1.9770725082662723 6.752800578757251 8.806939282861139 1.437104999374628 -2.24344845927984 -1.1210038065341272
P 6.128924775625444 9.123402990799638 0.04763783045710882 -1.254523764802865 0.2880268032017878 1.217117556240265
P 0.4099129717923745 1.7687320605936356 8.950573355773724 0.36056379402925004 3.172077699300866 -0.00026070986055438966
P 5.191706860744769 5.813208440080377 3.847110942980968 -0.8777039139260691 1.17174684141495 -0.8183214582026938
Ni 0.9077913971451463 5.334871631833048 10.443719929735467 0.37643110007880975 1.6286866376727887 0.22562690080832756
Ni 2.555597865423222 5.764772426992951 13.46640983607243 0.583858190049659 -0.4157383823188647 -1.0299019082202845
Ni 4.00593450525429 1.1572631934863213 0.32681421510293973 0.5019287022637033 0.22522735137706373 0.5896164326896749
Ni 0.12541629343358376 5.352941599713842 3.1810219950462457 -0.5943765730824796 0.847307818132715 0.13322299585360928
Ni 1.0362701621290795 4.0282725330333085 8.53142031144844 0.5828919694816478 -0.7520535882133951 0.497451126108324
Ni 2.34174219749249 5.215033378586796 2.4580911731985684 1.4560542867836215 -2.014228441803615 -0.7203822252520432
Ni 1.9780055689799534 2.6752790688463777 10.630351472743953 0.6218904622320323 0.45834798945927513 0.8858872210678097
Ni 5.727801050991448 6.678118768763211 7.98945522928548 0.008504952147217611 -1.7941741499870583 -0.41231881511435436
Ni 5.965454386233492 2.7543952267866247 0.16332627308370046 0.35664748969397936 -1.868103136066041 -2.016405909070908
Ni 2.4117956568176764 7.611022432621222 5.641480001461103 0.8212674282048953 -0.9871812294233062 0.7624575571555385
Ni 0.5803480589273384 1.485543514878976 2.8686452777981657 1.548313181520043 0.4761027423395349 0.05559573498743329
Ni 1.2797251026007448 7.058364105150481 1.5114133160326513 -0.8104037460175141 0.9832921787815451 -0.36597468063217614
Ni 5.237731697136445 5.49606017967768 5.95534407291614 -0.6790491708312112 3.3999378603150867 0.5717477799393701
Ni 1.4026396847346765 7.556018041638476 11.914813013244741 0.3297822898720191 0.7419321835086771 -0.5187398602837711
Ni 4.6265215003259925 1.794137179035448 4.716773414546153 1.3994187976777641 0.3467556845015641 0.41364113347020376
Ni 0.45572994812407197 7.7166984871142725 9.568851718445933 -0.9938090191524691 1.4771825841218043 1.1370156085813514
Ni 8.610330456973687 3.2703685632273887 4.123103835330417 0.22594674604159148 -0.4691599924731146 0.7876535968051919
Ni 5.0092519192081175 0.44995143845667074 2.593166954574974 -1.0320559784488095 -0.3893213257779166 -0.1433981366143982
Ni 3.670365224425057 4.944990826887663 10.806003385473131 -2.5337553167650553 0.48734386247099293 -0.5651356739394913
Ni 0.7841747099197317 3.624395817382709 6.242680581605481 0.29981145454154173 0.4365231802746999 -0.6788144291125857
Ni 7.617757098564524 9.171755859863074 11.993018282211038 0.20339225777984324 0.8884881490257667 0.5341261129318543
Ni 3.9867744268367193 3.6985140956585854 7.014990639301642 1.0103311851772083 -3.673126055842145 -1.2927460415088574
Ni 0.3632082020489468 4.55542412158847 0.5219652491030762 0.9980549389130166 -1.0964124903480086 0.33573953589671857
Ni 7.932170844400392 1.0911082650638424 7.851985823840612 -2.317845643244492 -1.3142651465275559 1.9389578540950736
P 1.7394006965744524 5.969879495954811 4.418593077483358 0.7562267457544782 -0.28969879158757206 1.598301597623028
P 4.223587083613961 6.881960200915425 11.817677697660583 -2.267974212335346 0.5047759419045112 1.7602638703928586
P 6.9857147046317865 2.7723450977438766 11.527487501303359 -0.6991238300938992 -0.030041797777728908 0.493532250669892
P 2.7064396013933716 0.013495198916290689 2.0553387495168303 -0.046886123028577316 0.1828943949368076 -0.8583507062104379
P 8.351410728039623 7.212965798650019 2.8832342825411876 0.45053029318706933 0.6206488765154472 -0.2602555466257905
P 4.353993866132006 5.030047163430852 8.506244300983848 0.5128458633968394 0.6775515032397621 2.662757846779414
P 2.637531681954288 3.5417691339850474 12.756350632961107 -0.08492662274106665 -0.17578143804111016 -0.6452049685882565
P 6.809199941698074 1.5740272328555862 4.0274688074680585 -0.7435969728056097 1.2412748702127592 -0.06690036136697511
