# total energy = -340858.49239347334 ev
CRYSTAL
PRIMVEC
9.27788528070209 0.00000000000000 0.00000000000000
0.00000000000000 9.27788528070209 0.00000000000000
0.00000000000000 0.00000000000000 13.57912293132697
PRIMCOORD
 96 1
Ni 1.0482340180024032 3.12885542620147 8.706308957348444 -1.1114863539619955 -1.4747058404465379 -1.3700136050427696
Ni 4.896589436203363 0.8656962669695991 9.368128337481258 -0.20539000493616238 -0.5861636982543841 0.05451921409380288
Ni 8.989110957427542 8.507894889277477 12.350374622824235 -1.3393395729976805 2.5368074733278183 -1.6528861177371277
Ni 2.9007493423420314 2.987117175037367 6.413352014437595 0.7687616449966954 -0.9357146861128981 2.4678126913256593
Ni 4.056625383647828 8.197855801815878 11.561468627728036 0.5899416772395776 3.642408315043314 0.790742777253477
Ni 1.7128738752153945 0.2017559622955733 5.930614373125854 -0.31868335174538015 0.8483897383429841 -0.19200664165072093
Ni 0.7767872215365634 6.89729114187395 3.3363766663181718 1.6680090894214952 -0.39673407330221994 1.9357264916419696
Ni 6.8506233796591545 2.2581630180881995 8.899050526449605 0.7423294189470958 -1.626951400149237 -0.1295766573502736
Ni 7.710321493890808 3.6193122679431724 5.712546960979419 4.239422839969273 1.2751069882708557 -1.539827512646535
Ni 7.598402365541487 5.70088002042572 11.624313310459279 0.5160507434873822 -1.9105908729166063 -0.8999814943773468
Ni 8.726138581241422 6.927639104141266 9.517674856772592 -0.31996633222286186 -0.6664983307493941 1.18879891180123
Ni 8.160521592044041 2.416007677841743 1.149401005272057 0.23117328454785346 -0.8376255578479446 0.10156345996679927
Ni 1.2713300438904722 1.4578804802429381 0.6626608843143001 -1.671627660010689 -2.0456923167398515 -0.677661289344749
Ni 5.8335537778156965 2.6214942777489605 5.116287900556033 -1.0977574344116772 -0.6679880279210432 0.21664578035563978
Ni 5.897840243896478 0.5493899681012224 4.137328139681462 1.1599884153274411 -0.4100930111076292 -0.738954846047908
Ni 1.7366623726942685 3.0327922035430213 2.0869758317260874 -0.5964478537892115 0.5322803179723672 1.725009932286571
Ni 0.17595323595450585 7.974527828799505 7.665062114639075 0.024726299102086447 0.6222869263395026 -2.5550188541295222
Ni 0.6644570828758875 6.632630190593777 11.774674428065216 1.2386988819554667 -0.8210311438243731 -0.6890057678232908
Ni 8.916743453396645 8.754992804002459 0.9351904099750638 -0.3788811042811991 0.23223052216777423 -0.07741643040695054
Ni 2.392061456315622 5.786357176148368 0.43702271790001773 -1.9398011759319753 -0.5584235520266383 1.0485609180823683
Ni 0.034421881628849876 1.1178552680341787 7.3447709641064325 -0.3136758712284598 0.5576126260895687 -2.0280018414386234
Ni 8.278462067844139 4.759230346821643 8.006060576998198 -0.6897686141312444 -0.29888611451379493 1.0507103603252035
Ni 2.5454805648611227 5.736173095468481 5.348721190041114 1.102015952577715 -0.6268336651699205 -0.7367251853864408
Ni 6.047251306064882 6.0949953029550095 7.136128027677253 0.809532142045838 0.6639621945911017 -0.2713118044399521
P 1.6059462490671788 7.197458559554924 9.108617540237947 -0.35632147381312823 -0.13860662876302582 1.9664038661211682
P 2.548263930400773 4.647923558891044 3.1729114637515616 0.12164557542865502 2.5013679015732855 -0.06567754470346754
P 0.4325145935142982 6.388918703942035 1.3750085546654032 0.2745552510779143 0.08476052947684756 0.33920898250255777
P 7.587797742835422 3.7205803841607668 10.106791801221235 0.7228240019243165 1.9499125533343646 1.4383609832689164
P 6.8066462041326865 7.509084165374123 10.313181139351812 -0.2674458937266426 0.9171052985418271 1.5101554395033994
P 2.730639318443764 8.163490515286334 -0.0414786410603755 0.16253742854701042 -0.35373108737813275 0.7181669627682793
P 4.6289038943701035 8.170235537777419 3.8764460710156197 4.597623533082985 -2.3037385144191482 -0.10232064984779796
P 6.313155493952765 0.7357641246361774 1.983393810956531 1.3970117308981682 0.42350542785879314 -0.8864320378276863
Ni 4.442910131125568 6.887939033660726 0.44588124262421003 1.330339426381599 0.5520078783082816 -1.7602857247697299
Ni 4.468906765265897 4.739459173604996 1.7717086559925133 -0.09421036203583774 -1.757282676277348 -0.8154477361993246
Ni 8.993694232682833 4.635936531300286 2.9999948796008136 1.3424156408198429 0.4212559697029842 -0.7775512182638673
Ni 0.3230541047250012 4.800656103936764 10.232697341407299 -0.778624396723388 -0.11790487743930017 -0.7504589900327656
Ni 8.791306446409758 2.3713624945857594 3.787665060397408 -0.1860797346433247 1.0354997140230362 0.7006438662828515
Ni 1.7161768023224457 8.894216748295745 2.080823666094948 1.8476057874436376 -0.7925865153304349 -0.8676120769077059
Ni 4.471374682711054 4.728205098939679 8.863596016205545 0.8431485445487027 0.07416115669444648 -0.635384382953409
Ni 3.4487754613288253 6.67050251770328 2.3742414223422705 -1.656428326562431 0.8767526057563931 2.519611935385138
Ni 2.407787471614644 3.1783436654964445 13.352568991435291 -1.4059475999352173 -1.0045004374280442 0.3813699321413238
Ni 3.0879028412280887 6.234952200173737 11.971028805636843 -0.08562056348429771 -0.3410758605079674 -1.7943497563329744
Ni 0.8297500288135343 2.562579707159705 11.237905167109279 -0.3249997808817113 -0.5640339562348802 -0.15751503563175454
Ni 1.8878826224634457 0.3616695904335902 12.272498838390373 -0.5585657340314574 0.16815606028536847 0.30104892649306864
Ni 5.89095605312841 0.5998588798546669 7.30319212188663 -0.6491384993147079 0.9007548822082616 -2.478308962871293
Ni 2.5724884884808588 7.107036291056832 7.275150641863171 -0.6702603688949876 1.4682413157681165 -1.5634117277243784
Ni 6.447796162990762 0.4241932583392583 12.953125419474599 0.1835777941570774 0.7860415151230656 0.5550250678680505
Ni 3.885142232749999 0.9591755986187398 13.39788218242079 0.5632615968452298 0.09891059572498449 -0.5056987108290968
Ni 5.717942051183774 2.760272883555903 13.532777065511407 -1.0972825516577875 0.20960095769371645 1.056006061506504
Ni 1.438109307026292 3.750009835799998 4.9389030869256345 -2.1187898080564733 -0.9735896067818008 -1.8014115482757622
Ni 4.554560200806056 7.820719049078454 8.53913631188302 2.4650587827296064 0.64080092598329 2.433784655206673
Ni 2.832918724140764 3.4616624437774046 10.016381593973815 0.831280332356207 0.6046090494437651 1.2183138905412114
Ni 8.777417452366905 5.682324250161388 5.843693578476642 0.5903250287209253 1.9151460963874567 -0.7746610412002659
Ni 5.311422236232779 3.2350779330796415 10.749953354353263 0.35897896604063334 1.2001703868629652 0.009901061163795851
Ni 3.980778672692369 3.6735507844258164 4.439694416138759 -0.9488653645622432 1.7527873595101555 0.9029416054469352
Ni 9.089664676489958 0.3999390110267494 2.9162248547424845 -0.7563391029626264 -0.1289912171604488 1.0818443627258465
P 3.759501112290204 2.193960052973609 1.627173122461062 0.6089159043492351 0.5956456696028903 -1.4915730485155214
P 4.570620219969836 4.825056941834362 6.287975313704066 -0.9827154803424689 -0.185098601676978 -0.6786583631506957
P 5.934543557479326 5.283532913525487 13.592701997791558 -0.2292480425006826 0.21171774692640313 -1.780696684325914
P 4.2274312489310075 8.167730508791735 6.679475160414598 0.8577488109603809 1.586848875701396 -3.9927020946051233
P 7.412390046526686 7.781482872854523 6.511882226752687 -0.18923113578811282 -1.2180482955846508 1.9420822586566682
P 1.6020124257711403 1.3258376190419487 3.9647919488211327 -0.919744535936887 -0.09905406328138425 0.16171647530761182
P 4.436007384587236 2.5547213384527603 8.053234911741212 -0.5865509063904736 -0.19062698769437492 0.35109802063065987
P 5.096193856936788 1.3000450983745266 11.407821283208284 -0.15752300605155453 -1.196922826459945 2.2557486168034315
Ni 4.072703958581871 0.7781779765178752 5.646253688344552 -0.44452239643009245 -0.37554946880480483 1.7155156196428907
Ni 3.754351886041852 1.7177169312543852 3.706503049049731 -0.9003201086636882 -1.8004661536433573 -2.3508280117077835
Ni 2.6823479263308387 9.347190934103498 8.180403172093762 -0.3882196080733056 0.4429673932381468 -0.29331659084581746
Ni 0.9593147668957224 8.962019532841616 10.328226157882133 -0.7313955456434114 -1.2721538191798027 -1.6388507226899838
Ni 2.3663338808441257 5.218411437782812 8.274329697806271 -1.3699141033504276 -2.0233769410721023 0.6772925931514207
Ni 6.24443419877881 3.5431779425486165 7.180192415323963 -2.7235104433774384 1.3093196295968226 2.19269128333163
Ni 4.991511478990556 5.614521465615518 3.9298254553350245 -0.22260508326286824 0.9107204780614057 0.2625417715568059
Ni 4.024533178975664 4.342393523603679 12.774057597481226 2.7639096731300916 1.3136748212417244 -1.0484213071807105
Ni 0.1485537855821926 4.631149142572088 0.18444899537003043 0.2763385682305821 -1.3440719454763432 -0.1300890782103179
Ni 6.434649399758483 8.051237383072255 1.0726571228243178 0.16452283440815535 0.10233479091518505 0.7714345638431682
Ni 7.669665801241655 3.336318215641839 12.485921741239645 0.4648713924000897 0.34893675131328294 -1.1887222929270238
Ni 5.933420933378334 2.836527821457177 2.782891439719611 -1.1964291746529783 -1.7571551495605477 -0.5760646621471692
Ni 2.7459014394861776 1.1271145973960806 10.212993896752115 0.3991509102738287 0.7866729780594774 0.9920293015442271
Ni 2.7662014521553573 8.171163326290635 4.177046765932265 -3.411783703910079 0.8405712707398298 -0.13812171870680728
Ni 6.937909722982574 6.516081397563505 4.4917294349025125 0.31109165544105133 0.7900028137636588 1.3622115924998475
Ni 7.879726398519031 8.755401030948274 4.794109628187508 1.2514965479407674 1.1230455195545046 -0.679664435817707
Ni 4.308455019790215 9.058722929574184 1.972327149570883 -0.5439279295136246 0.13841302469498099 -0.6032414796722773
Ni 7.184256129011851 8.78519232010766 8.706241228786979 1.3334504612067553 -0.21471231077835276 0.0054103723822939076
Ni 7.998928666697102 7.444092580023298 2.7747037060904742 -0.6650693116123514 0.19771191956561435 -1.2730758167734397
Ni 8.303976251957595 6.707539835150888 13.475092742490679 -1.2323698544136454 -0.597116854831778 2.135733377889348
Ni 7.470608775731029 0.940044599476213 10.862741820539467 0.10805266723556875 -0.012536441904113894 0.03417124656507019
Ni 6.899285887177366 4.503272051795441 1.6818690386807214 1.8819726949592814 1.1471835502532888 -1.8191377619109317
Ni 6.493638193428795 5.6003448571335674 9.56206489818744 -0.37691035370807346 -0.937247834927973 -0.9097527148314977
Ni 6.411371185961878 7.408066552055097 12.433561068707752 -1.7181682267743892 0.61458390126829 -0.5265632129829317
P 4.309791035249247 6.709330466981395 10.193331274791516 -0.007602752047922389 -3.573120684391085 0.7368956495260341
P 7.487568749752629 1.5046224655387916 5.907393682217069 0.5881241644148646 -1.37573302402505 0.14325338350641778
P 7.06359723286803 4.44797585640773 3.7738419393389937 -0.7848616358823515 0.2906827527673962 1.9157806446476622
P 8.8052789414188 1.501904045195067 12.632508615173817 0.13155229301940569 -1.0342414161359026 1.5471374160443871
P 0.8088766428431868 4.396019699667599 6.932576794608605 0.9731514908031177 -0.7498722642913601 -0.3547027072627827
P 1.5691872681735364 4.57153873059792 11.891903290075676 1.0772220334624867 0.054912849987795755 0.836610743430185
P 1.2725361689576538 7.443740020388276 5.483480616008801 -2.1219028997641587 -0.517683908215431 1.335482146924803
P 9.000133084964556 1.162583952256352 9.305107374932504 -0.07214104094062414 0.51618238396924 1.6813824254046075
