# total energy = -340868.0743496387 ev
CRYSTAL
PRIMVEC
9.32561333419878 0.00000000000000 0.00000000000000
0.00000000000000 9.32561333419878 0.00000000000000
0.00000000000000 0.00000000000000 13.64897776204009
PRIMCOORD
 96 1
Ni 8.158260927065797 3.7654121722706004 11.18593782654546 -0.4066263927152674 -0.05506865883936968 -1.4764349073225023
Ni 8.757235738067003 5.004944703585855 5.959825947459666 0.6206681597891568 -0.7518712969992599 -0.4358022429482753
Ni 2.0130641704209093 5.697082390576132 13.5365369718111 -0.4187391168184014 0.2836757253219437 0.3638602053923346
Ni 0.02411417064389795 1.3266151074900234 9.74856427605774 0.6057552472330664 -0.11004912884030726 -0.25490919471221263
Ni 7.5521333707308935 6.260647848210923 7.535887219954061 -0.07586065588405644 -0.6792098647787915 1.3163536536254685
Ni 5.343958720686026 7.771751561876302 10.448279023782867 0.8209635238112312 0.3175870333574079 0.6767421199645893
Ni 2.4234377798202167 8.331064539886365 1.3363743617165063 -1.4234115610479356 0.750009818310489 -3.4116227528521823
Ni -0.11883628916203558 1.0280369492776016 5.103802731563567 0.3041892718942632 -0.32641363051010236 -1.9594572596000062
Ni 4.452681889164153 2.3243624650546617 7.930014678576535 0.5007891893426214 -0.9226221145949981 -0.11425699627406774
Ni 3.654176257876442 4.1820432681352395 5.8599700788682565 0.5953463931949166 0.13276533949090039 0.15767367269680585
Ni 1.5075786318711974 6.164855149296034 9.477426734721979 1.1922017668351919 0.9367197303386449 -2.4604397959003563
Ni 5.0093930210880355 5.40228110571462 11.293409923447209 -0.8888704720658499 0.05585953017178121 0.769046780337282
Ni 6.53302103329729 2.3417081056292037 0.8586875435908009 -0.4993097765836175 -1.4973855414322406 0.39450261286853994
Ni 4.118880889849557 0.9699663558057351 10.267142975557267 1.7637747117595945 0.8705922425819522 0.6165819055349253
Ni 4.335029952880056 4.034838463581938 0.43111004293777583 -0.9499377716908155 -0.44817901934607335 -0.9226748222098046
Ni 6.545013771888075 4.919149062034357 9.617042355243258 0.24889924107270686 0.2835147742640472 0.32329102572072066
Ni 2.6501900650728962 3.9351849607972316 11.95760993837662 0.5209291546256061 -0.041947033855747114 -0.9577050743410602
Ni 7.2220905935407815 7.639980647189057 1.2637819233507277 -0.4555516576610606 0.9687862718558864 0.9994181378091304
Ni 8.34741233984721 5.197863664104965 3.4921045607403793 0.037224945789729444 1.0513919597732604 0.01502167021981284
Ni 6.924361066130662 0.032820563138732474 8.310494102263073 0.12145274269155858 -0.524729759318619 0.8403262446085593
Ni 7.190616648949879 3.1835405359004203 4.280224256593753 0.24357448642568374 -1.1369549305467452 -1.0152587043858128
Ni 6.330617924141453 2.4369505933645774 10.121290384919721 0.011880039267037604 0.18283217424030448 -0.9358195871218786
Ni 2.2812315039486104 2.161770398701363 6.379504653722026 -0.2723407599250987 -0.039084881816603655 -1.10922404029038
Ni 4.800312772872322 3.226615543327199 2.6714459352672795 2.004486789035819 -2.2947807910052282 -0.1158233123199231
P -0.13771319542600735 7.553196490637076 8.195405777050988 1.0065241527262923 -0.2561659499374491 0.5949180474082464
P 7.202413549663209 3.5479108953243434 8.047751477940862 0.15229209666991836 0.2025327379930254 -0.2198650586238859
P 4.953896296862713 6.285407351289099 6.202982918913784 -0.9268281822565456 -0.7080643271166387 0.14541850947853668
P 1.070067488024623 8.570275844390437 13.199011322579581 -0.39095860427102347 -0.8824460565967448 -0.7347485212760442
P 7.250962692045502 0.23705242504546523 0.09232357079998056 0.10617601903814616 -0.1033578328630607 0.8537571733024845
P 3.3875103480758924 4.5461245335495875 3.1621811513993823 -2.779817859719916 1.8535080118606855 -0.04453484918758136
P 2.0890026388071963 0.9175051186809582 10.631775384712451 -2.2888901365524066 -0.18803968658317294 -1.791494032051734
P 7.581108050980949 3.77773130732381 2.031008515363669 -0.6686243759534614 -0.37332675012187316 0.1250376318293395
Ni 1.6771369312939497 4.853123720492553 4.619100254618385 -0.19624587654304912 -2.2480551048139152 0.7560758219989108
Ni 7.940246741392873 7.089937328711839 9.854561993510652 -0.7787771202511684 1.0227583551969677 0.5574534748038851
Ni 2.899724823402783 6.838033864626075 5.434558918164406 0.32586444287485167 0.465597729043153 -1.225138883882845
Ni 2.170321986016876 1.293434575681303 12.608010843436059 -1.1440072094078364 0.4215539605593772 1.0036357754349037
Ni 4.79607894447402 8.0280660410114 3.6611471537525015 0.6488939874040696 -0.34668317939241583 -0.7174676227084096
Ni 0.21806267886162678 2.862207881450427 2.328856478061582 0.041145878110690426 0.3497870151287202 -0.3989261958575323
Ni 6.1643142637297315 0.6048322286597393 4.25441375690657 0.6991143170122024 0.09825033643316627 0.1519138873948932
Ni 5.232079338980231 5.223359890626899 4.124748565682622 0.48100609317842324 1.1666475725151713 -0.5086850471509303
Ni 2.3653765119615624 8.488695380010817 3.450161682757552 -1.01273388108143 -0.5999322127933862 3.0253016473531704
Ni 4.70507961075016 8.534670653146566 1.177297118982855 1.473146723489534 -0.18939337239758994 -0.9457921249535581
Ni 9.225633312872118 0.3774038364491811 7.27035996752671 1.9722271576711645 -0.8008186734322401 2.184671241240631
Ni 8.579592131989344 8.502814358413966 3.758997082941984 0.02549711582983996 -2.3841250831980165 0.8350030326234328
Ni 2.235218928360014 2.549044464174251 3.814739070794784 -0.5549610473993345 0.5530412046688022 -0.05746981208169458
Ni 8.663130975143508 6.874898013653582 13.007843712221709 1.2952104438889498 3.070174853716777 -1.1267895599779691
Ni 5.903094512045059 5.642620809417357 1.1131070581211957 -0.07530555471153481 0.22628613165888128 1.5428989524830072
Ni 4.27805978176722 1.4290476430119412 13.733874407870113 1.4170843332783272 1.497024558548396 0.3729158878366997
Ni 8.608986464833944 1.0904719297327399 12.239747973057398 0.2453953416845064 -0.691659403396054 -0.920614597246666
Ni 6.062329357641995 7.153687220629887 12.84982958939424 -0.46135386616513446 0.2486287610201396 -0.24216835010677648
Ni 6.643790667030842 4.140189916039249 13.09368225159398 -0.4173517495525716 0.5049271227703949 -1.4537449219241543
Ni 9.516135490042842 2.708493798875066 7.5400501736919505 -1.0056021551326553 0.6495951272361522 1.0937629685403034
Ni 1.2519355968873727 5.179100530322182 2.1961613951050163 0.7763654254858823 -0.048415929409542424 -0.0891907973340593
Ni 0.266613686366562 7.305452250043916 6.1203794347647955 -0.1641392258164915 1.4599068277604923 -1.0231900434177477
Ni 2.2898110681037602 0.9973929842625778 8.407770506240011 -0.21191160810476412 -0.300607725190592 0.6004415483296368
Ni 5.5036318701039315 7.403706910846804 8.1432121850254 -0.42163212209548034 -0.8490307143610927 -0.8703467022300495
P 0.8514797771391539 6.621502451453878 4.097122369103039 -0.637098023210406 1.9276992504621189 -1.4084148305287874
P 7.610297220334881 9.12390952395432 6.139910999076258 -0.7967164783384085 0.4611926579969218 -1.2466777863958851
P 7.517376810289326 0.4462557713555787 10.315665073661243 -0.6578159724840477 -0.2642204448108095 1.1422112938496778
P 5.112450372695165 2.550461957382493 5.019125231036203 0.27445806337841766 0.8556819011290232 0.6651017075121836
P 2.8688290668310317 3.7200896920597013 8.038674858601507 -0.8605762531068469 0.7908998716566314 -1.4508233774019852
P 0.1544293571087311 3.012648673788335 5.472052546083733 1.078797862590039 2.020086957466921 -1.215002309669475
P 4.446228564821366 0.019670515948323128 8.390763385425068 0.6839003282759254 0.4148089285260598 -1.3529378805074053
P 6.727805116458825 6.924025344055026 3.411015556177039 0.09301454195552368 0.22898141910285724 -1.181886500952113
Ni 4.029336351786787 8.977040441476653 12.399454694682866 -0.6844885966792276 -1.5906371390992349 -0.7160442599983217
Ni 2.8900448368886034 7.7493327877143665 7.6263111633427325 -0.208718297978447 0.445913106130032 -0.5449589418813002
Ni 0.18087026824905278 7.362189280826449 1.6585146142706688 1.056122275369394 0.2625150320839285 0.08384830207522334
Ni 2.318990911844481 1.7202865436264254 1.2950861417811697 1.4251691671689908 0.7841689806907011 1.1020326647482632
Ni 9.128068747446926 3.2548068720674355 13.089751505625072 -0.1175320674809137 -0.08470190832477026 1.629693481670748
Ni 7.855980500408163 0.9829009813309445 2.7126390339478528 0.328296449355112 1.4378953564864076 -1.6828901202983857
Ni 1.4330576566931525 3.272367001745856 9.486121003919637 -0.05215611317826501 0.5909523778922791 1.4363958891227457
Ni 5.928562761727357 1.207937353752594 6.623657600667198 0.28881124677629616 0.38218497184345146 -1.1586355008439722
Ni 1.5680925360046392 5.650547580647658 7.107964671612187 0.43498206103982506 -1.591027175448802 0.7156035729164772
Ni 4.9116978970778735 4.784319346213537 7.948591300095076 -0.39607561378261463 0.981548199507245 0.3378408985104375
Ni 6.863390206949826 7.200529775794362 5.680499585162343 0.06177203900147426 -0.20101295891438928 -2.5293980682376245
Ni 8.849885705329408 4.983365234613011 9.009335040030223 0.8062179900709405 -1.4667511043758354 -0.6099500020407044
Ni 6.014246495920308 0.88479553033945 11.956026449253201 0.6662756732156268 -0.04561316985342467 0.6169372319918149
Ni 6.447505160142157 4.496055316213719 6.035960253723407 -0.5524148839387132 -0.269488120967652 1.4738314082613841
Ni 2.706554071326945 6.843414743449467 11.363606611778794 1.5827297113267 -3.5221534493145983 3.335321924106914
Ni 3.740018527494 6.63159276494939 2.045613358215169 -0.3956362122523509 -2.745243721289472 0.21937423503039638
Ni 4.75124139615015 8.552370667023167 5.9138973023899775 -0.5151475149468224 -0.5889813702088373 1.474472384279493
Ni 0.22883935748955178 0.7336758333597 0.8068856273201209 -1.478571751159847 -0.33880994729192615 -0.24713315031121952
Ni 4.0007906497444905 3.3916509203420735 9.961528642176303 0.40435353752069075 0.7969797593021243 0.8227578967074927
Ni 0.7302869055184158 7.750116139224185 11.12597786383682 -1.1259372392800029 2.425746358283229 0.2739636402405024
Ni 8.325739614742245 5.331938005255604 0.6979512742667136 0.6296328251816125 -1.9249959925983429 2.3323916593794665
Ni 3.046985581635358 8.241296187106506 9.892479004269806 -0.801172200116917 3.097568415238382 -1.4745232921220863
Ni 0.5403875785573892 5.426676909877523 11.257294621160634 -0.4177620976171128 -1.164133033623434 1.8502247131237233
Ni 3.818586818806104 0.8548528514379775 4.433351758098072 -0.6488261102806117 0.5032862447328622 -0.2801774823606981
P 3.817141348758226 6.967492027236713 13.257374740306311 0.7441988680556666 -0.4273368857897414 0.8330700772667782
P 1.7615150796372046 3.4123444560597656 0.11817044037869025 0.5312868437108463 0.7164985739269208 1.2657710555819104
P 5.023763791047911 3.0128538372790015 11.993670219545242 -0.4300064622021046 0.24567122105371242 0.21813342064475982
P 3.8957842449760274 6.339085580938058 9.368057808092887 0.4060810617347587 -1.3264532039533157 0.5713731702087709
P 2.322907669393571 9.183425587474066 5.927832566212848 0.0778864280648336 -0.19093294897056795 0.09577719230232538
P 7.50102901032848 5.88426609896979 11.610721373480136 -1.1464566993895933 -1.5072248961201657 -0.45341738492687716
P 4.801702289240927 0.9651356881618572 2.3133787578134277 0.2940876646838871 0.48910558235710605 0.43520780389738595
P 1.094379361668618 0.8091303024202781 2.7778399912817053 -1.3132570169780158 -0.43520446146327624 1.8451082178327642
