# total energy = -381167.80805549823 ev
CRYSTAL
PRIMVEC
9.30285577518530 0.00000000000000 0.00000000000000

0.00000000000000 9.30285577518530 0.00000000000000

0.00000000000000 0.00000000000000 13.61566977405392

PRIMCOORD
 96 1
Ni 3.016125440621226 8.425819899083075 2.9003830280800633 -0.4650444276428442 -0.8931909538180747 -0.39204566668761515
Ni 8.03416966374494 6.589957095221579 10.362246575723795 -0.477714566911345 0.24146309650963577 -0.21940457404769956
Ni 0.14275790620914236 6.189217969623933 1.0690423424940503 -0.9164000449446863 -0.7202654971685208 0.09225478097136369
Ni 3.6536408557634372 1.9298495574867032 10.395781510838924 -0.9465680838876344 0.6197798436469326 -0.09791043659524429
Ni 5.8182665887662575 1.1134960396333207 11.174421250686112 -0.2665683762176957 0.08126562894971166 0.28993893262283615
Ni 2.6650542629207377 5.495931933083811 5.814231940142359 2.216735211654711 0.33007282452924447 0.4999391826375003
Ni 8.274025198607722 8.438583417441365 0.9653145684075005 1.0245139044354936 0.9704839712732835 -0.11198825484454906
Ni 7.2178533573153425 2.9344463654129407 12.192818845408647 0.2831355365477575 -0.9154284250600362 -0.4587966469609195
Ni 4.599248254134351 9.237521988963321 1.5829172203967123 1.1573311802102522 -0.7729610277900236 -0.9530272092494169
Ni 7.87078360476053 0.11410697046580769 11.74848467627557 0.5939657107973061 -0.721199578947016 0.7256061926551439
Ni 0.7420060234163555 2.294716870555516 8.34727681661428 -0.5676018760917967 0.3921559670132343 0.01487588867056793
Ni 8.531611976904104 9.061121234510074 7.4634022400172455 0.1056653979503148 0.7758362924552896 1.6824345208182057
Ni 6.990742735098955 6.402076616530629 0.8651767664306179 -0.08018833672513287 -0.5120300523637633 0.372128616048714
Ni 2.7232064154408966 7.925251826325964 5.19312583260378 -0.6710198727688315 0.44476176613440827 -0.05067207243357079
Ni 4.817297894659068 2.358543765202902 7.881634455936264 -0.10557900888409559 -0.8381809161307823 0.07000136888980202
Ni 8.000195633829147 4.185373495940567 0.7876421135463972 2.0304168786380195 -1.0146802061745233 1.2617056272632852
Ni 3.27088415070994 9.00215973352259 11.036208719892318 -0.41591090334098696 0.3498116977190685 -1.3615153377637712
Ni 0.7083520117451146 1.5046811321741425 11.070030182970592 2.670889988968245 -0.3534158701305591 0.1627703704934229
Ni 2.6603098063881383 5.706576500275292 2.4595206847861384 -1.9202409944118604 0.08493176494738922 -0.6177039349545104
Ni 3.7059601176052825 6.517459938832265 10.910276889233202 -0.7825095907104073 0.013408302986105942 -1.1229994968079176
Ni 9.271375081751813 4.570083800742783 3.0379415681008335 -0.05678332753763124 0.46284459177804804 1.0248856859526156
Ni 1.4254114966559417 7.45372726983312 11.859438908861188 -0.5837394050836076 -1.639458531477312 -1.1413543451660215
Ni 5.0588279435921795 4.340191624598459 5.1548380683857005 -1.0611174145911402 0.8571032069565819 -0.32954549127086474
Ni 4.314329685067817 3.356786722517834 12.061100638350947 1.5620706403154516 0.2508509654824389 -0.6844122349153375
P 7.021060742627863 6.304740834764765 7.92922135495824 -1.2511556196615805 0.5755717816711506 0.48823089306163664
Ni 0.9467609525082517 2.91739423046342 1.684735118157492 0.3117670842415211 0.7014506784548629 -0.09304668074503976
P 8.206923698667248 1.8149406808383268 10.430419764669281 -3.5497601552882743 1.1262743109044475 -2.0957781776526483
Ni 3.266651351254385 5.826685673397636 8.507206864614648 1.7403905285076995 -1.0158636849596634 1.0235641389277146
P 1.6965525360660438 4.772058106192337 0.5449073447682428 -0.26157735076100763 0.01273056019279098 1.4314603994943411
P 3.8891333511874175 0.6782600636157021 12.932204254304937 -1.4098006551327205 -0.1110433744327765 -0.358174467861467
P 1.7995909685269749 7.1254108777772185 9.494860381005937 -1.0043374294876186 0.6087719225722031 1.474552345587809
Ni 7.985450607154304 4.346908286591669 8.134504686267885 0.18604579608159572 0.17032684268444215 -0.2561212127424428
Ni 4.223347753913258 6.5877430155063665 3.886348076117103 1.658235554974499 -0.25641508983377775 0.5974037899445775
Ni 7.520242689848979 6.179505788016024 5.773397984251784 0.7162113817038052 -1.7604145370381101 0.16379546932382757
Ni 8.469822407708952 6.863814568567993 3.4427906954555425 -0.042639431937081404 -1.3806250620100287 0.15202418772051238
Ni 6.7532036113667955 5.1808069907597245 3.6128087604440515 -0.16408266154694323 -0.6220365008915932 -0.10364579641712472
Ni 3.948597206396001 2.2164333377676204 5.498306952206894 0.3340670332903021 -0.3038378020921154 -0.4214590868527258
Ni 8.766695146666448 4.31205048536098 10.449359449090299 -0.5996473345631157 -1.1926226564226945 -0.6087009601249517
Ni 1.2753099159628105 4.941277055855061 8.91608505887969 -2.3455873321341345 1.305769450351719 -1.7231163148082842
Ni 3.0147579207971242 1.5758200715953 1.4591780728841326 -0.30771116900459267 -1.345497107958644 -1.3891582962920204
Ni 1.605700844894732 2.4066767418689237 5.785012599900707 -1.2152069694811134 -0.33132032378310033 0.7384835628384442
Ni 0.3978905911068962 3.7883834212892697 12.66164743424826 -1.1148192749899704 1.384920346951273 -0.300207918649012
Ni 9.18916574375459 6.774990899992969 7.953362266138821 -0.43781335984103303 -0.27918555076107404 0.6920476399734081
Ni -0.11267340036448685 8.549761848855285 9.827327707385066 2.688276559875809 0.37874586425491547 -0.18263779884131126
Ni 3.6609994148169402 0.044802554237255605 7.15212123777016 0.5611201250221949 -0.2106260565241211 -0.31416180972594276
Ni 9.057939657776448 1.757160642556019 13.483857099919822 -2.4823006005291894 0.412086130278258 -0.8641377452058601
Ni 5.164880501379703 6.547405832123322 6.24293452042891 -1.0915497629390685 0.895786996680025 -0.33237936117523403
Ni 4.783677373269233 4.624579930876055 2.1507719199276294 1.8363767514970373 0.45944945005356996 4.5413747378925855
Ni 1.3735015604757328 0.29037190322223977 6.849376536139376 0.09849561967475295 0.27230245048799556 -0.03540769007533257
Ni 5.084382888876594 4.758541056502401 7.649010961286115 1.4661098712474105 -0.8270248995139627 0.21519387840046167
Ni 7.97844555662676 1.4713862107424278 5.920732895586493 0.8247474163336957 -1.114458292106126 -0.9769490101723368
Ni 6.6846694716105945 0.9249987815931329 2.036359815786784 0.20935258912833624 0.9869619143236485 -0.6351596685371127
Ni 1.6738070532774039 3.749097460628155 10.563036627611389 1.6998167208503951 -2.4985959952551036 0.9141539292229869
Ni 2.2241454053470813 7.356893842288354 7.419491829665238 -0.7999480979018287 1.413378859402282 -1.0364073134389697
Ni 2.335909916685617 3.837660649236683 4.116139781417207 -0.197857186894227 0.44306715204080466 -0.4010144458451287
Ni 4.8116231525318405 0.3184283864706075 9.214404391936831 -0.09844728293532078 -0.1011186591198968 -0.21551320941309335
P 0.7627197624663291 0.8051249707262299 1.3255778980685022 0.7122117736261089 -1.6463976817993062 1.845251428278848
Ni 7.653366558440161 5.183858327510102 12.24375477257128 -1.024136723601733 1.094683937692676 0.6838679323760932
P 5.531403722806953 0.8527797805966132 6.344208201116832 1.0630508841684272 0.4470916998191655 -0.08601471359892282
Ni 9.25722543785753 7.857722395011962 5.710861395724145 0.7181281391105439 -1.82390561561322 -0.7079188026777099
P 0.6202502447915212 0.2453330564439488 4.765852170990578 0.08820837881613196 2.380387470532455 -0.8680939016401308
P 6.283576837486991 7.2640327342326465 3.022066244428517 -0.9000478288389081 0.4328089646479062 -0.45121960594460997
P 6.548838471939049 3.3679408467974166 2.2960788086660506 1.5621832546339163 -1.0766083111378877 -0.967579396031979
Ni 5.072037999035888 8.907205482878972 4.561508428131507 -0.4957295154315268 -0.13891490403206397 -0.4451304623277366
Ni 1.8351557868095802 7.551891005778204 0.7924795986384597 1.4878845439203408 0.8514112987781273 0.2113526502775005
Ni 2.5576993053007357 4.8636633286952975 12.28190578480695 0.7455199008599354 1.599335181093865 0.3960614727152276
Ni 0.5610115186968377 4.8621469631760545 6.415676461638488 -1.1159832133910845 -0.6219992198957546 -0.2596551940376302
Ni 7.5023067835845625 8.937290919009222 3.747849017360165 0.29523129137002707 0.695072542842661 0.8463608808384134
Ni 3.7679543496312524 3.5836461676236717 0.7479561300795924 -3.9868430647211857 -0.5814873758246373 -2.820501967702839
Ni 5.464934817070826 1.7347593654373912 -0.014760841529952962 1.3403541303051238 0.21062939895823082 0.5276818999684073
Ni 6.616981891745504 3.157286976749988 6.420619069002743 -0.6009202877382683 0.8464585827585421 0.3360056450739117
Ni 2.163230304610879 2.4129096553529275 12.793433552154367 1.5357865098079422 -1.159616633810319 0.11163909903524644
Ni 2.7916475266376346 3.6439100684436347 7.591090449879018 -0.4895151590906989 -0.5447116017571845 -0.6143231914077356
Ni 3.703876277873317 7.860280680397187 12.79683746714511 0.9632177766291732 -1.3766398521100356 2.9201684677572417
Ni 0.5489754836735484 8.42708508749177 2.7566827425635636 1.4711960275210663 1.4688871768822314 0.25397794114719485
Ni 6.822630825293838 8.261317497385113 6.169178687630065 -0.9858679099285215 1.8087669601995686 0.39250537993285306
Ni 6.239974351666804 8.53117474267463 13.412496752527144 -1.0329491796870405 0.10638299284262968 -0.14406585210538414
Ni 2.1177579447454917 0.5605352124723885 9.193368774071116 -0.06176175458882912 -0.8229031640361054 -0.819429346554892
Ni 5.829188141647183 7.847610190598362 11.08823401148626 -0.4232927976273549 -0.30182874208188665 0.4664467073070096
Ni 5.892159173547513 4.013652078028295 0.24712013507122804 0.854378094715935 -0.02624942061483221 -0.5640349846761447
Ni 5.059981497729518 5.717758533122713 12.741611993105646 -0.19473612476674204 1.188091087100928 -0.8252791204674497
Ni 4.720287712851323 6.581277530623706 1.3821811250736065 -0.7387031350484181 3.4203161668611224 -0.6835984807647905
Ni 8.52815131449209 2.1465688896111024 3.605633467652691 0.7363780864596673 0.12379527478180614 -0.19543135106155374
Ni 5.058716309320824 7.358838139181126 8.83332964323842 0.1706690565152093 1.0180797187743755 -1.8919778858011091
Ni 1.2395869491291185 0.07992083543443997 12.952314238003996 1.1890012576200233 0.2788207112224876 0.1320315466486694
Ni 6.27648806125593 3.257515946715144 9.669440566550499 -0.2280187980792718 -0.2743634467820823 0.9185376601129794
Ni 5.705767151807966 5.604942799062248 9.928083218996782 0.7747404882879496 -1.6972381614899414 1.1620237005899148
Ni 2.306624526166747 1.268156019740126 3.6087517849658814 -0.8996824750796892 0.19709125526247992 1.1016994497785606
P 3.982794504854504 3.856591961087351 9.555872231443981 0.4839093828681473 0.8316670262716644 -0.12099508632884969
Ni 7.034828969428348 8.807516078558699 9.304690469466609 -0.5762757497167107 0.18954815280789938 -0.27621412683757596
P 1.1283806091473592 6.14143850148387 4.509155676008255 -0.34137642246752176 -0.13703774161400917 -0.7548283227450548
Ni 7.402152236466978 1.732749948552996 8.237684522139197 0.14396840729557142 -0.07518496997327051 0.7539960566517466
P 3.8664157769666163 2.879596726753709 2.980021056693737 -0.21604465643653115 -1.0125071097826046 1.6910433455331393
P 8.059147831960686 7.261818654517434 12.654839604266776 -0.0497431328613982 0.6184426128927477 -0.2205793110820911
P 8.106415643023704 4.1415012272979395 5.121629663514287 0.6554073630425551 -1.0845974999909516 -0.15075740519294678
Ni 6.185934061474899 2.326430306476364 4.111919075674383 -0.9143069098610835 -0.6964449977101554 0.3727042860465259
