# total energy = -340884.5893005542 ev
CRYSTAL
PRIMVEC
9.13100378398722 0.00000000000000 0.00000000000000

0.00000000000000 9.13100378398722 0.00000000000000

0.00000000000000 0.00000000000000 13.36414701387400

PRIMCOORD
 96 1
Ni 5.468265822694151 2.812960864831514 9.58415149579427 -0.8231595030212856 0.23883697174069837 0.27034404121004413
Ni 4.978752723389073 0.8366866369644343 5.901513678240268 -0.12032865638944437 -1.0603558538347673 0.8364235671200433
Ni 2.8149331615942423 1.6518259317960553 4.885651185184738 0.008962351399610371 0.3877426684368871 0.11874974193809873
Ni 3.3010586585892634 3.0135598814074 2.721461817746895 1.1041803072188856 -0.042444799427772066 0.045388969657760535
Ni 5.3277853333673715 3.2391139306339256 0.41983349825850125 -0.6816662967390841 0.3072758812393869 0.6828724012320434
Ni 5.403024802464067 4.403417321894694 3.1742920234659215 -0.23018572382360358 -0.28047033101076857 -0.5403551245607016
Ni 4.4950743353404015 4.867299694287827 11.57980627865622 0.4677302020051235 0.8594513954737844 1.3044093367793985
Ni 5.356703221550531 8.484291075054962 12.69446896921988 -0.26377024464726834 -1.8905779201297892 -0.4799421706902831
Ni 2.0149020252052665 5.418291840368155 11.60763027261635 1.4190838802068593 -0.27852272036609454 -0.0596004852714522
Ni 0.8307688335758945 7.550691619012289 11.055557015717932 0.4732465038376623 0.35619548975822524 0.09154901315359072
Ni 8.539570170432558 9.095693940497393 7.383557730378077 -1.6771696728748406 0.3367600067414329 -0.1648568207088064
Ni 8.75122683228467 2.661559695281477 1.7461592423767434 0.5512907976365989 0.9018756260762661 -2.0610171200223792
Ni 1.5070903948237593 1.3798589916206823 2.622513697981563 -0.3460483740218943 -1.2394478443063495 1.3750131151398899
Ni 1.957933694174407 6.656583753241851 0.659572561470672 -1.0286173850809057 0.3964034294356786 -0.4395923061183267
Ni 7.8221746160005114 4.112330060325088 4.228616129595372 0.5889795704366243 -0.04287391654539068 -0.6524392815531667
Ni 7.299835559000941 3.9948870929074065 12.857712137249468 1.4414005414261888 -0.17257810061246406 -0.3816643234532911
Ni 7.105646506903923 0.9336816350744533 9.720638997276877 -0.3568891733911402 -0.5243656911109809 -0.7229628414950259
Ni 6.255175707008862 1.0101081346301986 0.6230978547651308 3.6461870653594555 0.647699452875336 0.3186586691550318
Ni 2.206707885380653 6.599880221313394 9.388500570031916 -0.10915412782986363 0.15316935706854912 -0.06930022905771936
Ni 0.20044835501762218 5.585781838140082 1.8692296472706742 -0.6545969513261178 -2.4801974381432577 0.39992558365632414
Ni 6.3208184913943155 2.4511539809131326 7.442492879569547 1.1662197409491333 -0.7878957947229851 0.12323297452043293
Ni 3.2000697595347183 4.334432590216838 0.4402294208460362 0.062069258526918906 0.4990619222388696 -0.7727283429539272
Ni 6.18488524182605 5.945652949309859 5.215705917423889 -0.19943738689715332 -0.08934943439911064 -0.5202262150213105
Ni 6.248254406332247 1.8044506558192668 11.723884383374273 0.5271321981125243 1.0624628728754413 0.1986467726750579
P 0.17071598131948384 6.006684576912082 12.556564335989238 -1.108196113246498 0.25834521697695506 0.6567965300805978
P 3.856616306435166 6.471918337827825 13.250030269467194 2.0708559604896726 -0.22863046352134175 -1.816643277623852
P 2.3492611125090037 8.707717600458729 1.38602241900421 0.9259437227690633 0.7344371606832126 1.67864008677278
P 6.621675926742255 8.396679096173555 6.319410490649812 0.5917211377375036 -0.4104444809097769 -1.659335987127529
P 4.414109727029674 1.3295836861781571 12.908816537812621 -0.9247988105313428 -0.14658476187249594 -0.008821712056688033
P 4.151611637516106 6.382224490141315 8.398885146626682 0.7976163644448585 0.8195450461971497 1.0420889372047795
P 4.749957167908988 1.4902254313017207 3.8180697750284067 0.6290106182165812 0.6736467688687172 -0.0805187234813581
P -0.022866772143064856 6.019166658739167 4.124830404159235 0.8467066942136063 -0.8891640920468686 0.08737019918555275
Ni 0.6035328534989306 0.4316124928136878 5.120044958929771 -1.4916149574970503 -0.2304176373287516 -1.2964016359835737
Ni 2.1465071790997654 6.399098584666885 4.859684437342846 -0.1569185396983362 0.37351366932169866 -0.0696846089803316
Ni 8.036680150954343 7.58144483890521 9.234812084097324 1.7276687100656567 -0.44080509547950536 0.3914247452741646
Ni 8.60090312115131 2.584147047344367 10.445697289872268 0.18882695837115868 1.6898842922280315 0.9391597072387051
Ni 3.697216377791839 4.484902397406698 4.924741924401953 -0.7289889930844476 -1.3164822087835328 0.957232505580016
Ni 1.5701673672169596 1.1037830998562908 7.17283151778579 0.8945053017541239 0.3129829589264932 0.632657213830233
Ni 1.2214726043693134 1.4191496998152309 11.835461594123544 0.32863763474461466 -0.4300982505849625 -2.048855287848865
Ni 4.4013993701143095 7.206580619937282 2.067206239632413 -0.46444356083405175 0.17434187738110618 -0.6673239119744829
Ni 5.978999374205627 8.467280015476426 8.37012522480461 -1.946423052123867 0.042014396758572804 -0.6880200068712538
Ni 7.331483617239915 1.2152543909645985 5.281457360751364 -0.7865099701190519 -0.9253338570992065 0.08000321729752029
Ni 0.4576312873757064 7.391373869400743 6.328203647050312 1.3149043227734516 -0.8145059411113457 -0.05434874995420963
Ni 5.4228116871160745 4.9088092363404465 7.294712152919611 -0.24175620227002234 -0.2105422385610632 -0.025443379773769086
Ni 0.39776568892441216 0.5469197185054329 9.643314006973664 0.7541950600364301 -0.7492983940657612 -0.21030004064327007
Ni 4.642941806523883 0.4736918094866503 10.506370982136067 -0.6456405134637784 -0.16662188302902917 -0.7676974653982391
Ni 8.01772418762367 7.7690139134421425 4.549356325132396 0.6261808620772701 0.8661912853007793 0.7245250437758232
Ni 7.374655001935203 6.430043555633961 7.212469204114521 0.8115178050172991 0.2524447923321201 0.33906217251204834
Ni 2.460860237666748 5.404376190986678 2.672041174234886 0.8312631059650264 -0.18010526222744463 0.27902048593811946
Ni 3.514559783154668 4.483770152968835 9.398496279597468 -0.1764190716251091 0.03821507761714063 0.9592009421602964
Ni 1.2388306420820339 3.554982735787079 4.132648369382608 -0.01316430529609991 0.402582561663197 -0.49247398460870667
Ni 0.6866943812592539 -0.13963678460050058 0.12042880557236846 -1.9755829615172749 0.37892584147620545 0.8311574336250976
Ni 2.7799705490734605 5.3607208631042385 7.154482766189939 -1.4873440980358386 -0.6520734135733157 -0.4603375090854782
Ni 5.724710056866565 3.194079821218282 5.333577128907182 -0.4064654416573709 -0.15585770253398964 -1.070786305139472
Ni 4.043637520760229 7.158779816451699 6.35169863223632 1.5445621991180432 0.08679735740121826 -2.363339771021549
Ni 0.9391511061896136 7.633400248997468 2.8195808423915993 0.2066562732430957 0.7403033896560025 0.30405120365450217
P 0.4463828041256798 6.240666542397861 8.240346271616342 -0.5621709348842125 -0.677681343949407 -0.23872384320160178
P 8.492088952070565 1.9080327598766593 8.248311245996566 -0.28060659947831673 1.0683391291505602 -0.1866392066912205
P 1.6447585350629434 3.360446705555878 10.595495968302586 -0.17798178812653861 0.9837428931657187 -0.23587274690605184
P 4.381292900338711 6.225016002345465 4.032550656272703 -0.4961192946707778 1.3541177597481195 -0.6692668946334668
P 6.41348904623198 4.291635576666327 10.823181193753284 1.2705697625221344 -0.5416419616929252 0.02828342032572548
P 6.493029217991849 8.09014217662924 10.554120652001876 -3.2094859647459955 -0.6120667912733911 0.36328273562230984
P 2.380982218776227 8.666646346575606 5.635741210860429 0.7469324649367458 -1.0155317555415415 1.9620846699205243
P 7.082654640012482 4.127122286045555 1.7633593137283752 -0.8214576898388304 0.9044770682548552 -0.4243801171542627
Ni 2.2758295821114762 1.8516762060823868 0.5289380332515345 1.6793813358141785 -0.17688906928299214 -0.6991364284993895
Ni 1.0025750567169978 3.422309254479435 8.409389453088918 0.08155359250377568 0.4395018032870495 0.4149806782172337
Ni 8.038835067787694 8.494956087179348 11.823674381665178 0.0155204642331023 1.342069570334334 1.4353304239727087
Ni 2.857182314932885 1.9889060581520759 9.232500114003235 -1.642395759728765 -1.0212578593920412 1.5652420960648978
Ni 6.7782087202768 2.0899223502172144 2.7250293008265167 -2.4850694215235785 0.4877855779941019 1.7202942719784569
Ni 4.091721385355277 7.185643228840349 10.841209447125191 0.4116600984844329 0.008600597184817446 0.08052669390115809
Ni 6.710831045220426 6.214004012086895 11.8389368540675 0.6305093142492948 0.6822149701537025 -0.5521978828319006
Ni 7.60124998556428 4.193057262544006 8.726694565097523 -0.14330377712837902 -0.35141632320202704 -0.8144442346354747
Ni 2.705379381227477 8.69282493369942 12.45074696226742 1.7560140939775692 -0.30619190414658876 -0.5543851202912066
Ni -0.1347845693240462 5.282148577718673 10.33751498623588 0.0738089155613503 0.16306759001886756 0.16884485882227696
Ni 9.113298515305454 2.684003701961049 6.099102202951934 -2.1785900680435577 -1.4075357703579434 0.24845392600517213
Ni 3.577088895335999 2.749016447102854 11.5229813043808 -0.3151971929689926 -0.34280955536962254 0.3199370216468232
Ni 0.854124114407876 3.546472640496045 12.681612516248016 -1.2086108043208346 0.796859431674176 0.8970830897836293
Ni 3.295589187474103 8.52444922858497 7.960273739606366 -0.5147662203480038 1.1032565098530354 1.4023136027270557
Ni 5.885653125106657 8.091530089165975 3.9240204614017795 -1.0408206120153172 1.042436036131553 -0.11973550289013572
Ni 3.5150802503559433 8.544053493166354 3.8444373739253153 -0.6031275798022322 0.31041108443425897 -0.13097765146285828
Ni 3.809883830362728 3.1845105295176346 7.4060756981862506 0.4208368798876946 -0.223008489348874 -1.2896854003056628
Ni 6.049152874335471 5.950547167202556 9.428699813077813 -0.36307216227340056 0.836682991429017 0.2749424592140039
Ni 8.277482976077893 0.22991227721194463 2.4877492168652853 0.1085108378189099 -1.2207171006660653 -0.5185485702085716
Ni 4.393309300985709 0.7103391149031728 1.8044935715358634 -1.7519301537161829 -0.5079869926426412 0.5063574274590183
Ni 6.076984173098423 6.214387514235204 0.7301725676731889 -1.078420681756278 -1.3157281042263276 -1.1107785292616934
Ni 8.227719006833112 7.290202350275575 0.8774483498278516 1.1871318085114522 0.20649377952330245 -1.7084869949308834
Ni 0.5388296493768319 4.871280811827409 6.37602088634225 -0.9690426108410666 1.962991755115826 -0.38349314913191374
Ni 7.061781165940268 6.267420382744137 2.8317159460845005 0.816250177495962 -0.8137281824050566 0.6884082434486081
P 8.730298572191268 1.8736362695748083 3.7931594842950696 0.6218629514282065 0.861610093688 0.630883666869578
P 1.4976306751654853 3.669138541933546 1.5548647183991013 0.6977567745430435 0.3562615671094703 0.6574637313509516
P 4.435293655221947 1.3027111427859759 8.146863970564757 2.4274474001347355 -1.4511745900938169 -0.416277028431154
P 8.293608328313907 1.6626735639910644 12.56626694034144 0.013160705751674108 -0.08603939618927117 0.5185043472341975
P 6.543012331321377 8.24292212771248 1.6391128355796318 -1.6718906838640886 0.08763090904610714 0.7085559220410765
P 1.9945946733519837 3.185944097072025 6.317860046250222 1.0179061693109888 0.8971630510919453 -0.660667840110546
P 7.41029330871729 4.3116872604207375 6.365049072499217 -0.545640284219041 0.048409501651639215 0.5039819852483062
P 2.39859592458782 9.035027553036416 10.120106705259495 0.5809212189085222 -1.027779719670959 0.5953546207250328
