# total energy = -381174.236263431 ev
CRYSTAL
PRIMVEC
9.22193630445247 0.00000000000000 0.00000000000000
0.00000000000000 9.22193630445247 0.00000000000000
0.00000000000000 0.00000000000000 13.49723594916899
PRIMCOORD
 96 1
Ni 4.105541480208095 2.162636278026834 6.06677804733525 1.09278826333186 1.0448047934740459 -0.1810923087310623
Ni 0.1301860745252007 2.331969472078809 13.267323996300767 -0.03233959267297011 0.9780913513068961 -0.044545647820858764
Ni 3.369852291193261 2.1424033498191206 10.879973108060334 0.8952061844758905 1.0636653778239744 1.1829817908988205
Ni 5.316492377569656 4.913272435475735 2.4637721520346445 -0.552782551690777 -1.2825343910831783 -0.9566954021296233
Ni 8.423989803411395 6.516994821121125 8.427309700473735 0.2861175019942169 1.2517942816868441 0.1744220957997383
Ni 0.06284565139012097 7.840102907572116 3.181568018077087 -1.4101151010493458 2.827577900713014 0.7093699333019395
Ni 3.26077522882278 5.541987163592904 4.05517679738512 0.5001271302785902 -1.6679759221907147 -0.4249218485903456
Ni 6.2374687104082716 6.855661209225076 2.904645259977286 1.6709424610182062 2.0028577380728283 1.8929739311657916
Ni 2.127316262058036 1.6904454744627728 4.217291981907389 0.9112403551206177 1.1082580768326848 0.2862743392870553
Ni 6.984095115856263 8.444554721325343 4.78420313743456 -0.7683986052303219 -0.9612884208169444 -0.7837642890531148
Ni 8.30269367546424 0.6969072581649169 5.948663487406173 1.7574436273352443 0.2895373263090433 1.301074873089527
Ni 4.182756752716383 3.197226865887797 3.898878810270977 -0.7644977275140189 -0.07107634712153565 0.3152820393733151
Ni 0.7982139170222619 2.3447695196413916 10.940022668369062 0.8200934625014521 -1.7662931073060741 0.6187778847449794
Ni 4.081038795500759 7.047449818129277 7.33026816009562 -0.4077209113310269 1.0506080304193843 -0.9440908259917353
Ni 2.281230378642693 7.273857575844669 0.6663900266129729 -0.5750647601277451 0.7564314055661167 -0.22656381080030016
Ni 5.260091015254991 4.260396234293748 9.646029156961175 0.747608407957848 1.5385645867737114 -0.5074576025017326
Ni 7.0314497586760485 8.019285129575705 12.228779042161106 -1.3367304175096075 0.22835355571087126 1.658087459432409
Ni 2.2626573989661503 8.157780168693042 8.785742386809416 0.5140033740400503 -1.2201969664965373 -0.24268668450409173
Ni 1.9661537035539343 2.779491596082418 6.610932230693701 -1.5411791415784233 -1.0824102625316456 1.7652171006330761
Ni 8.034086337311976 8.366647803595733 0.877959688846957 -1.533334962943656 -0.530726343221686 1.605711516933854
Ni 2.247893078975016 0.17727328119274158 12.023054243144099 1.0110048142054653 0.5293189213511982 0.1521648270634347
Ni 8.831627052985485 7.448023064509608 6.00552779092231 0.2620177807325358 0.5681613481396924 0.8945924621512917
Ni 1.3745203812358602 0.15248471646059317 7.164008637407195 -0.7148222146657625 0.7205663162383913 -1.462573575959378
Ni 2.463852382880318 3.423662289412043 12.919257688542249 -0.6651045357256611 -1.116643729793219 0.5082790699617633
P 5.5776022815227995 0.4780135341339565 5.891840682603317 0.9326370756288389 -0.438376945653987 -2.7466675982201925
Ni 0.357064150991092 4.966021911021825 6.854935442839503 0.6525773497929278 -0.33826230231857224 -1.3141404480242336
P 1.4299718841132443 2.640102029145504 1.5628046543520338 -1.1565217969350792 0.9007073167997777 -0.34403725712913646
Ni 6.690855985888683 6.232267538343937 6.306731907258624 0.6141774098584907 -0.06651392456183383 0.18332016962031655
P 7.613344716277921 3.400819553235878 12.316079424189883 -0.29998243290176724 -0.6210353133205886 0.3379388575408825
P 7.09488745837562 3.893353948243064 3.512641986038189 0.4687568434974249 0.05115698248978932 -0.21402299802081207
P 9.340253726808742 1.9272924640519724 7.7318244648838546 -0.6295595487415158 -0.27505995862847465 -0.14063162961285458
Ni 5.430512397788511 2.003567099059264 9.36880945251302 0.2853155749182118 -1.4436505138026299 -1.121402584634443
Ni 6.265365067668222 5.237414273931943 12.246500837118607 -0.6721390739749392 0.25748749696235007 0.29257765579726386
Ni 6.40566760629728 8.61596285104128 9.59320129495667 -0.6210042029723369 -0.3534078997107591 -0.21177405408563527
Ni 1.0115726348953966 5.862265010745998 10.150124171294335 -1.0967819578722853 1.6605328356491078 -1.1061544002261208
Ni 7.887365331029059 4.219718273343783 8.210260363699632 -1.6928482599523618 0.32245541719330273 -1.9807665626007438
Ni 9.000038053409032 1.487765758806836 3.84794052301112 -0.26227180572487085 -0.26395202164077125 0.09336138377198114
Ni 4.640515225995544 0.41796766259974333 7.624925623863722 -2.22462644147733 -0.441040351418763 3.730438773520685
Ni 4.970872649507357 0.5049766314419384 3.673461488512516 -0.6321869590620338 -0.2840395364192657 0.25180664452748897
Ni 4.027883554758161 4.712188114796978 11.70134791806057 0.9348312550666803 0.6506953022788665 -0.1386927607189289
Ni 4.244552947757352 1.587353448740791 13.316697320973182 -0.5254141869801532 -1.876209567223259 -0.5494851118864278
Ni 5.478448022594206 8.764786458797014 1.1331776977080734 -0.5506896737174903 1.6069183927577617 0.2907457447948477
Ni 0.6697375894841671 0.6479562981743228 1.7107881437122692 0.48001904667480555 -0.4005300500095425 0.31351183484676975
Ni 3.268816757262674 5.727265085480403 9.132364539345815 0.20458550675699602 -0.823826190071007 -0.2874796724490662
Ni 3.71347085908187 4.800036279841044 6.536198581239513 0.0624757499367182 0.07361274039014419 -0.5848213252938766
Ni 8.428840541896927 2.876773801945302 1.8909091588295968 -0.6975593138202568 -0.3892395646973877 0.8193578698870082
Ni 1.7359833958345543 6.892290740146242 4.977146332761554 -0.45221205176486634 1.1285602787251465 1.1322855500955338
Ni 6.871882595149128 1.3236706245643324 -0.08722476215124732 0.6996097685913822 0.7733922017901713 0.35449161969324106
Ni 5.261926180575562 6.866478540486539 10.818021062296161 0.733442400870111 -0.8560377418065451 -0.8376682381604219
Ni 1.4867052361341435 6.333828722642728 2.6364418426342726 1.0329728338361241 -1.1951677914420513 0.02212691380602641
Ni 1.9513248300088097 5.807846364732453 12.492191663604434 1.643491306785789 -0.1228316253169562 -1.1741132847645972
Ni 0.9668278000440633 4.81618389027482 0.8510749779973914 -2.577762061363309 -0.24354697562185798 -0.6589164046370781
Ni 0.6695734390183067 8.491199275051239 10.60055397180838 -0.01276115632041028 0.04980998154359164 -0.1404652792383194
Ni 0.9018860025365251 3.4940625510062473 8.977754166571694 0.43430354691556167 0.8366873623043913 -1.0528297206610515
Ni 5.795535079792938 2.8332647065560623 11.38706432949226 0.27159539711864195 0.22507899872465753 2.2004655279604104
Ni 3.452803608070372 3.371217137763334 8.400652771450392 0.19301682808279014 -0.5966131757224822 0.7032393949241695
P 2.9676467620906113 0.030654638402579842 0.5763737843484735 0.37927705416803714 0.447498705449597 1.0684903100164438
Ni 7.682481572601179 0.790442591315498 10.84654082244893 1.5715400132584676 0.3984932220851718 0.9574451358114542
P 8.955108779832013 6.549686585248903 1.285874518703205 -0.02887451694250511 -0.5597612970014554 0.4674520086430724
Ni 6.041493342431007 6.631374496855068 0.6949835622560158 -0.6553029762542069 -0.48274518735671695 -1.4031672089766027
P 3.8547785887659147 5.630766744201682 0.382263091887891 0.44266683127859247 -0.06059113131949565 -0.1875046400153093
P 1.2413740651634053 9.142885846452552 4.929312149254986 -1.3944581112383791 -1.1239706024719351 -0.086286993423703
P 1.6646332748030692 6.242033568868991 7.664121619652803 1.6880981468618863 2.0065881516495376 1.2011679748895443
Ni 5.525424566026335 0.4354275545667733 11.731541459648936 -1.4108100702338413 0.4996512190834363 -1.587558500173911
Ni 7.924253076166185 2.8963704165494004 9.913585194377031 -0.5451026665480161 -1.196147124636185 1.2388983995607825
Ni 7.1065070980938145 0.47695208926763566 2.654960412886738 0.8992369029018384 0.15697998906389093 -0.2702486532827603
Ni 6.667865698731969 2.033953379115971 4.817919458683522 -0.2466058170528398 0.4442627150108026 -1.3830267294729859
Ni 3.024675216072607 7.289092214586303 10.788461989924153 -0.6099196630234012 0.9965870961182386 0.8569476552153241
Ni 2.3527464945272953 1.2995275953720837 9.106260926499528 -0.7751796327078972 -0.5653814714017101 -0.9841229022129566
Ni 8.418724077793069 6.004550265676176 4.223055692085064 -1.0238191923613142 -1.1957185217391988 0.03217092830558975
Ni 9.041370771835181 6.678581588694304 12.564050835518811 -0.11826843142630598 0.6182412955152191 0.29615560295650933
Ni 8.65236183355534 9.221936284281412 8.560581434879657 -0.4429712498928887 0.1707130223792673 0.2969377325381725
Ni 0.12763805352985375 4.469909404736338 11.801902066917116 0.12263673569733073 -0.8717831775662599 0.5408840004809781
Ni 7.473549384144499 5.154177077030018 10.40072660104517 0.6485702855160637 1.4612021495331482 -0.8468689308230835
Ni 7.07210005381716 4.516941279786173 0.7300785629794772 1.2268489245954162 -0.705753933815907 1.0646529385482244
Ni 4.3258812038484304 7.9440156856234 12.588345104466121 -0.6734950737822013 -0.652107866355677 2.0000518931929165
Ni 5.9606630708992805 6.421630778005372 8.541456061219685 -0.07063540292937512 -0.7606030204453029 0.5043457963456283
Ni 5.693900120003873 2.489673804476306 2.2588976155430487 1.0029356640440856 -0.8147046873857131 -0.1364697849256811
Ni 3.229826410652732 1.7111302775484158 2.141633318139383 0.9655181426275757 -0.8467293199214256 -0.5774072922179927
Ni 4.389069911268327 7.361152424711677 4.804719179086201 1.6815174083205753 -0.3078368959491795 -0.0875612321504363
Ni 4.856529861518552 3.542717486842116 0.3405688735593978 0.28285682896507414 2.715273143069311 -0.001278866712423604
Ni 6.697265231606258 1.9209754376972394 7.271919124837713 0.5426377499472912 0.4796670626520255 0.5265724689543125
Ni 2.8121741382739107 8.563812801353668 3.1559098247533313 -1.8571944595733372 1.802481384301173 0.6820828154512124
Ni 5.555635629293641 4.984438117781535 4.779641045554727 0.4729582831732822 -0.12133241506361038 0.31654059437076454
Ni 7.89858842748703 3.9923145465096876 5.682052698459456 -1.1059728803429338 -0.565544993562768 -0.683767402242487
Ni 0.6816495645825733 4.154343967024512 3.410562528920221 -0.24788545509621182 -0.7715728891932453 0.1952413465379347
Ni 0.07648120638005945 9.362201935165333 12.954660701937605 0.3619915276147121 -0.24273476413320774 -2.200824453961726
Ni 4.027809779267886 7.040579475597487 2.2996456632087745 0.7798837230517859 -1.6584281306012791 -1.2110556663169014
P 2.0891190019685424 3.9754384031094525 5.002304697138702 0.7238439585483986 0.7284128088660036 -1.1517452014820422
Ni 3.3241022652869407 -0.10440154067434985 5.771553434485663 -0.7119304949402642 -0.06834403579203713 -0.7026182164004029
P 4.270558808079026 0.15205220764886035 9.893190882284342 -1.129612888359377 -0.41841078694470524 0.26730062639803
Ni 6.663448391251799 8.448400268755888 7.311507052918876 0.8739537028550175 -0.7624680986784997 -0.8437123874719727
P 2.2474227602245174 4.263983567508333 10.671158038194465 0.021885230108865537 -1.7072155844176278 0.009690744925202666
P 8.07960581481119 7.375520201442588 10.650507356273074 0.4741546174742285 -1.0432911850429967 -2.533218984645611
P 5.590033451634011 3.806022211630919 7.425031855159266 -0.3875441792728358 0.5667045610885079 0.24053827070252123
Ni 2.7955930968347733 4.232343104116964 1.9459097090226796 2.5665821334870893 0.24322198818227148 0.7024603506662999
