# total energy = -381172.356501986 ev
CRYSTAL
PRIMVEC
9.22401098591537 0.00000000000000 0.00000000000000

0.00000000000000 9.22401098591537 0.00000000000000

0.00000000000000 0.00000000000000 13.50027245520324

PRIMCOORD
 96 1
Ni 4.096899913268569 8.527220158953945 3.8041205741465993 0.7502342756164693 -0.31150843126349576 -0.6291777399220647
Ni 6.408870645536122 6.111193356473263 11.390153070702173 1.1061160907890177 -0.5837255211265366 0.31533294721590854
Ni 5.319514924219696 1.9036145329584973 4.934714082281732 -1.1368158338657197 -1.521943947497895 1.3366427428918077
Ni 6.472977523293523 9.148807824898663 3.2307505042866356 1.0487236689124777 0.30444946753418534 1.3022475532413895
Ni 7.459135007437314 6.960724786898688 6.49139049442724 -1.062150740951661 -0.9888048810696585 -0.47865713333027243
Ni 2.942348880874545 8.749878565023861 1.8165287985292622 -0.75350703283047 -0.006997257253439562 -1.620673280450009
Ni 4.829756826175524 3.9012494119574543 3.7494710750603724 -1.33860706570703 -1.1285425381133338 1.891059487751898
Ni 3.6401361032442847 0.36012107760304374 9.627530315957376 0.4986831987432121 -1.2903366607364164 0.2537758524387178
Ni 2.9213734794327704 5.537284604359912 7.593673667423809 0.4467101481100306 2.186830453675479 -0.061816261975848386
Ni 7.305011004495094 1.3048839667379286 8.444879255879876 -1.4855664373101254 -1.0617293371435264 -2.0204610529768883
Ni 5.339438788386026 8.186808026056546 12.392939602215897 1.1068329143503841 -0.33150338632818394 -0.05876564807498266
Ni 8.954291876963687 7.982044201691574 4.755781178847957 -2.054459778519836 -0.6590845547838262 -1.9009600346950617
Ni 4.826482302203742 5.2672516768278355 9.31968355455962 0.5230976230318346 -0.15342878137752286 -0.1117689397448914
Ni 1.1727776785017403 8.109732188568655 10.32271359996871 0.6773766682247947 -0.2933613280408238 1.1626240531780752
Ni 5.881404789754933 0.4661086557589646 10.377551268883174 0.5984705406461951 -0.13768540250033706 -0.2131457376221813
Ni 0.41868801424086344 5.0877985391630505 0.15504824886326884 1.4156056918502717 -0.028763702396253688 0.19554782203475998
Ni 5.241405997478736 8.364812993964797 1.5072513929962292 0.3338281778066186 -0.8631591833426747 -0.8058315532657992
Ni 6.459445898880558 5.522627650581997 2.5643230751542503 0.9928875357794642 1.181894214261597 0.3345935952177334
Ni 3.8888800129541914 4.485073976098028 1.858474989407217 -1.7577300482274116 0.8028742704096882 -2.022494281356833
Ni 8.983624232541892 6.191303893642045 11.348464229736367 0.1792629688318074 0.35317675753655947 0.42787836011550834
Ni 5.009071603672486 3.894820276159338 12.54226619693918 1.1815383735840748 -0.11468431361947347 -0.2168293571213556
Ni 0.3048876986086089 0.8712207703331599 9.428954880698509 -0.059921616056296804 -0.38851965581222764 -1.949724348582958
Ni 6.523303728335881 3.881085723500234 8.167435757759266 0.9946178882070096 0.8579727540457289 -1.8995883511585152
Ni 0.46392440990961886 3.509459536742254 11.72846950825763 -0.3886214714974146 0.17704230703140478 -1.3401008766437372
P 3.4486733030125736 7.255985385030261 8.861254810515879 -0.19403909869971744 -1.079350392659399 0.038554463234430375
Ni 9.169737106284497 5.461767624762812 4.659902194553092 0.214808727146901 0.22405955632120766 -0.7367066734436797
P 5.2422361584856665 1.9073871535344362 7.298355880422869 0.35755508910991324 0.37661879060958364 0.464532263893116
Ni 0.21886549266936384 2.103480407382581 6.89526474669999 -0.142408004786987 -0.03273091457411783 0.3658867489040602
P 6.6123615563571345 7.092637370899926 4.083252066314634 1.4624187955490684 0.7896552006162529 0.9069191020374445
P 7.105375730350714 3.998701090159893 11.439712760414798 0.03172561323805504 0.023515566623436922 -1.2257986289540308
P 1.9707745584191652 6.294133170367155 11.86286519607071 -0.8599201075800867 1.0935750208992134 1.8532732701420598
Ni 0.658953212866655 8.794651915330974 2.031804306044212 -0.314058194268543 -0.08272627265563817 -0.24874111822828776
Ni 7.926109797846843 8.144728087016365 1.0432495013926302 -1.3318964864560738 3.3704969293461495 1.2463165464017245
Ni 2.500112888471542 2.6699084864223694 5.818955466808036 0.1783959928458218 -0.24493768532179752 -0.8837856013437748
Ni 8.919535802806868 0.8866968163045797 11.66122554429515 -0.8353185069813226 -1.10285773175272 0.5761307394984142
Ni 4.290106051614834 1.809262122515265 11.709542759700735 -0.31786008451313646 -0.934166624899488 -0.0370771073579555
Ni 8.570960420007989 8.59419570419085 7.636726739644337 -0.1740991652426808 1.0823069041845619 0.8792997976582791
Ni 3.7627693319902784 3.5465954057856064 8.357843331111058 0.5097633678167737 -2.0476982914262862 -1.0801952571581976
Ni 0.9658646595299364 7.707952709236726 13.347841524448759 -0.6582877699141436 -0.3968454020691036 -0.44767328335424833
Ni 1.2200507358408315 0.8082410667429457 4.044546270567064 1.1550341566459592 -0.5125846393156526 0.8229910957642212
Ni 8.435856328135662 1.726596534247375 0.5374646839091063 1.609988804152969 -1.5151204968181584 -0.18175076825066763
Ni 3.1269490167822975 3.7955791397864043 10.614089966988967 0.20532649868807865 -1.361996391165248 -0.3720255148119464
Ni 1.8936987209312732 5.619258391788694 9.89464661115177 -0.30551416135327386 0.5447049168889652 -1.2075548522524944
Ni 1.4600871789891576 4.0158485269585995 7.477045269961278 -2.412877215630045 -0.21072684376804354 0.23626612568972857
Ni 4.661695342328062 6.7631925873051975 6.797306670283323 0.8158043482077949 -0.842033457107653 0.5051371818986721
Ni 7.686728259492873 6.254866554739348 13.542663709555182 -0.2403760340930441 -1.1275364654463227 -0.742608126529779
Ni 1.8762284437409826 1.7625148338138963 2.066122239669595 -1.665025838423455 0.7907312072892511 1.3170378241766865
Ni 8.660055144073995 6.428204172986412 2.278873135322357 1.1149665992011122 0.09037067657477339 0.9491574418813654
Ni 2.3866298788241584 1.6854389963260044 8.209475111150223 -0.5611190965809304 -0.4373868138265758 -0.9070350587900184
Ni 4.750467226002484 6.037004634487251 4.29555744222701 -1.3520675620873102 1.5580628047076392 0.5790026617295706
Ni 4.274858761120879 1.4321660971227324 2.6285304946336026 -0.048618275228335624 0.760785054549122 0.13846007588283252
Ni 4.086827293051147 6.097458803814159 11.460854194057957 -0.7222460179336593 0.02858475361622819 0.523074483103383
Ni 0.1905191838871665 3.0219336494056046 4.095267263288273 0.510351893330392 0.5218742921476948 1.4593380997412158
Ni 0.6059040797215659 6.83282464776428 6.50698276293963 1.5152181987382873 -1.1668424621347968 1.0716067441582384
Ni 3.9812492609919787 -0.191823459069166 7.087859333104483 -0.8504965002733417 2.3749992096373482 0.12115732293832682
Ni 6.847638409732394 4.892655358467281 5.08614651875926 -0.6608365044779264 0.0356120927766548 -0.14505187016773727
P 1.0228967207060535 2.8976862187016903 0.15406773647397218 -0.5608362752331889 1.143536954639637 0.8945729217672658
Ni 3.246676682004035 6.640540910536827 0.333245076204232 -0.12345357517167124 0.25311662158816406 0.29950240794155514
P 6.80287428343647 6.020281502203198 8.38117177780692 0.0859604633222197 0.9704328063203739 0.6956466701785762
Ni 8.027961329386013 2.4984156704129283 10.026125666627168 0.030585071875708615 0.5247498139232769 2.2716465189806105
P 3.3323954179751913 0.7696782431687919 5.137177438256389 -0.45931446713760254 -0.39369682913779297 0.10098830418961963
P 2.468253153827791 3.404471841399125 3.5915449347064117 0.6568299544216946 -0.5685238736854338 0.47765645997989997
P 4.421345282799339 0.5519131750341701 0.09761125359599325 -0.34279104342686123 0.6239727986823577 0.31011669312229173
Ni 2.7773866647862895 4.431381006972009 12.779614763227286 -1.1651517046959352 0.38220759755127076 0.9123415586045964
Ni 4.7308016341494215 4.376710292660049 6.282608690788724 -0.18154867954219056 -0.722781064501523 -0.18019087996271546
Ni 0.9240429928030214 0.014211434037529348 6.156880806289117 1.2324027645341098 0.796493563694325 0.6153251503096886
Ni 7.775407903055413 8.13692457355122 10.136180111315928 -0.5018556829339228 0.7958664716332874 0.8678689301135181
Ni 1.446823050900648 4.930566044450436 2.5647141732286265 0.4354952532308177 1.2622838683642583 0.13549096595217958
Ni 5.655536427791552 8.431539490899624 5.612373589837885 1.1492689720274079 0.7851159179850027 -2.3197639433131276
Ni 1.9822953483931214 1.3791188087798811 10.999779081204348 0.060192353219180206 0.9474165479308588 -0.3345591424353722
Ni 6.328584852154766 1.5264539394876477 1.4353622169994147 -0.4561579237864918 0.3967006489611233 -0.6262441112150375
Ni 6.80561381475934 2.894079630327137 3.553757850473178 2.2402008988768194 -0.7096131596609971 -0.4078355825320202
Ni 8.74196436342446 4.546708818857015 9.509510937607677 0.09863034548040434 0.30829223831904323 -0.3707196515163293
Ni 1.6323271399048362 7.367374544137943 3.649907098295855 -0.9920267304410657 -0.9454126301269525 -1.38364276579043
Ni 5.650426325593335 2.798177586004302 9.821273291754789 -1.2746824991389274 -0.5924315335409668 1.865030410677988
Ni 5.223428399673098 7.453517584623752 9.801211067420638 1.6234557282911524 1.3619830214288093 0.7937738507703168
Ni 9.027715006021085 6.7049245086298725 8.937666519198226 0.02344743238966284 -0.30191821647189937 -1.249954400264628
Ni 8.553305662593935 1.2906420934634784 2.8713055467036805 -1.4366828242355452 -0.08283940119473475 -0.7331852905539824
Ni 6.030437138521313 8.57569233774749 7.832493463496421 1.7852861034688092 0.13078481872576186 1.5829860503118802
Ni 2.67024977483633 7.755954463459679 5.48733473897403 0.9328682178030385 -0.2887071170982641 2.314261268327343
Ni 6.653223925920486 1.8638405967153435 12.115468432061725 0.004532854873347033 0.11527001091961439 0.4710579808267758
Ni 7.254066790703133 2.5212082020587614 6.248992704414756 -1.7777142046588221 1.1602727793370793 0.21148943296568093
Ni 3.01216542155739 8.731993207330106 12.094921024739078 0.4235262537943996 -0.9272994654660095 -0.2606108730826802
Ni 1.5194713630182444 0.8487252518475841 13.246075776213637 -1.0590844433215114 -1.1543954946206958 0.6450866978428373
Ni 5.4812210643585475 5.79493890887754 0.3696513259626045 -0.44911850044120716 0.19322560165948657 -0.4015680043557536
Ni 3.0609881127760845 2.3805051353952495 0.3441330990106834 3.533242617249225 0.714901147532814 -0.635098476281874
Ni 1.9866490816739115 8.382108014942514 8.07796930604238 -2.286755606707907 0.3309724535253784 -0.2154494460546935
Ni 7.629391805947548 3.7343409295085066 -0.04955231050367457 -1.0077076315114322 0.9463706231648474 0.5058987426550448
P 7.766423716158189 8.260175811046816 12.481083330728408 0.12547343381517745 -0.004464977749889084 -2.0025147529111127
Ni 8.058621942575307 0.7947380367646637 5.245301297403477 0.034679810770372535 -0.5538909542636073 -0.8667021634989266
P 3.3204134274418293 6.663342666193849 2.631283861973255 0.6133520857437179 -0.7757671297802511 -0.7992811537417912
Ni 8.570905075940859 4.0442861534515595 2.1215677709213563 -0.7417529776183354 -0.6892132558484065 -0.06954139853424797
P 1.1194352218008692 2.946794854267216 9.363546494962463 -0.16478328715839363 0.485720467934957 1.2212935419948259
P 5.886597908053842 3.751469918284837 1.7331243669652043 0.30486032981935884 -2.269416601208827 -1.7874052066943409
P 8.509196441092367 4.2315151325479246 6.301563111379181 1.4780665293886543 -0.23047060205387407 0.3069076992666908
Ni 2.3587733650360496 5.143751391030158 5.2510663043960495 0.2581621544318715 0.01028235576261455 -0.5825207021851581
