# total energy = -340866.6089923995 ev
CRYSTAL
PRIMVEC
9.26109057170650 0.00000000000000 0.00000000000000
0.00000000000000 9.26109057170650 0.00000000000000
0.00000000000000 0.00000000000000 13.55454217707397
PRIMCOORD
 96 1
Ni 2.6635822775624622 1.678776421606699 8.692121640301089 -1.5742733530292305 -0.4761374522322122 0.012206312258204786
Ni 1.600501683558794 7.1844207154513615 8.230588705737201 0.9963909209470324 1.4929259629989902 -0.32296655250176637
Ni 1.098337566051512 7.125742445187338 5.549189015901861 0.02538373018042725 -0.529770664176636 -0.24289777207363328
Ni 1.5246533512572866 3.134091987278957 2.467048968758651 1.3955983954904092 -1.152756416355376 -1.4614872848737346
Ni 5.301252023527902 3.068579032126226 5.849367820548447 1.1231396219302077 1.2363689482707094 -0.6273807959226421
Ni 5.584011642798918 7.375069527265627 0.06660483773860948 1.6015051921619903 1.0095277154393065 0.8487730898243319
Ni 6.079841174311789 6.3922455447057756 11.547331626957947 -0.2353256161533302 0.7744396692180792 -0.9255786261201608
Ni 1.7015494434784215 6.347671915479017 0.19432731701452893 -1.120264614375258 0.3546361156909054 -1.579356681089409
Ni 3.8656070143646066 6.190890912117329 12.624497413708546 -0.5006632052877183 -1.509301061922904 -0.9984326339674097
Ni 3.343457463266769 8.032653267811236 0.6329214561843254 -0.31985063258060403 0.7928551956107893 0.48878162335878395
Ni 2.1339034597782844 1.3188719173452603 11.225329988338801 1.754915975817384 -0.639919294709285 -0.08891491796485332
Ni 8.540522217149743 6.034082125483737 2.251396138338667 4.181493828862973 -0.49934551491755935 0.6162312070637257
Ni 8.94534301099144 7.851265546632075 0.5405485598626005 0.3017099571158352 -0.13643764613616502 -0.0024222362882474415
Ni 3.328871245516479 3.355728408358282 7.290256459229338 0.10806860807516872 -0.06409374515611542 -0.45552646085008
Ni 5.9254958377871345 4.716247450289608 12.94411339538009 -0.7250433781731385 -1.2227498148253781 0.8176892239353337
Ni 6.4908205934258305 8.475824237972901 4.448235191745932 0.022059293792884592 -0.3274713823506554 0.3274916940656295
Ni 8.216041384567578 5.205288602366947 12.092508879919974 -0.16611357593404294 -0.12427812795549564 -0.007568556375877287
Ni 0.6718532289961784 2.8086665234520125 4.514001900782065 0.27441666861752095 -0.01616992489164312 1.9273997169438288
Ni 5.6471352365677925 1.6148748962244766 3.524316376170665 0.8838377947379489 0.27870886823497165 -1.01113002692942
Ni 8.237712336653724 1.3630565807653447 3.6645922638024686 -0.14445203180020927 -1.0391357681137265 -0.16654989214051316
Ni 4.666598743394812 0.8106251155088413 1.2101995015057512 1.3423392790559527 -0.4519194602251121 0.4778060981838868
Ni 2.930209076947127 4.023277082427264 5.044959675182951 -0.559726844219094 0.3129482490338159 -0.6308163039667523
Ni 1.5749688566778104 0.4929317362531462 1.8989375509478523 -1.126519079925402 -1.2261855799798045 1.824145499538168
Ni 2.5254901551024167 5.0996843858548475 8.745431256323943 -0.10451097263089744 -1.241614770050681 -0.39455403493176566
P 7.276485217454938 5.394844605486271 0.821524493077296 0.4394264699644239 1.030939091235547 -1.9340650447791465
P 8.35724523348102 1.831797422170534 8.677360387937796 -0.7697155242695324 0.26837534751944747 1.2653655926133756
P 7.081252165776295 1.4969534291676885 1.7942964878618044 -0.2531518457014737 1.0834523306429147 0.20164647873333016
P 5.442733705160396 2.7398844033050898 7.964933394760161 -1.8597192828777196 -1.5063216675796058 0.9520288498918895
P 0.10353436275515299 7.027093307742203 12.06927650795275 0.9431186918864533 0.6632566838836448 -0.0478680273258724
P 9.490673071948946 5.618740732680561 8.473066285181767 -1.0575628644706625 -0.4031070667080993 0.9672150707140246
P 1.922908031838694 3.6670214478760563 10.350316214080332 0.39487182328250053 -0.6848400664813754 -1.1012590198070324
P 1.8912628851385413 9.073905471187963 9.66423980208676 0.40063469390820683 -1.1024412130405918 -0.5553873363034757
Ni 5.5353446115114435 9.095030018926636 11.412910600825656 -2.0855097058471053 -1.1523350125472414 1.2689229709473306
Ni 7.085012168574147 2.745005786426303 0.0050241416695442995 2.0944561164071156 0.2942884678407835 2.82651886332088
Ni 6.2638034786875085 3.5105182772334222 9.958223863207524 1.3699518985668986 -0.3793117640607145 1.3654054168467968
Ni 5.037403551333769 5.881811273261345 5.6793397531423055 -1.3432702755106543 0.647527446073846 0.3098081607429374
Ni 8.75840789652185 7.7829186977450036 9.370769731496244 0.4245814345317914 0.9107500457477605 1.8485488680831972
Ni 5.021733785979173 4.796272534467548 8.569845608427675 -0.18224390583700223 1.466516876877842 -0.6543321277005053
Ni 0.5792275049001152 3.091472448176205 11.952178351853423 0.970084936062652 -0.8641428874121827 1.9026716180695298
Ni 4.133530366438185 9.076841236919291 8.825403552285263 0.3178024918023236 -2.0351852465609404 -0.6779700788344195
Ni 0.4392757554405401 4.764331032867071 6.453371521224658 0.26259885004698647 0.4470143096140108 -0.46045398005868443
Ni 6.604130037346336 0.21267631588986186 7.6132203251654715 0.44101772571094366 0.9147167437049925 1.2074432663752948
Ni 6.500702177133487 6.387892832107277 2.778409614238062 -2.7494878412778068 0.006814708928988265 1.249876752949157
Ni 4.397656671351371 3.4547202061569164 0.6535227523021158 -0.8455520117838727 -0.48603285696905324 -1.0221883416261106
Ni 0.32918824495198706 9.412602077895011 8.064776286788161 1.4657594298865273 -0.7409286819448271 -0.5629664342023143
Ni 5.583113317007313 2.1038234373954645 12.142443754515394 -1.4619050891374437 0.3539591442285388 -1.393186186504491
Ni 4.114063553923195 3.715216163541142 2.8348781882765492 -1.199553836324889 0.4604066717605168 0.8008289578448853
Ni 1.1164244760618716 0.4157248019554689 4.599692920210562 0.4222831254159179 -0.14990791270845796 0.7833853084471412
Ni 8.49472612395915 3.431947184285194 2.634407063734692 0.5526442263406998 0.3773988633087178 0.18925119039277086
Ni 7.736076101312643 3.82918314489674 5.118113956218706 -0.820898989121883 -0.5093165100873421 -0.1939578518398208
Ni 7.974891845520088 8.63050297376042 11.706638129735827 -1.537529460640978 -1.633058541488239 -0.25301686278550617
Ni 7.58006376847367 5.996232048058063 9.733395144186275 -1.152250423253235 -1.5966452929665278 -0.6774594577465881
Ni 6.427965571285375 3.902262411098351 1.944900343769877 -1.9921791753130593 -0.47467706563660184 1.3370610613761489
Ni 1.549556423975083 6.01407816971191 10.648313105773287 -0.8243684357277222 -0.12196542066191898 0.7969591904768341
Ni 6.947549800277289 1.1961809886113932 5.65266410767695 -1.1309030679257104 0.9081290631851456 -1.1568724954062786
Ni 3.9060965026212844 1.5665505252905003 4.9101867276065265 -2.834107731411732 -0.887335523478562 0.39785198895674706
P 3.9970218904767423 0.363948822541789 12.659860888298693 -1.8215548559928563 0.6893868053117933 0.8153415496387636
P 2.53110237602729 4.487452206149347 -0.09187650186368318 0.4350571372521346 -1.3790497471031087 0.7713214353040716
P 2.8681690307825605 5.59216140255781 6.588605671114711 0.04939886214810202 0.8420614821321111 -0.01793652987376266
P 0.6643665633267599 4.945218655151937 4.273503416406221 -0.3449122035349221 0.6267485616552819 -1.219268798255313
P 1.973603241975257 1.6682928670077604 6.3691706112793485 0.24783943234962477 0.09101576635794002 -0.10226202869572067
P 6.1452615185581685 7.777287954638859 10.002641906111611 0.8668530872544942 -0.22881943960369625 -2.3537382433760428
P 4.8584422359010055 8.646367222018354 6.671207190707337 0.0774583393884795 -0.11852142797737651 -0.6271769074419521
P 4.656328193880481 4.509632518220422 11.13287374220136 0.8083116393751756 1.5258533098546303 -1.604656336196462
Ni 6.06355091588464 7.266779594469348 7.9078415493219305 -1.7304226186617102 -1.2405174232214442 0.47197894997914847
Ni 3.933129626185155 6.714383321357258 9.889313013900773 0.7329873156105634 -0.507288938134352 0.36306084941949085
Ni 3.343318546907242 8.457190923615071 4.265437932572109 0.9814016466270518 -0.21510003313507473 -1.8384071516635045
Ni 2.7891904498463878 8.473416354407775 6.406866028491416 -0.16967661069495296 1.2528589755059327 1.5817112973645147
Ni 8.90211223990677 1.7516519438143379 6.652297895848579 -0.18945019377745437 -0.0410952273784131 -3.272814806711628
Ni 7.3648360221138365 3.516491680693065 7.633768833066641 0.9056888291747691 1.047790358464931 -0.3324315545694081
Ni 4.425597381797482 5.905464098743403 1.4694072411826329 -0.38636738535591525 -0.6132857512821567 -0.2839354067412336
Ni 2.723881238687629 7.962935777510168 11.532976936473535 -0.6478241513786585 1.6047285841952945 0.1386711634523741
Ni 9.007068180074413 8.074643052750801 3.3591540857842075 0.5657892483630901 0.5312156241532786 0.3661214906226856
Ni 8.074485614210003 6.230361680404146 4.848825519385513 -0.15489431017945582 0.20911527630654952 -0.25093786876929036
Ni 7.196237867101755 8.663481717512028 1.8999673842264762 -0.250747092914723 -0.7925548907615512 0.89986373785256
Ni 2.597782228600044 1.6971874697892873 13.923361670845726 0.6105267004797809 0.7538358769247985 -2.001338216104508
Ni 6.600777522536428 0.35235671539382846 13.429393618550513 0.9978705908163523 0.0739338711749888 -0.12223924314859594
Ni 0.8505015195654752 3.0563729146691583 7.952517976654739 1.1615413616368577 1.0638569250094905 1.6975490078621411
Ni 3.830285214682317 6.084925513070462 3.744008894325682 0.5951113943659752 0.49349651233595004 0.17786197471922272
Ni 6.870062254933368 0.8188026585396387 10.09990928883399 1.7180175601291379 1.3595597566992972 -1.7563251974600849
Ni 0.4931336280289915 0.30552986281554856 12.530157461735925 1.4893842683943188 0.05848591205103476 2.716802435229644
Ni 8.9573361233639 3.997077457020553 10.055816310211192 -0.304246864605076 0.26611894738510294 -1.8100334856168183
Ni 9.282205921752738 0.8893777258335177 10.4524086250236 -0.6652701147692478 0.7638513521792716 -1.6501208962871647
Ni 0.10640807917922597 4.302276698900428 0.4852515137894539 0.6997681485461175 -0.3756661968883272 0.5964931052048501
Ni 3.3616925507272897 3.086999341399449 11.973960437027188 -0.37686098852737676 0.6178317187816262 0.13046034550680755
Ni 4.558623687680126 1.751485244182906 9.882969166815725 1.0666380872990533 1.162295723304379 0.6970353229959866
Ni 2.113380882930892 5.369895227315298 2.4973568139710953 -1.5302051590654226 0.6431974512399246 -0.1626479859829457
Ni 8.27353423523031 7.171399622018404 7.183364951118959 1.0806390295638355 -0.07187750286659235 -0.9478528641373289
P 7.742753347660554 2.9570755008795655 11.655130721950567 -0.7544244024384169 -0.31720342476574404 -2.152849211634028
P 6.723357318182675 5.524083125299156 6.716262396647121 2.4446869039414736 -0.9211920670166909 0.7232286935619028
P 5.655423912686211 4.491508563847523 3.9627382590546483 1.337493263817561 0.6484275892906123 1.2466978410005431
P 1.4781441540877909 7.511809530492948 1.912247590408625 -0.6615389298615897 0.4915733271713082 1.3847521968045249
P 5.2372671483299635 8.238721795532951 2.694141098331117 -1.9045061001751074 -0.6007871045945137 -0.2808706517729808
P 8.528167922242513 8.828366175179431 5.688760134536334 0.42782488116975353 -0.08544829957249155 -0.6405872673105871
P 0.40806402778211026 1.8901237709904233 0.5006202936984101 -0.3785085514331287 0.895351194694187 0.32634909582075405
P 3.3522925437326587 1.7671457484468682 2.5958846311289108 -0.8623156043954567 -0.9053005925974151 0.9183823654820376
