# total energy = -381163.6593034223 ev
CRYSTAL
PRIMVEC
9.35416566597450 0.00000000000000 0.00000000000000

0.00000000000000 9.35416566597450 0.00000000000000

0.00000000000000 0.00000000000000 13.69076698570783

PRIMCOORD
 96 1
Ni 3.4861478142975604 8.79916415027116 7.418273241606367 -1.586610791548661 -0.32629484554405097 1.2673126890374173
Ni 8.281364319152997 8.44559540279389 6.569638091419685 -0.028611750199421693 0.05477606729961534 0.33126273107228754
Ni 8.771251320426401 1.7990305251552627 0.7427871550823426 -0.6483707679107479 -0.23921852344983321 -0.6699479798608914
Ni 4.160311875873156 6.978413252830532 2.6734092742078155 0.8367817217904105 -0.0917485307589065 0.9402922781812516
Ni 0.02900539637487489 0.37035853912886485 8.62510090327577 -1.4482710432937766 0.7021014246649844 -1.8802390000976261
Ni 2.0913481969544243 1.2917354218908743 8.076210632293321 0.20208330916043263 -0.6969214231259417 -0.30459807729690763
Ni 5.348730539843335 4.608741215661317 8.02395265132458 0.8475266190117403 0.5584073540767222 1.929857177345386
Ni 4.683583893807399 9.330274958892371 3.0964542150852115 -1.6378006841589148 0.24942734566203492 -1.0364121985349766
Ni 5.776814569674273 9.271830132863533 7.383936906314425 -0.6147610502761025 0.9295656357923668 -1.881916130689733
Ni 1.6566133554547113 8.927896175848762 10.03675579142898 0.5399668879833475 -0.7933886995167562 0.7952044125692562
Ni 3.707673161611088 1.9132729483771238 5.684338354148716 -1.016814736019023 0.1523280921141764 -0.873776810957521
Ni 7.14393521131009 4.366290600129718 6.383429395942244 0.39370248556474774 -0.4877668089410244 -0.41008889734257115
Ni 6.935842445651077 8.447251090086962 8.935087658283297 2.1291174152347265 -0.531841944883368 2.1966749505697263
Ni 8.214126577556442 6.16690197925407 7.802135454047527 -1.5179376545519794 0.5156434807466346 0.34943297422341113
Ni 0.6932465591906454 7.544854744536076 1.2137600337196544 -0.6197980984793777 2.613183892506028 -1.1871474922407361
Ni 6.380158244267743 5.7983665669806825 2.125793040566138 0.19494464123312236 0.6582546026833631 0.6987926720067255
Ni 3.3182311894506245 1.165491604335627 10.400862006339269 -0.016843296809583897 0.1781748779739512 0.23620853297891578
Ni 6.489106209817978 0.5565550741911583 0.4376290203046623 0.26713221914096574 -0.35166366332614274 0.3917965267912865
Ni 1.2530559475584093 7.242986469763893 5.080369821300008 -0.16333627029922193 0.24507266823776502 -1.2143150537944636
Ni 1.811929919376416 6.9610238591705444 8.475337907409974 2.8936871336372616 0.776474697370237 -0.5251655613044568
Ni 4.099304008497984 1.051903972698596 0.7044940077849273 -0.3567318218776695 0.8793360502128533 0.3671432470189806
Ni 4.081418844066624 4.779969215094393 1.7638906670470793 -0.11920431297701406 -1.3279112765560805 -0.30482741969889443
Ni 0.7029814392239697 2.834733083212062 9.583727943882215 -0.4158204005097097 -0.9519586587755862 0.035576611553029054
Ni 8.038576953663485 1.4283997798104187 3.0841460041235047 0.7429570252287656 1.1838204847500322 -1.3918386713376611
P 3.2730131534353553 8.397355971322904 0.6830570667141389 -1.3360038237562282 1.8626266863325018 0.9552648403306839
Ni 7.6882541016138735 4.511607561134516 3.691687828192285 1.4398365393731785 -0.3769900579060733 3.0034575548948856
P 1.163078229637253 6.724999555335778 10.481335892114892 1.0500778689475272 0.228247112039994 1.7578873997408824
Ni 8.05571378485504 3.6447663986399084 12.809505367804475 -1.2904973546839968 -0.6136464770556851 1.7657752871293912
P 1.1335845458234048 8.21733505632211 7.009275451056676 -0.5925374629912118 2.0959627828596292 -0.9455890078038167
P 4.7780703194983865 8.637898337092999 10.495040679985385 0.2599321018481007 -0.014685112816000516 -0.9965197332154128
P 2.3432839363005624 2.9450280485939473 0.9751670760392543 -0.1915926940417539 0.2312491320911114 0.9319521337466725
Ni 0.7416889760529276 5.593538405080322 6.767578781264182 1.165974200597231 -0.40970606008185567 -2.0476707806224606
Ni 5.756057676435159 3.7957426297707393 3.007765501169621 -1.2405601035339215 -2.4966144460487003 0.10487324106632259
Ni 6.084753697854382 2.961837483993086 0.4030822162890251 -0.8114208744281186 -0.28433264217965226 0.5695029497692514
Ni 2.0557368889051633 5.322595001443115 11.88298275860225 -0.7695270624078101 -3.002312385546849 -0.11272924677563166
Ni 6.304997524494743 6.510845290434338 6.729751471408546 -1.5753269911047258 1.227753952908189 -0.16389857056059515
Ni 0.5758723613601967 3.292918817614191 2.4124776339026615 0.9587936794195487 0.42154778991179015 0.4532098969017614
Ni 1.5338960582920487 0.9736844408078891 1.0182851019003178 0.47321847881320445 -0.5223792568085713 0.2343416549735061
Ni 4.5780314903327834 2.1323755668267803 7.879091238179512 -0.4396817805083395 0.21118295746885565 -0.3665166691785753
Ni 6.669417103949198 8.187158518426937 3.114827666955545 0.8849446546488823 -0.853578481632775 0.09151944546723594
Ni 3.241452199046544 4.65964658429911 4.128012877826586 -0.010120376263453539 0.847108043417083 -0.21167455239329352
Ni 4.467792649943884 8.825636438629292 12.59012493063954 0.7229854672028452 0.4052647364810505 -0.025656524225839687
Ni 3.5951799673372733 5.311557086155979 9.57565062197506 -1.2656157609509686 0.40419001535963295 -0.8834804113985301
Ni 4.959475650992823 7.107566215855526 8.768785562401243 -0.6505011839901893 0.66581853107355 0.11079500586739628
Ni 1.5881034473504854 1.3880739723503805 3.394790356965512 0.10670798028221623 -0.37343602200622783 0.6132034759809956
Ni 2.440520486647836 3.536772557970426 8.128673469486461 0.679928488112371 1.300659125708347 -0.7801575455384628
Ni 7.964604212908678 6.655198772392887 4.881524583651896 0.2556159909712501 -0.07638079005358459 -0.16982856289178494
Ni 9.047236619266801 4.5283047465476844 11.177799348820152 0.7950118369424759 0.9166044476460085 -1.436174774250875
Ni 7.8202133142881385 6.991817771988555 0.6582722698117691 -2.919426961605527 1.104033497228376 -0.0827913215656187
Ni 3.7296367421993897 7.0821135315366295 5.5101506967522065 -0.4502844957248503 -2.4903023877877435 0.0009353673300758085
Ni 3.5877434057667026 2.5000691042053864 2.9717585119198127 0.32799743005745446 0.23758535872178435 -0.4708142402470859
Ni 3.004137020373112 7.202913224772289 11.728619384144748 -1.58616059138512 4.16086689664124 -1.0237004073952627
Ni 3.410481969587691 6.448144319104105 0.2656199480525381 1.4484088544232216 -1.7151968028508913 -3.4071546897785003
Ni 1.3772699112006836 3.3288294589593748 4.877527548734784 -0.1538733251141092 0.22161906520051508 -0.379674546716772
Ni 0.09576607553105462 8.952076693659988 3.388451039007806 -0.46182540648491427 -1.5127820784929689 -0.09004491780423847
Ni 5.4906145221105245 7.551327827060397 0.7929086446514392 0.18420025823242467 0.8399050979107405 -0.4325515972214615
P 3.4258976343276912 5.745468761091906 7.2282181132763235 -0.09995909159415689 0.37850700877123195 1.1147033182373964
Ni 7.087361218380768 6.638389336993748 12.14987113149626 -0.6932802268289285 0.15782099690794757 -0.8593400667069008
P 6.305455878604124 8.305844170260146 5.465326471104385 0.13709199189071228 -0.5428961458150006 -1.1468449359669473
Ni 8.54327159891955 9.161273250847715 13.049970094000939 0.8841704954870191 -0.9275709739598412 -0.08177727847880754
P 8.169778478932448 8.875924432344245 1.582337539737781 0.5848254390589348 0.9946052898015193 0.22898476153696692
P 5.71762141040563 1.6232938179523555 2.2426293738804763 0.16623030401756533 1.1449718873139507 0.560350593846022
P 5.891917576121911 2.525231809393858 6.097333179615519 -0.5465789939832264 -0.6202375000096414 0.5175633234771667
Ni 7.271292174559549 1.9912586261303915 7.980567096330286 0.07593084700035957 0.1339940696916789 -0.689283961185342
Ni 6.329917021380278 5.435032070723945 9.854503907957014 1.6139822415830782 -0.5408762871714944 1.1018971676116636
Ni 8.731215492096789 6.017880768712232 2.345460650611848 1.1395936537211728 -0.437723371230388 1.0812144424513315
Ni 3.6970281212748497 3.3980409294759184 13.17169491420431 1.108356292973446 1.1059070601020051 -0.5475372441314377
Ni 1.6995209125920792 9.153715085125675 12.66725844391598 0.28735651660764056 -0.2977975094353065 -0.36928471884201564
Ni 5.860843038338974 5.310331690475797 -0.013020062956072097 -0.5685580693574789 -0.6894762797018061 -0.7049347803487215
Ni 9.14140500333087 1.8125285859682607 11.68297479818279 -0.7048332217738507 -1.4780727000362415 0.16017381341084028
Ni 0.512888894231937 5.278817506914473 8.972626859841608 0.8687783293016651 -2.837718331581126 1.5331387877724498
Ni 6.828905625682821 0.14235169054206853 11.464688798381072 0.6498501806697519 -1.530486180640951 -0.859350608229862
Ni 7.88418645212604 2.164207792015022 5.570964932901578 1.207644069532191 1.161857864436012 -0.3017256408451191
Ni 8.458859609469448 6.780086235950987 10.187764762139055 -1.0363587195892217 0.9997665222874846 0.3280773913657704
Ni 0.3088436759837242 0.8448233277464205 5.39214976983342 1.2912401463872925 -0.35810581940706065 0.6879228191717572
Ni 9.29389660927231 6.531630246169946 12.944250250963918 2.0571967178350246 -0.6699855179670462 -3.0243894199515458
Ni 2.2990855043245295 8.395849950677796 2.7167546062904697 0.5042172411875638 1.031328870474798 0.42809330433979176
Ni 5.549424160593768 1.21157957774217 9.614108402585234 0.22342038007531198 -1.9709760588728829 0.40596587631313313
Ni 4.637196587104934 3.3448905611187074 10.326493584383915 1.766956451921686 -0.3354834540218545 -0.02903623933134999
Ni 5.464291900400354 1.6826834146964476 12.281699385853557 -1.225696556158528 1.5796431019815762 -1.153106600605943
Ni 4.224574992841484 9.124979088717131 5.338098595338793 1.0984205219169727 1.103777415353512 -0.9459931852207707
Ni 4.335805374773126 4.012310269370554 6.310608152960187 -1.7217001511870478 0.7014684190666758 -3.2348092740021324
Ni 2.1433667112864287 6.132160608596083 1.9024006018192945 -1.8360911019358186 -2.401893462925031 3.4175861695244696
Ni 1.9151999064696241 2.2606866549569915 12.076734653136935 0.5693916210023677 0.45107562416757796 0.5098942369676831
Ni 7.281525631613894 2.426797925862896 10.33659701853784 0.43654914841662884 1.8551535178839083 0.753632759775057
Ni 6.408276865753448 0.9984168543834725 4.478824952731721 -2.6805002583645 -1.1241690916359863 0.39557064912173806
Ni 5.565279471112154 5.885734472728016 4.3418079427729195 0.11561428163291057 -0.12404698578129604 0.7051047302676825
Ni 1.0276112049013983 4.637654941214315 0.20344374540671892 -0.15838021184552722 -0.8007112013200984 0.5751714609089384
P 8.229336450655495 3.868181287383946 8.79500341745784 -1.1144978870948097 -0.05926058543353021 -0.2182159530562371
Ni 4.643389044664327 5.941307569949098 11.505775099496061 2.7954707357658246 -1.4958127976284818 1.0002704585070967
P 0.8642201253221882 5.356204518075896 3.691714955272228 0.9380435913563909 -0.9427235133305636 1.354426806348106
Ni 0.12300166379378867 3.1424102947582386 6.846150029777597 0.5581877818667484 0.16032807960051743 1.7885118094949586
P 8.889544097308713 9.026825830151097 10.53757781216905 -1.3091003144971647 0.12794503528412157 1.5265601061136678
P 6.100824154179213 4.049549202216393 11.823346211889023 0.2654867131177428 0.1975496829561372 0.3140414820979946
P 2.5906361345528897 3.5729264076185463 10.443125061473854 -1.4415620067047175 -0.43955348246059134 0.26624878809474795
Ni 7.836882437204813 3.736923637121999 1.634979041491924 -0.07257221494077179 0.8021422773396701 -1.0148465565490585
