# total energy = -381182.7913021061 ev
CRYSTAL
PRIMVEC
9.10253146332708 0.00000000000000 0.00000000000000

0.00000000000000 9.10253146332708 0.00000000000000

0.00000000000000 0.00000000000000 13.32247489456819

PRIMCOORD
 96 1
Ni 2.485500890587226 3.463813688026737 5.523098545453119 -0.6975109770808245 0.22976817667021074 0.37736518185730494
Ni 9.107082946474419 0.9436685618630181 0.9527847473411731 -2.334047706925651 -0.09072574592134697 0.16207925796366926
Ni 6.773202926091517 2.585200920085211 10.047197879969318 -0.6040554909331404 -0.4288463804557323 1.7861255686509692
Ni 1.1595442032009364 8.949827609159785 10.270535776779022 0.865165415139426 0.9374010726763856 0.36858717855435874
Ni 0.3854439732569469 9.152777655511203 8.028882607384302 0.15732888776287743 -1.1898636056203187 -0.18473916145503022
Ni 0.6417840089279562 4.254368564489809 9.064185445423096 0.4065101788523773 1.8326923606669145 0.027785140533068277
Ni 5.76984906399858 8.697924147429918 10.893068841455605 0.6496190384955521 0.682791668592779 0.250273238602098
Ni 0.1688519626757626 2.0761145282507067 9.737304009408465 -1.2698642518146777 -1.4226759684334918 0.5161674715709046
Ni 6.846387280803814 3.354874588872908 6.045619363795072 -0.4169270033103271 1.2299825851283912 -1.6887653481322398
Ni 3.0837556827652217 1.534431970467852 4.0625554656496465 1.0887796563930991 1.1369734424895064 0.8244139442536769
Ni 3.6450086836614393 1.4792342183564868 6.648847779283365 0.05638300677541902 1.2207988617465944 -0.025947573103697247
Ni 1.036259514118428 1.0272935204130036 12.236414095111408 0.27479744899570735 1.6411842559191672 -0.231542237851498
Ni 5.823335540153987 2.2201438870333803 7.799790090046103 -0.9690991751106147 0.49709271432764074 0.23652066490269588
Ni 0.7303297961044924 5.097699919637197 4.49385708326046 0.3027862208991495 0.26225200823052897 -0.535931027351077
Ni 2.9209204935303577 7.193102712519168 11.844106812967262 -3.2768342122836667 -0.24103269384043652 -0.6411819634717925
Ni 3.540930336425069 0.4932725635457385 11.801088248244586 -1.3695328087516092 0.0020710235964157882 1.1480489835773775
Ni 5.749932724681353 3.398876227017093 0.4899728958115086 0.4234537486852513 0.20012310011026824 0.29282242481821824
Ni 6.5540867834752925 4.469816386838738 11.660296659980714 -1.5061074946862707 -1.6095558303806088 1.8214854362075017
Ni 5.33688714460922 7.019044101722082 6.180935779253042 0.2375984713479069 0.028830293968130995 1.6138423735711045
Ni 4.71045091434798 0.6175284927585704 0.7555483601256892 -0.0464048125167846 -0.061470448600655425 0.5683796347980856
Ni 4.956110039344933 0.11013608206983232 7.884267045561396 0.14689560824469539 -1.809142855481749 0.35002432795050686
Ni 0.5858644260543167 5.095260441146787 2.015783858524632 0.650980437619453 0.5207183241663805 1.4291440926563386
Ni 7.055108332240755 6.72745360186465 11.860932842778915 0.6247359021006273 0.48296913044206496 0.27013603896429605
Ni 7.708005622097597 2.4718470930662746 12.863728719679829 0.6784256783145993 -1.1950793454933029 -0.8504553626227612
P 6.655925907918227 5.465569634978344 7.711195149198492 -1.2783756317197983 -0.94509998398254 -1.0887151217037507
Ni 8.247485367213738 6.781604562832742 1.0797650642860188 -1.293697092568217 0.4149688511426918 0.4172489054261201
P 2.513973609684249 1.0643317218215038 8.546701057860037 -0.5623123455580832 -0.49627484641203556 0.5716760461611703
Ni 8.597951041981513 8.725923534879547 5.398813488138909 -0.0601905534469673 -0.8657559975355735 -1.8295288753372683
P 8.901775344417716 7.110661083087665 3.440716013887128 -0.3430661514651189 -1.5875754694547757 0.8547907567733215
P 4.681377428160036 2.8768278300693666 5.23114940584747 0.5768951284682645 -0.04725173389811217 -1.1107944701012935
P 1.802437810740762 5.4334650057407465 7.511051413364212 -0.0267124762941798 -0.5548810860910186 0.7247307320287261
Ni 7.053160390461099 0.4599217977210632 8.88830268727721 1.043011449019049 -0.007736963632941513 0.7072343750161756
Ni 7.939273644507468 1.7263042357639382 3.89855606261283 -0.3946705059049719 -0.12610669652380216 0.7816737250726731
Ni 2.7679615511689826 3.473990318445686 8.552523037122972 1.185163886151804 0.3033004415314067 -0.46342334709965355
Ni 6.084869480401966 3.0269831926731063 3.3417032255310306 -0.4205082929036822 0.3900193802862057 0.5487214942475259
Ni 8.954524515506991 4.075267151141652 11.295021166168548 0.6428693784765445 0.385131198955969 0.3711461975307866
Ni 1.680709654575642 0.47507205145031056 5.881046501262374 -0.9263180753893465 0.698927654922693 -1.0964613413080728
Ni 2.5692623871124205 5.160926104690882 10.595151171826963 0.497923180648736 -1.1365443253718879 0.10751684933675676
Ni 1.6222076834642067 2.9633473936937933 2.860308555575352 0.04574686721781153 1.1673813653574026 -0.2798075006157891
Ni 2.1883942565313284 2.5772088972696143 10.77275339820732 -0.5056809702172839 0.8718014323987051 1.061496909417746
Ni 0.8947661206619795 7.030276625815985 6.310403818106205 -0.5108126350168944 -0.003322122394697504 0.35824208787460887
Ni 8.05630489432538 1.4804448550700111 6.745929010416832 0.27765702993168956 0.9790102635767396 -0.1269649307590394
Ni 0.8547996348118193 8.050970810760528 1.7639359222380155 1.6832485320790689 -0.4863547590848462 -0.12585935639968648
Ni 3.007176083736047 6.066373136026916 5.82863594435162 1.0919354284132614 -0.4913550405129151 0.6161111365460937
Ni 8.37181684743952 3.092312062545018 1.9332639473206756 -0.7890746455224346 -0.9434279955967558 0.8022906299920762
Ni 7.665505901680716 8.820080122584027 2.6981205563429813 1.1278786792770896 -1.4403294198491967 0.13741286556524077
Ni 0.9377792238656478 2.360149926813213 7.509559508421757 0.8992453875422706 -0.15503417819142976 -0.6575948576121772
Ni 5.396645265092582 7.598747934334946 1.9855816584082882 0.4517852486400929 -0.21480615604373973 -0.9893206443638122
Ni 4.051145442187972 5.237505703720056 13.020600840410708 0.3175908900121498 -0.7565859288661099 0.25554194320020507
Ni 5.202187880799196 4.965203468493888 2.138017205198027 -0.17762414767680376 0.9033049023236249 -0.216482258194582
Ni 6.0883739550990095 7.310252295248928 9.010403136988069 -0.5506040559822195 -1.1690045027831222 -0.8247641285042441
Ni 4.942620087394234 6.182375799764919 11.064994729079915 -0.15448704743870814 0.08147517385735645 -2.2571753219476287
Ni 1.9099387098890508 7.342102053599467 4.174543912916488 -0.6356818595891698 0.5922433287895607 -0.7213394469589899
Ni 3.731382606778977 6.18225746685307 8.407600719982428 0.5363575733655344 -0.0065501424136919445 -0.40550462040599844
Ni 4.1503084223168 2.5441211946105096 2.0211525317098697 -0.9304380110949911 0.7180726032822601 1.0385945508982757
Ni 2.7561555675792 8.20271911640838 7.355231545295615 0.5921890785128575 0.03598824516915092 0.5458174332268535
P 7.158749757956454 8.622518774987544 6.911767124853137 -1.4447152076217182 -1.1910895076076196 0.7153847720374519
Ni 3.2315352846003162 6.7364104930383935 1.5745568403692551 -0.6824844217650052 -0.49526800241407604 -0.40896146860634736
P 2.6954689888644126 4.545986371942283 1.421028079524672 0.8945263848000465 -1.2620496408662651 0.6655328815123313
Ni 3.240264612482044 2.8899627832845214 13.133269246794093 0.9379435754434169 -0.08997626934983213 -0.6273784819297971
P 2.3547976381850004 8.458309103468904 0.19324219631402167 0.5490092006912739 0.150025926343561 -0.17761206349194572
P 0.669846203846183 6.303157292635253 11.125252578552546 -0.54941723476297 -0.23943346767411666 0.2888385004698058
P 0.5641594392618446 2.487949471609316 4.72482927339071 1.0954771230179325 0.3353338158178677 1.3803011030117067
Ni 6.104066719716423 0.9347207732209548 5.484689502773516 -0.9079596274868169 0.15462922944352725 0.05880704283587936
Ni 4.529883993399242 4.186991624989755 6.9508015114592006 0.4559524926439051 0.8303259388627376 0.010228876816859803
Ni 1.709619295193336 6.981468850944425 9.295730184796058 -1.2733951477860714 -0.8390093255693485 -0.8360291598951022
Ni 3.2165889275807147 8.797087127558745 2.739620818781328 0.932853305404703 -0.2895290987789272 -0.5304661475817638
Ni 4.980905335642981 4.442991225975909 9.41579257766362 0.8435817754313795 -0.6306633233286557 -0.6729787962674152
Ni 0.9701114163952602 3.28471227467858 13.33379892997163 -0.3190993562368763 -2.218686164733495 0.5333031028099267
Ni 5.437925246264259 1.7587729662687601 12.179060863498067 0.7062861521702932 0.6435754034046336 -1.1377823115440469
Ni 4.142489347603135 1.8629878514803397 9.888446996699555 1.8733996085782898 -1.0931831847774336 -1.2175567006602128
Ni 8.286963047112648 7.6221687483492175 10.037312530564149 0.3675181138598961 0.7209206142540165 0.9803626638395762
Ni 7.4253720134139085 5.129212884315553 9.75422379529643 -0.07478259232852927 1.1004509220834404 0.13955459449859192
Ni 3.5788423808749106 8.309355275047007 9.8677305448476 0.9061788814373103 0.28821012285718756 -1.4658607313510819
Ni 6.455124059043439 7.251449940592033 4.005708334797751 0.0932539116598394 0.6086091717420937 0.1635699835765828
Ni 3.1635120653509374 5.007939854734465 3.6880745815488556 -0.5837453186208785 -0.4385661788466576 -1.3598975996546903
Ni 0.036157986594982844 8.115425837591099 12.613146945549987 1.2567058600558485 -1.4518361349372157 -0.8176195470396629
Ni 2.1015743093614403 1.2354411123540636 1.2420559221263805 2.4719873915286397 0.20156677453533028 -0.032163986327054285
Ni 1.4769585854363283 5.427648487996822 13.205104606311322 -0.2888341295944316 2.3361416133402026 -1.7046498805729804
Ni 1.0325638862560906 0.576510664499297 3.39156871458388 -0.7480624647761309 0.41605874177276087 1.077444433885938
Ni 3.96901329883361 8.722510085499309 5.136200897886775 -0.09365294687047096 -0.903564840853231 -0.12883823652235232
Ni 7.666070258644916 6.300599481232994 5.678225710860821 0.4580759667448111 -0.7341633381965356 1.0933675328740977
Ni 5.446927650096405 5.099065299389292 4.606951488126498 -0.242287392183144 -0.6591184933455552 0.587773208833349
Ni 7.7614465855946 3.395053163711227 8.243001460107859 0.1755981183857105 0.108660990243529 -0.8848929754753405
Ni -0.040058421420134556 4.3376294217725695 6.548676238644324 0.6771686659790467 0.5176414850132698 -0.20054861768346105
Ni 4.775588631054598 7.562665498752912 12.853830626730305 2.1430270833372838 0.9684391729291127 1.9909635577384035
Ni 8.518058121420587 6.4106308841885 8.14978425367282 0.9322673509942462 0.43790000601756845 -1.4441693624205771
Ni 7.008130166237002 8.850191297383564 -0.14043203826248682 -0.659741728751851 0.5420983325040534 -0.170522503635016
P 6.3441004801347445 5.974064362253607 0.43472325926956384 -1.364419913005076 -0.4262539371382078 0.35223907621363854
Ni 5.56942952145438 0.6430547223505727 3.182113088840313 -0.8380693302535824 0.30668735572576855 -0.6342273865308303
P 4.264790963264135 6.88636559994516 3.890402924986486 0.10996788198041062 0.4618452039792562 -0.3452924696924763
Ni 7.5695561152351525 5.005463966117332 3.476246836049315 0.4267113363906006 0.36245021241868547 -0.42706949106096775
P 4.335581352144426 3.597548083478613 11.229754193512065 -0.3840891308446998 0.06499594525541064 1.4815418895317645
P 6.995714313024616 1.2345672693127228 1.4389209260492946 -1.675055197634999 2.0612307786950823 0.13917150012756033
P 7.813167170603963 0.8881849902568809 11.199365391496269 0.07017928922856301 -0.4840243111794567 -0.2939907340947066
Ni 8.203602061981401 4.632551448225114 0.34004964776562463 -1.7301791351923361 0.8637338248992222 -1.7310263136839799
