# total energy = -340890.4591949729 ev
CRYSTAL
PRIMVEC
9.11036226864714 0.00000000000000 0.00000000000000

0.00000000000000 9.11036226864714 0.00000000000000

0.00000000000000 0.00000000000000 13.33393606969736

PRIMCOORD
 96 1
Ni 6.530817980846626 2.301441540121744 11.655593639967304 -1.128969084127791 -0.9113113175678693 -0.3255741653279425
Ni 4.590757187829242 0.24003436348242657 6.0983153672431705 -0.5364457622039664 -0.19455820442798105 -0.08328831580669527
Ni 2.8465691873785692 1.5052778556939546 4.793016344469872 -0.5965954351106694 -0.20220415100901304 0.25924176064929544
Ni 3.4083323564598973 4.295699879324214 4.716120330253159 0.08282320324481865 -0.12232280400133773 0.027086057583514647
Ni 4.838385949445789 4.835743944336751 2.415775677769789 1.0936647523995422 -1.6845271416811762 0.0047912507410562645
Ni 7.446618944901673 6.410060126638637 2.637838940293281 -0.41576769289490334 -0.31829614360929054 -0.444951256437395
Ni 5.176963459350406 4.540331331696369 11.706823030067822 0.7057014833114169 -0.4132400413770432 -0.4491174719999427
Ni 5.7347727311306205 7.904660637547094 12.310610479035276 -0.24555732118366747 -0.5909531492232274 0.8251559646260239
Ni 1.6138004931383574 6.660667976774688 0.5686496920534759 0.4766781552270307 -0.2601182497169778 -1.4283539926548756
Ni 2.8306169427374384 1.8783836392649822 0.27806283840019247 -0.2856027671413275 -3.0097009647014357 -0.3037987213240639
Ni 0.44096887342355956 8.899858410309998 4.733667799358404 0.5596707941701781 0.35427744679990597 -0.12164017611201632
Ni 8.662879662391612 2.603176744298929 1.4231579596512995 0.0075826974432643595 -0.9657312870796465 0.7987533062627792
Ni 7.096489495416843 0.5498914557792965 4.921675616026378 -0.46664519647106084 0.31373757770433064 -0.7795330245805865
Ni 0.8150130243264185 8.106692035126601 2.348266069980122 -1.1180832904532227 -1.9220181409169415 1.726169756922627
Ni 7.94053724485536 4.240582186532187 3.852201058249689 0.5131543957761936 -0.28156742072968927 -0.4797189989358835
Ni 7.634966578088846 4.007183811054671 12.851261294186648 0.34848783670132244 0.10594590530521109 -0.2938760628937132
Ni 8.140582583421864 8.770363718517288 6.988196439106053 -0.76266864472508 0.6611982586927193 0.06260147688130509
Ni 6.644305765823534 0.7488745260847184 0.6786573185764081 -0.23977028218824514 1.210090731300471 -2.032295840828287
Ni 1.858787249645866 6.49743761284828 9.326341807446065 1.3049204720878622 0.16690033350139644 -0.09813875055596646
Ni 0.06841791092543004 5.05665201290222 1.3423007598435166 -0.5522480193435457 -0.8389494188656907 1.0743830213517949
Ni 6.273486683226192 1.8006995786967799 6.827348434959004 1.774420878619531 0.6910307686731195 1.8901657722930352
Ni 3.3257742519836397 3.9846903261780566 0.20726256769540452 0.6855808013021418 3.2318509627047565 0.25445308101140046
Ni 6.12627233647803 5.49635454594593 4.762001937598484 -1.5002582349943454 0.25570289425810155 0.2209816887268323
Ni 5.703187104533932 2.6534021724580117 9.240764528855546 -0.9608109669598938 1.4703506488016356 0.2291670527511021
P 0.17207470378797818 5.623125239367595 12.542833617757392 0.2484364425036754 0.40457105284813544 -0.4607535135769742
P 4.1023597675172025 6.090760143667562 12.697547614870249 0.23367599636504918 0.4591157208632351 0.4468029649341531
P 2.1771761963724443 8.674304056897595 0.8136674237932975 1.9829666555758558 0.9164306410723055 0.44779129698935144
P 6.306584629988744 7.8412889563799295 5.990763894435401 0.31896334487964423 -0.49100434204171567 -0.0979384616197023
P 4.738663922123221 1.1331651016294277 12.711441828635062 1.3782190236716974 0.5851452842921987 0.5200858327887042
P 4.108645917604227 6.136931460538636 8.180703708593239 -0.6851586261630588 -0.4885324834624554 0.6275492031797063
P 4.833138380677491 1.0460244848433535 3.821199405885723 -0.6465416851218091 -1.9592795963715615 0.6499275708749065
P 0.39995948791380165 6.0092952826846995 3.6046561119676346 -0.723926748070192 -0.11373943320770089 -0.20929139687309764
Ni 1.818592330538688 1.2884785605911624 2.4968597256024516 -1.1879697310317154 -1.3281015381900159 -0.182897223150285
Ni 2.036612414209105 6.2798821576625565 5.05810875985717 0.1385752613044581 1.5641288083960612 -1.3667796714865041
Ni 5.9725987427563885 5.604175685482072 9.399292123687864 0.514698600334862 -0.09020406908992208 -1.0006440397964314
Ni 8.583719723107325 2.26637575507108 10.141645452334478 0.3001726945357024 0.5496987705591307 0.4735061852569522
Ni 2.4316468401851594 5.180844473751961 7.087053893032595 0.7482267582681372 -0.5080155318877315 1.010620434282853
Ni 0.42504395986976373 0.13044672466820728 9.181734846429652 0.3096526090016796 -0.1543194115125923 0.2528471699768613
Ni 1.3634021813385409 1.115172135800625 11.478052718712348 -0.580679278101045 0.279499482457067 0.5341646794792736
Ni 3.8817614512748615 6.7531928177657345 1.4854537070137144 0.6109547891561349 1.1346262824135684 -1.170965740274551
Ni 5.521827119342047 7.909142935870016 8.022642564318103 -0.20477088329492477 -0.011460178120799618 0.5914804824816072
Ni 5.0119747954721205 2.6486647839866313 5.2199698363081 0.27267140379164007 1.2818515060835407 -0.8753099597725957
Ni 0.7575412138786121 7.243330317304762 6.9146457499791305 0.5757296474052536 0.7913120194933856 -0.4358729482852106
Ni 5.3313567717052 4.593936704322534 7.129509093062368 -0.148954290545937 -0.9219433433604187 -0.2156294232759835
Ni 8.350421561616704 7.241899990400902 9.016554864940021 -0.2658523239872776 -0.20196812373880701 0.38647665724026986
Ni 5.2142248417503065 0.40401542127429935 10.645868483249663 -0.5551484808197924 0.030698714635437455 -0.8065815440579464
Ni 8.00393625710986 7.070698059335152 4.932475950704881 0.8095835641090637 0.1634116036218476 -0.3969934976111937
Ni 7.495778460654695 5.9197586405756 6.991743103205877 -0.47034115726540937 0.689673997534909 0.40260441604006797
Ni 2.265227849403015 5.411263760709974 2.6405592945193472 -0.5085318094025177 -0.891068251048117 -0.05164909163485944
Ni 2.434726142691557 5.448935109419897 11.49693303384329 -1.6399820080809497 -0.4702236578509385 1.051151818737996
Ni 1.1061528769801114 3.1923347732522624 3.8714548982408745 0.3725554191734874 0.5159597264354727 -0.4109931543243954
Ni 3.833239660892987 2.4928411447279784 2.6119318026085385 0.2264802499475583 1.2770021484110394 -0.23852689669944724
Ni 1.290063763656586 3.2965208781728625 8.362604849314353 -0.2686028901492213 0.3238834078890809 -0.02359038572543034
Ni 3.6793291977477764 2.587106064946014 7.321197496158108 -0.16361394944064078 0.46234862597823595 -0.09780656402752834
Ni 4.2366282892310725 6.823789016351756 6.058287167768736 0.34444503409051647 0.21298452945396867 -0.32478200844395033
Ni 0.6333769951524515 7.5819078272093785 11.489892545745821 1.5503155566620526 -0.8662157107808114 -0.11915880445105931
P 0.3800141714130435 5.594035852080827 8.107593049972408 -0.6142290890320325 -1.9546888916770853 -0.5103974018563467
P 8.499986381875667 1.6711593350918466 7.9354254204874906 0.6121156422334555 -0.0032295626808912124 -0.6131859924794989
P 1.8524828788339514 3.3168825382373557 10.709124462813778 -0.34896323367584414 -0.4490249122861364 -0.7753683516799356
P 4.057882978060892 6.319439351398587 3.698153939667804 -0.42093303914592667 -0.1351603220856382 1.4675059802639887
P 7.081967577679571 4.052708292192153 10.407136901596866 0.33704642763360015 0.1730496409322439 0.4757085922249098
P 6.491488546171719 7.691569259959402 10.013586553663094 -0.47284952550955983 1.0594024887825628 1.0354706605573134
P 2.3336466713646895 8.513287511045315 5.826556899654892 0.9814435556085805 -1.1053259907875546 -0.8126460050844714
P 6.982199998544779 4.078754818422303 1.8089754319417848 -0.23259716147857362 0.9617895288230791 -0.01471313784045853
Ni 5.44176525417571 2.926057099710874 0.7409986177510476 -0.01575237773825029 -0.042805268090984346 -0.7139123012569835
Ni 1.4819462174724034 0.934641193591232 6.952474707959352 -1.3158903408358047 2.0689836831676236 0.37743794407676934
Ni 6.91346231389753 0.7036014909507177 9.018314075928144 0.44745885335059715 -1.6118448835251016 0.3900255509337928
Ni 2.5467653800397163 1.489999777873751 9.338928684200026 0.792624310546906 0.11482418163144739 0.6099335469804722
Ni 6.3477999096897575 2.202284355270763 3.019042925041637 1.7780430487531507 0.701514698923579 -0.8309849126029755
Ni 4.213633734419985 6.745102815914607 10.516568753213276 -0.2742855423562954 1.4656301033975145 -0.13566554385683088
Ni 8.068565168294429 7.3095990937294255 0.318166653882921 0.7124930523119536 0.0018095424049130125 -0.37111148763810925
Ni 7.972068209277378 3.834451339098167 8.214051279286782 -0.7905538011711224 -0.11231272806350333 -0.1944543318602651
Ni 3.297413693692469 8.712512916991772 12.225473230950849 -0.6548000684758595 -0.8308792402630464 -0.09789552419690882
Ni 0.1464645639189418 4.953039860815653 10.189047579171866 -0.132844529468268 -0.968277707650584 0.9930001500979285
Ni 8.801758027502633 2.2679700684989488 5.607280497003315 -0.3890516170562977 -0.006064718136841168 0.7097872233450163
Ni 3.8131604220642874 2.6008809329627987 11.349486372852782 0.043656046127053844 -0.44956355839842577 -0.0573541124394367
Ni 0.9637123601531099 3.508983640751852 12.791592064317117 0.05598808532984551 -0.2051524350040596 -0.4889328042246676
Ni 2.8253693739691395 8.54163895897404 8.088379295575981 1.417095903242553 -1.2950860024959439 -0.6082088509798815
Ni 5.635834194978319 7.975967444403822 3.8547874901478134 -1.0316224904558169 -0.14313896941574059 -0.33594368148772463
Ni 2.7878620117832256 8.315383107653375 3.607923087940398 1.076767205313255 -0.5323247980570573 0.9167345454659696
Ni 3.549934719941962 4.390301882952714 9.635262354483592 0.2617843245654911 -0.4036878789122338 -1.2629796088797023
Ni 7.484454280135607 6.3397463492884105 11.355606714343308 -0.054921334628228 -1.367853107056341 0.3861933216718962
Ni 0.23581899877914206 0.20091811128873205 0.5268240180686494 -1.4029023853509903 1.7246317230115458 -1.42177685365799
Ni 4.198501422398901 0.003039216911639763 1.8206421620888047 0.6966136620775358 1.0691192018496942 -0.7636145535781171
Ni 6.195565753234421 5.69259175301044 0.34041233690103245 -0.9479405387551288 0.8539734030783486 0.7872694739928958
Ni 7.971339380281781 8.904012735584901 11.423636523828582 -1.236446081365548 1.4740121568136226 -0.21322158516543924
Ni 0.38081223916322227 4.77366593463677 5.897160386530869 -1.092004333977984 -0.40339194493836983 -0.3017438956775642
Ni 7.554039228490235 8.932692156561645 2.570129815566069 0.8812031853285791 -0.3730480425391898 1.020741838987571
P 8.772941951089214 1.3849572988833239 3.411060910012164 0.29142862979448514 0.7219097176401631 0.6202778663292736
P 1.8320756669572338 3.3099495524167386 1.7113041472055774 -0.1928641045550098 1.1057599930011794 -0.40580415392428815
P 4.575697758707718 0.9322360579057616 8.430887926875599 0.25814518515100704 -0.016836097720732295 -0.38722304848799116
P 8.371648706113469 1.737865408913868 12.559821710608515 1.026516536687819 -0.02474661081706061 0.24017908759088957
P 6.198772600815047 7.864301731915907 1.2434032203222174 -1.157627371294432 -1.4934790072889828 0.8377412574902023
P 1.8472990826027675 3.1015317907633126 6.10548977766858 0.5796063567518405 0.08274041372302525 -0.5019143040860001
P 7.247284214605876 3.9595912776421827 5.982230217933203 -0.9689431091487248 -0.44052535945555743 -0.328570271841789
P 2.2948183066242556 8.427240137752635 10.160539433009088 -0.13151938289894122 0.8974453582190545 1.838107618145215
