# total energy = -340891.0814447627 ev
CRYSTAL
PRIMVEC
9.09946631322828 0.00000000000000 0.00000000000000

0.00000000000000 9.09946631322828 0.00000000000000

0.00000000000000 0.00000000000000 13.31798873756044

PRIMCOORD
 96 1
Ni 6.339215894049364 1.9331360877379102 11.586543166474812 0.591988018245645 1.232101431243607 -0.6004703446850432
Ni 4.466436565331273 0.6543753694327895 6.079195918771353 -0.26787115418951934 -0.7536934378096632 0.5378891795187123
Ni 2.7944096589703746 1.57882107451407 4.645234705691312 -0.6102531351034199 0.8747743989840999 0.8861792983869318
Ni 3.3523070285262553 4.438382911169039 4.903470275655923 -0.9564681166101656 0.324925218890034 0.22716750582257006
Ni 5.028992861559571 4.612801478467682 2.852513390169705 -0.169080886092483 -0.2347586879062667 -0.3499870469546682
Ni 7.40496356929726 6.336495153668401 2.6742921559640234 0.7738976806716801 -1.3699688678477633 0.013972917240324323
Ni 5.356673737341679 4.4750082624512295 11.576648406975616 1.1680467668555432 0.9765309487983119 -0.2956642651423876
Ni 5.748560446328045 7.960349486193792 12.590253411303678 -0.8044747821275886 -0.19290215688179682 -1.2734851363967166
Ni 1.9137542248233594 6.541651717645614 0.2681639974885855 -0.12993249802779558 0.5956510689195289 1.3940948143616894
Ni 2.817549601407794 1.7300087047137236 0.3550320511570171 -0.5501026908657687 -0.42970127225685995 -0.07049013560076248
Ni 0.2797294189742165 8.890706204490701 4.577858618477932 1.346756691397358 1.5586636715164317 -0.3953755023917965
Ni 8.490611777030662 2.5300974655060755 1.4575069917080647 -0.339441410228338 -1.0856837910765949 0.26661131364048923
Ni 6.67428553635101 0.5928820870899525 4.854699866893895 0.5937201704454034 -0.15106336646913984 -0.14668323512357317
Ni 0.7805485671666683 7.283613088626628 2.5668292805423043 -0.5738745964743859 0.4627486896301321 -0.07487952291770976
Ni 7.409094726932569 3.845634586231595 3.535886028405217 1.11861345192508 0.2135972233373031 1.1909470684924843
Ni 7.76818695988887 3.866062887754208 12.775546750606631 -0.47457422151015033 -0.40590211295473316 -0.4437513225920229
Ni 8.13186532378833 9.053522952439087 6.83228775675569 -0.0697879673274153 -0.20632820047971562 0.24524904591462926
Ni 7.1297775137752675 0.5272840355636629 0.12251885212520096 -0.26133258174005314 0.7523081274263624 1.6746649041751158
Ni 2.027370159260487 6.415514917776363 9.40889259379053 -0.2527299276727067 0.9900744918107012 -1.0916243249307458
Ni 9.35261330555569 4.777483616978264 1.2015226296707122 -1.2028620747625156 1.7047072161734769 1.4539567808246443
Ni 6.507201138774961 1.8606588397968786 7.019565689627499 -1.3140982819323885 0.9216435527318128 0.34496722514257366
Ni 3.3545727955993647 4.4163895014674095 0.6185780695708916 0.6198978572820356 -0.33550119463366734 -0.38710657751478494
Ni 6.122002537414039 5.771136221863727 4.892962212137743 0.13647801245579722 -0.40698480449595065 -0.05927266961838824
Ni 5.357711076483585 3.0404501243912856 8.980626219108213 1.4674956958513437 -1.6063902881684335 -0.05662803290668957
P 0.20268514896895343 5.61273271500152 12.517257493791695 -0.45061488248107556 0.6878418294221766 -0.9937010328196951
P 4.011772639327308 6.0912645407354695 12.55156521104368 0.43958664969137196 -0.1381649132399169 1.99630271056313
P 2.395034089336743 8.373301459333765 1.5458855567585692 -0.3528083184535472 0.46990278417641007 -0.7936293547726525
P 6.579032324618842 7.749123578289815 5.938038630116633 -0.6745795650956318 -0.1695719667962886 -0.15785956345536686
P 4.749220675094417 0.8461347893869536 12.539605782673448 -0.4658124161571203 0.9171124976306786 0.9881050267891563
P 4.00674063454245 6.324820538588885 8.265502813610851 -1.4663333001121261 -0.036093146178131384 0.680796492539621
P 4.818977182654486 1.018930921869792 3.8353540093673413 -1.566781929748192 -0.6901414240896309 -0.24510197881380372
P 0.1054983006784088 5.489398550708645 3.7752502155066883 0.13904474474170891 0.6269532214669202 0.10768474237318873
Ni 1.4069412582732483 1.1771524394088577 2.6931771880263984 -0.6447051461337026 -0.3510640820689309 -0.9029840286490964
Ni 1.8174454750169717 6.594983688792178 4.9344475882944225 0.8367022747027267 0.06332909907594901 -0.04063114325780099
Ni 6.055267052618116 5.464593405964483 9.284755856582603 -0.1466590667538571 -0.3725896148455325 0.6392682913888474
Ni 8.70363027976758 2.14034913106662 10.200101185560202 -0.5013532893762075 -0.029248869562788334 0.750693731751391
Ni 2.3366519144730074 5.157459124765031 7.253389211785932 -0.5419337819017311 0.45429464532550795 -0.8290833247048882
Ni 0.7439923718272708 0.16839017096958694 9.186428845182578 0.11870063386771817 0.2650663377508725 0.557901103864265
Ni 1.6604159875444817 1.3523171629323802 11.286902295655702 0.03840688191297257 -0.7711149757202204 1.0736080908589833
Ni 4.071101158671379 6.639016005526221 1.6679585350420738 0.3078677491871149 0.9630213443476512 -0.31103252006834176
Ni 5.756831861064819 7.538225251167494 8.12270762104786 -0.2882288919102649 1.935577881879247 -0.06532556068068748
Ni 5.120606286828913 3.0261275646600634 4.845030774155398 0.47250474057563135 -1.0623921675385057 -0.1054856778393409
Ni 0.9964825388603099 7.776831452738082 7.226460251640711 -0.4208178537243011 -1.7670315281339957 -0.03668398568459489
Ni 4.887086686840126 4.857631714889703 7.090083822504914 0.9403915227632773 -1.097213131872433 -1.0217587102878596
Ni 8.514579770888373 7.371359240779216 9.179463203839344 -0.8852035647372238 -0.8957895677831863 -0.7730358468920171
Ni 4.873473885469155 0.38658808984310666 10.360795938000757 -0.8298261164081838 -1.2021799610938264 0.2301939513537197
Ni 8.599377696006073 7.059884514222843 5.42737294959562 -1.41297519620596 -1.963749973438089 -0.21585825145733792
Ni 7.226341048634054 5.909748389834314 7.224143527557122 0.47975165194603187 -0.1928597336796356 -0.8062311026970631
Ni 2.194490954701163 5.252139070129304 2.6070898685542434 0.4292739549114542 -0.3322271518680859 0.8896387176904419
Ni 2.2246465855456803 5.551393213636738 11.523109877947286 -0.12417528382904419 -1.3255810857610073 -0.8611997456234587
Ni 0.9917690153909497 3.4445210185619635 3.908044184816448 -0.6157678942740622 -0.24065319901383073 -0.4709854757176275
Ni 3.664973785149204 2.4963657444618312 2.5324951748384628 -0.08182792921108488 0.7198628624134634 0.11696796744732758
Ni 1.2617774746695727 3.209245221604862 8.286505291447975 -0.8434336798892895 1.6304910378713788 0.49574339938859785
Ni 3.5770092458088456 2.8940215149917776 7.124444316660612 0.04927467786541191 -0.23914653256131718 -1.218106916736728
Ni 4.382221006047626 7.140414789712878 6.02148892429647 -0.817216140953657 0.32239936714438666 0.0136597568752797
Ni 0.29437773959386154 7.65361558150525 11.31958393830542 2.6861453724654187 -1.656206183249296 0.7779793069402214
P 0.1683301144929503 5.653762207903731 8.065187165629197 1.0366204578910403 -0.48347949441958027 0.07323967332144161
P 8.62199896887254 1.7505098019655934 8.068383808090175 -0.3404174009883621 -1.0086118884932567 -0.8132977797358574
P 2.1374191029640444 3.2773092284597167 10.50437732443972 -1.2980535697647 0.9153258380439011 0.03340017272700055
P 3.964155132927381 6.288122391577438 3.91494249011012 -0.6599111644501796 -0.2653563581874656 -0.00952927964667391
P 7.033013790661027 3.629203783685777 10.323678305599469 -0.22431846640954917 1.3158805706437917 0.47700957042452047
P 6.592927209440681 7.555832718181417 10.181495507108847 -0.6843811245670859 0.6937096010568634 0.5173537785695218
P 2.360601709398405 8.727625572023763 5.868771673835814 0.1941864229108591 -0.5170077080840128 -0.862711554282295
P 6.679117352880412 4.025622026818363 1.5190230227162944 0.09765152650690279 -0.1433084051140693 -0.9081735432698359
Ni 5.154601892391712 2.61835318776346 0.5063215953776297 0.7057485344992684 0.4775453883233323 0.18272958722416918
Ni 1.3831643532048346 1.2394200863216611 7.036732742479419 0.262004153885781 -0.6054127762919832 -0.9915868146901696
Ni 7.015661108699502 0.5556152234436883 9.016771118577312 -0.3149308266814834 -0.5153498607656157 0.6812392365039944
Ni 2.9249506004596455 1.8075088579734557 9.031620537399027 0.9119515222550293 -0.7756552867927351 1.8730411967976064
Ni 6.294774101338253 1.8873293751032396 2.6432611564751967 0.4488423639616851 0.11393072328290055 -0.8925836592513788
Ni 4.341546392325541 6.850724185136521 10.634587045360872 0.08441060233659656 0.5557688880126107 -1.3326698742869887
Ni 8.267347275400889 7.352204864518591 0.3218781462137468 -0.31391549804309166 -0.9694874116879689 -0.04561162719152789
Ni 7.885624670111964 3.7408906312976065 8.260135948471413 -0.47118293644041437 0.7333169310358403 -0.2687630698761693
Ni 3.0106038753961086 8.536782468311616 12.565242618624367 0.45663640608480716 -0.2081878793962737 -0.29143454333175617
Ni 0.11098618871773537 4.446317645658 10.399152007746022 0.5812739742622506 1.1705965298605905 -0.036862163133672
Ni 8.386513884193826 2.2825191903046207 5.807827999248865 1.2538902449839242 0.30925665911484157 -1.4085176746552388
Ni 3.8902037714689044 2.9349236153677896 11.75412348495642 -1.7136939930531196 -1.6475389944926013 -0.1866903716441301
Ni 1.2720962692916855 3.5860723141012834 12.761829305374853 -0.12703229366186508 -1.1256140516126292 -1.3377076938212122
Ni 2.8926292966697464 8.743294852746232 8.127648631171146 2.3371551422063814 -1.0172615937484546 0.2170430157940585
Ni 5.618301588289643 7.716902368627644 3.5849630891767377 -0.726496308569581 1.439717754407127 0.0988154649080169
Ni 2.986462991681412 8.526600165681858 3.67814890219802 0.821894777376249 -0.8746779826155516 -0.12102079736046253
Ni 3.6660202237572665 4.311072280165527 9.46943589186657 -1.0207032724401517 1.6890743947322264 0.08731903423264316
Ni 7.362214277291364 5.926209324112447 11.366623628604374 0.6945709206158941 0.27981932769033097 0.26240241776546425
Ni 0.6664066835856625 0.04887687251606492 0.22613538320232848 0.45481297972282314 0.3924130773293629 0.24661147347979465
Ni 4.4403665947912785 0.20492088780374457 1.4942651951961488 0.6084225096525844 -0.48111587928341004 0.2637962127891973
Ni 6.085613772251932 5.808425834175383 0.18069992878686597 -0.018812247610496633 -0.8700309707618435 1.435141190780038
Ni 7.81604105240888 9.1364099896638 11.26054569193176 -0.573080896928497 0.31801075115838784 -0.5723391336664659
Ni -0.10213695787998858 4.6531212130096415 5.987501508253213 0.7341283711935421 -0.06965889794871874 -0.21053941034758578
Ni 7.818825489052942 8.85966792542895 2.437910773868839 0.7785259234723108 -0.39665308355263945 -0.05483880221675072
P 8.33665790911926 1.4668612429175287 3.5632281043139695 0.6128445499796801 1.5826754610499967 0.5651210186514719
P 1.5691756403875798 3.1330735904040616 1.6250345332859617 1.666763647050168 -0.24111136959717186 0.38792573098197064
P 4.912947369658506 0.879462494133824 8.253171217074796 -0.05490359401641512 0.8358180723255605 -0.7528753127837421
P 8.746106587788764 1.73516810202478 12.481738637594201 0.21454673173476596 0.14726918953403026 0.3804697889245577
P 6.2926903235882845 7.734027563935243 1.4377165627630615 -0.704623933976522 -0.03008087854578045 -0.8559634369251838
P 1.7026102121147975 3.067912313253311 5.9204448123019455 0.09747592016098697 1.3235756252952044 0.4713505723665302
P 6.758546592965441 3.916537626527454 5.865388492318617 0.9405568446965478 0.1270019546445619 1.2172656517823552
P 2.444162107118743 8.462430730342229 10.39434384982863 -0.3950633704680164 -0.12678752464091067 0.02231074768205835
