# total energy = -381169.77418424294 ev
CRYSTAL
PRIMVEC
9.20033201267190 0.00000000000000 0.00000000000000
0.00000000000000 9.20033201267190 0.00000000000000
0.00000000000000 0.00000000000000 13.46561588435457
PRIMCOORD
 96 1
Ni 1.4519964113233579 5.5590706604477 9.87655834466422 0.056791040847115094 -1.6829639109591144 -1.2660729030930453
Ni 3.1438178793820217 1.5379643144243937 2.884806450094608 1.5912883995299882 -1.2045209505221772 1.1106679718257582
Ni 8.418138261471732 4.7318688017347155 6.561471683157055 -0.23281313414412164 -0.45863929544744886 -1.8278527731864262
Ni 5.725320661414708 8.687339978588204 13.181289112364606 0.29850661968718917 0.768960905491695 -1.006677390474705
Ni 7.1494952684810515 0.3269466814811265 6.5218283721904395 1.7568838981770323 0.43400632739011713 -0.27523067987838407
Ni 4.567247259548625 8.421680389328529 1.8973320461771106 -0.2147940718588817 0.6910161133851003 0.3564374305657023
Ni 6.856805103524582 3.410903520116511 9.73494039281669 -0.3176227716913497 -2.408969395935206 1.5242504841438846
Ni 6.952801368609793 3.028712524534306 2.904061825137433 -0.40667318679280284 -0.6668397732492128 -2.280373614440963
Ni 3.171639683639035 7.0326878521956555 10.105581291486113 2.5109982255741983 0.9392936617134082 0.6659416869149756
Ni 6.257081455874645 1.1804118081941335 11.04544121670939 -0.5899337068197776 0.24478753289717842 0.6619081402755503
Ni 0.9139996317690402 1.7928963164606306 0.1224352594282591 -1.765709466888462 1.4140396329147324 -0.9758272378630677
Ni 6.803525980359118 4.659416186482077 4.455462304554201 -0.39495924078998434 0.40469575135145786 0.5346989547161888
Ni 9.081491405894655 3.1886786986800364 9.767055992062707 2.0167494084532556 1.0699900344904218 -0.16203632054087577
Ni 2.5058668518749783 0.5987622129459498 7.146902614896519 0.5898174929568873 -0.023210633788508413 -0.9555594887529673
Ni 4.925342585372524 9.07742485910841 6.524898523010732 -1.4079126940813882 -0.3994000501701573 0.6612584225066934
Ni 2.0014494444030837 2.0602671674900828 11.518582095222385 0.18815075823974048 1.0570514720518827 0.43226003412297165
Ni 2.5886146387425635 7.532440691295094 3.346461634019488 1.6897043150067417 0.0211645498927571 -0.9157966070327326
Ni 6.57482412512736 4.523775690397042 0.5667422971537265 -0.7019702984037588 -1.5464786994144655 -2.3778986426723305
Ni 6.2862925102780896 6.891011938255923 0.9531755658652004 0.06507127857803632 -0.6487836870784504 -0.853504176751414
Ni 1.0836795165412771 6.471900009974183 4.721395143677115 -0.2706309763228436 0.4242955278602564 0.35002895593619715
Ni 4.194937420637066 5.0165178764396545 10.647100878199826 -0.915550038239565 -1.032456556321338 -1.2870538762200867
Ni 9.189650510010212 7.7228967660055545 2.5919019174003113 -0.26311384201019206 -0.5709291406928168 0.1792269733875494
Ni 5.5310832502129665 1.751504022362647 8.000528747421198 1.0154718488378833 0.48060885774000456 -0.373142402025209
Ni 4.22944786632756 1.8960780409124838 12.431079312760216 0.6094257541061182 -3.600420914867935 0.18484946178064937
P 8.312030831413486 8.734620485227353 4.462195107581742 -0.0831744159366503 0.13426583529582684 0.6787902607428696
Ni 1.6637144535066877 1.6052923446997982 9.319216026812539 -0.05854633297532497 -0.17806894852370622 -1.1592196554822165
P 2.4676670730141583 3.6677583915607226 9.949515138115695 -0.14307237784386329 -0.3391701588448223 -0.10341902511829931
Ni 4.059122118242215 5.430183208120815 3.9532088151911857 -0.5403479254718501 0.5349858898289883 -0.38405159273854506
P 5.246691784806704 5.0144202007218635 2.2154307682819243 1.4170683924387273 -1.1830578955523947 1.2876580854629887
P 5.3882940960896715 3.696859041979021 6.274276876561271 0.1348924131362322 0.5150017333975776 0.12874516258791374
P 9.149803871704284 8.943753234091828 0.8957700937548716 1.091624839151378 0.26366482941765557 0.5933126505943395
Ni 3.2457023570083994 4.222492415263307 5.851092881294031 -0.9525160739409531 1.7983629912574255 0.28700376125391214
Ni 4.53818341045871 2.683000845711048 1.2723847680539497 0.8707573074049068 0.5182297534165721 0.3506694177336735
Ni 0.826866966624705 1.940911259214212 2.3592834807954683 2.7230085640403554 -1.9664596590597683 1.4129083475237665
Ni 1.3217013081858509 5.5802682255959 2.6366081711191205 -0.18331836984810362 -1.346880618569732 -0.6904903227886173
Ni 4.412267665398695 2.5272852249934727 10.078232384298811 0.10463232870011012 0.08634612879641258 0.824970073867463
Ni 6.555034210789782 1.7061831864598536 0.021029199070851597 -0.04239312025423022 0.3163217934917391 0.8187737152487642
Ni 1.3232377636458115 0.15294264062397017 3.7948931806234008 -0.5364640170364116 0.8709460263769453 1.1534909805285554
Ni 1.274724412505854 4.283030600452179 12.10685500954617 -2.0269258347656254 -1.0223683188474006 -2.4329793856965582
Ni 3.5098530918044006 8.06294104025794 13.13254391285584 0.6656107859381182 0.5511064495399347 -1.0544191766353581
Ni 3.434732380244046 5.056235710096244 8.134605187049987 -1.0333870385554076 0.9677951115872107 0.34287280450739016
Ni 5.397779638480207 7.89979155120714 10.76792791957778 -1.722449884868879 0.33531684653700317 0.06702840230440714
Ni 6.19231111792181 8.534568464141211 8.636577146250877 -0.6807255300923696 -0.2555496565096889 -1.4747120110941248
Ni 6.685660525882731 7.899800751539235 2.9806141083718587 0.7134219918841261 0.5405970653681786 -0.3509887487463052
Ni 2.1825947830328234 3.4410530083937045 1.2792150946017034 0.175599146826975 -0.537238690418907 0.44813531059233147
Ni 7.539331740034679 5.435887414020071 2.266478810914212 1.0730331921921197 0.5512028659084829 2.021742747902789
Ni 7.631841079255667 8.491593712922787 10.42269649808991 1.0997292134260672 0.5912393130050786 -0.5113595086592999
Ni 1.3304416236766452 9.023814523987506 12.60939094910452 -0.33993609047656936 -0.8466269900156065 -0.7019610424323781
Ni 9.099128442521867 6.819966973813908 10.793458841142995 -2.2025890020613166 -0.7562956513192007 0.865185212633768
Ni 5.958696285351016 5.9154547245018225 6.237461747680835 -0.5685333867671305 0.19933351432943736 0.9487545500159918
Ni 8.15382192069801 9.170458617258847 12.583483733956596 -1.9278200923106992 -1.5508637158560385 0.9941049531263331
Ni 7.900959993383277 7.31767733918813 6.699776595416968 0.2550601184677801 -0.5905065486041121 0.524873998205967
Ni 1.324884623090919 3.686444266046832 7.49543327547386 -1.0194724853568442 -1.115912508054149 -0.09220053069466057
Ni 2.330802932760412 3.4977454547666262 3.6039237273820075 -0.47138116849414946 0.823326110506137 1.3354111844775518
Ni 8.050336585287004 4.6655988096503025 11.451052577674085 0.3735033849090535 0.16111997937419348 1.0258783888831882
Ni 7.055504675792676 2.5983485900996794 5.546272078469548 0.016714227430887345 -0.8862906271538155 0.16193424774537274
P 4.9213128399146635 6.620586576970741 8.325978534870377 0.5197410478547758 0.9078945785768363 0.4898954252482531
Ni 1.2461021793565261 8.63759378294744 10.344017098074987 -0.00816016721328917 0.6302072096278437 -1.1388765730494903
P 3.0704544312519215 0.2690103502088831 11.31196563718605 1.8553165258243336 -1.2906228245182674 -0.5180729161237335
Ni 3.9472552802921403 2.171673988835378 5.710821858065293 -0.09372853730341278 -3.0435166276993004 0.17524639147324658
P 9.191508977093516 7.109188613570346 8.546734063271188 0.17296248053507632 0.010667507016175177 0.4756507424037809
P 5.664055649990285 1.1568957593578484 2.4555088341498585 -0.31418366410281373 0.3552040723792334 -1.4913275081636188
P 7.470402851974644 1.2633344013715344 9.269030055297607 -0.013695495209221573 -0.6884581228499369 0.12190782795110619
Ni 6.492094738923966 5.655306134167396 10.0984179129165 -1.5264845156807259 2.7677529581355818 1.3527059670022574
Ni 8.185489463770974 5.239662731085686 8.795538644131772 1.2755613021994547 -0.24283400871523342 -0.641095060184941
Ni 8.845714495281399 2.878986320010948 3.9965405392949163 1.518294523670766 1.4822833956834796 1.6541490436099513
Ni 8.169370481939529 2.4329542200175607 7.696972990259858 0.07935247108739882 0.31540776631790196 -0.14261240748830922
Ni 0.77899303856539 8.360479780228776 6.03489895596581 0.18768847389134127 0.11198105575569746 -1.2837307253841246
Ni 1.6875249129700312 7.179911566389017 0.9634100152883159 0.7015229264536951 1.2857253872166503 0.2863370742041907
Ni 3.8457112149532993 0.17166347637204246 9.180587262862861 -0.09111526805028179 0.10612485408523659 0.3825356703146509
Ni 5.06765332222685 3.230227398423645 3.9306532810256782 -2.5237215866781373 -0.5901967306731771 -0.1731260026961341
Ni 4.808599571411796 6.0804442799717355 12.542938790444614 1.5606922719106864 0.0854344156154206 -1.3186697033531547
Ni 0.4153765934509376 1.7368570936664947 6.029997019025289 0.21846997804857213 -0.453567023130864 -0.25958346025943035
Ni 8.005751775951856 0.9874808441499641 2.360293677259562 -0.9985046248559256 -1.6675740587666055 0.24595635639429897
Ni 3.5171857564845723 3.85439632845152 12.834172542830355 0.13318520063713837 2.0537079879554763 -0.17246522918368362
Ni 3.1281405134911653 7.2887698957438385 5.7660302908712 -0.5282529419805291 -0.18801114733808263 0.8322403822766313
Ni 0.46934942165640803 9.111907703802618 8.044426291948808 -1.8234893540114079 1.2946098341904737 1.53018741845361
Ni 8.943348419479623 6.193157548474603 0.3273625364918464 -1.0605813395820123 -0.5067058119373725 -0.7421697534407798
Ni 5.626058278435568 3.6410314268230826 11.909341360085197 1.8633887613095068 0.08072338329299647 0.023613011433249655
Ni 1.289684152493256 5.892251486956787 7.219644120576959 -1.9074911509453598 -0.9701659258122324 -2.296179471124968
Ni 8.726671398296778 3.3167933231108933 1.4286744894942895 -0.6653127950817251 2.3954014274427844 -0.7943410361276966
Ni 5.696266012656888 4.493258188836026 8.341625539665317 -1.0022550930372933 0.0462618591810171 -2.4796029990923683
Ni 2.4700499590269116 0.3554023886195247 1.013223373353378 0.25222881966657207 0.6349591224905323 1.7222863627078209
Ni 3.8992939490779173 6.062669238363089 1.0442082517848492 -1.2239011548210017 0.19470090065343243 1.6895094253871161
Ni 8.009063895506262 6.478818659710054 4.281661591036357 0.226687480862358 0.8979271829514794 1.7553103830423253
Ni 5.911305374726719 0.42821013669105257 4.41464871134503 0.1641004021587561 1.4668693751212545 0.3517369397662394
Ni 2.3190173073459825 7.4126063657502534 8.155490860940146 1.0914980837655268 3.117880644433172 -0.079760762269411
Ni 1.880382274357436 6.876631819190543 11.925203652651174 -0.13298079793581613 -1.9295301330232704 1.2004570648654487
P 2.0699919185151034 5.17929935220663 0.18858196706259198 -0.3368273696442586 3.3138850943893767 1.7677383243930327
Ni 5.099118457993709 7.4488280732105245 4.603544409732081 0.18221228126811845 -0.1867523352303171 -0.5884234408228383
P 6.8280356650617255 6.902733161345684 11.965411864008457 1.3557750928458845 -0.18442034466303078 1.1320189266977085
Ni 8.946798544015461 1.4684834064386252 11.237366584455515 -0.3274708681300232 0.5832005018610021 -0.6615800675121704
P 3.5033116556844477 0.059063371953951095 4.734591180001796 -0.3426630024894292 -0.16403509613845943 0.05888314748945343
P 8.085573857213049 3.121654279363786 12.920998836915908 0.29143711443491743 -0.33802627504836624 -1.3136701932560344
P 1.0848847600457971 4.471628208079333 5.154233967445451 -0.4597559255503953 -1.803137015607301 0.7589716554894671
Ni 3.32116348085629 2.721541036859404 8.103136371150288 0.6416823001469788 -0.781427413389822 -1.3329956330575237
