# total energy = -381181.31400247075 ev
CRYSTAL
PRIMVEC
9.08421888650154 0.00000000000000 0.00000000000000
0.00000000000000 9.08421888650154 0.00000000000000
0.00000000000000 0.00000000000000 13.29567258732324
PRIMCOORD
 96 1
Ni 7.434797335023258 5.008066330922592 4.271713167205496 -1.3863545082946382 0.20349818723008822 0.10951151116928236
Ni 5.990788055328443 6.947592503001011 5.304095591477398 0.41964568779307077 0.4075550751771239 -0.05724304078286915
Ni 0.3524159161493258 5.852871442862719 3.2593142078329556 0.5844677986091998 1.7180908365692344 0.8213193644887532
Ni 1.5063361060765388 4.819305344858484 6.549115962965096 -0.4518202156430864 0.2321148225255164 0.7425124814921793
Ni 1.9188050685983562 0.6447433574721609 5.513223396481577 0.6960346496456141 -0.06444830028205674 -0.20007424915020383
Ni 0.7200578917212443 1.6543725384794798 2.149577842152271 -1.0443126843289756 -0.04437518368126551 0.40080310116527107
Ni 5.776382319100277 5.708532287582261 0.9557970077883333 0.5379328882724542 0.13263164212651352 1.1124800853338326
Ni 5.590600956859693 2.5258489173277456 6.496824473284128 -0.5334995350914489 0.8518072486649652 -1.4358739551810045
Ni 2.7091502877883826 9.28688789947537 3.07756260512931 0.6678206491052433 0.30535809539138375 -1.665739833771344
Ni 5.796930822419831 1.086372662901038 12.893944192795445 -0.9835860558728803 0.30820970590756597 0.4957919932383461
Ni 1.472606401025476 7.158718836179506 5.529337892519843 0.32990133194838667 0.010158685700556698 -0.5475084477760312
Ni 2.62421284037997 5.857113773123652 8.551417721842563 1.198636209606626 3.29886702371399 -0.16228597465783665
Ni 4.723475918900051 1.1643788512321656 4.578258319644792 -1.115396230539363 0.25697250499914454 1.326350359826864
Ni 5.050553223064746 3.218302592852204 0.37152457076147527 0.6098952375433689 0.5436263391128058 0.22390426169026598
Ni 3.636013149722113 1.9861372996348436 12.063323180361573 -0.5849300829575991 -0.6940672415065982 -0.4394933186466173
Ni 4.120828832154156 2.6543451947172643 9.358252615314488 1.3864897483209218 -0.6019932090874729 -1.438046537352291
Ni 8.546660316365793 6.1584554849345485 5.872459744236704 -0.9565550198970172 -0.6274610143412742 0.4370577126219312
Ni 7.087189695976956 6.589419917287759 12.512052711340656 -0.5309657129260017 -0.08548686611991083 -2.0189464161045745
Ni 5.87193013427051 3.2193291095962846 10.977000480664893 0.08835338903442848 0.30747951260976075 1.266060047577239
Ni 3.766816818731069 4.918931974348116 1.7257517890689562 -0.5614548826537944 -0.7599874983484912 -0.5077939027952287
Ni 8.20020637312921 4.294464593626285 10.71022240520689 0.7487792883374976 0.06288532667031105 0.22353967926199567
Ni 7.370626412189779 2.3905303914886313 0.8863799484972756 -0.6696289059585757 -0.8562514004792479 1.4889914038312742
Ni -0.047941057214241585 7.6523189583595626 12.961300042801264 1.5889767206776764 0.8905748563514662 0.9775627324969358
Ni 8.270254785638972 2.313278193332359 12.133511489843537 -0.6142530002914325 -0.8323990193416826 -1.541624456645958
P 1.9667243236870597 2.077569963609782 3.8329562918162496 0.047260475648860545 1.0952724632062945 1.0592505365857305
Ni 1.8295798698341388 3.934429743023329 2.523040076820935 -1.3744382164730264 1.1171954885316309 0.14604457309830976
P 6.892442209608875 6.834848261312689 3.004782567974018 0.10962515392901122 0.1438989875102167 -0.2768869845348844
Ni 6.855741964953261 0.4868723496077924 5.711448321872967 -1.4071380206988926 -0.741230272345646 -1.1256423337474035
P 3.6992302295633053 4.306710120803454 7.308272333151133 0.7094064429668299 -1.1091155397369736 0.707626982468904
P 5.49407204604025 5.389003969385093 11.522376108888187 -0.24741545743832874 0.47223965983970284 0.2674816320605845
P 2.2161224714036982 7.093221617375799 3.148494912145258 -0.36707228457172913 -0.4675841633455624 -0.36274846038539466
Ni 1.7109581384695338 6.113325085070913 1.005953706010373 -0.33014558674870886 -0.09655957899430467 0.7360109329282356
Ni 7.926744129350017 1.3049662240762938 7.443156633323282 0.49941904846797214 0.5926793878857147 0.3952857708914676
Ni 1.2589364865342159 3.287160972676351 11.531801894495775 0.6154426497241594 0.8993253488505867 -1.6278086059432093
Ni 7.915288929223599 9.150715457052684 9.383447696639326 0.1473468368495011 -0.3875812031583583 -0.39300443105645866
Ni 5.559959886259845 0.8005377128790361 8.014432278263806 0.42753126118873463 -0.534151566853151 1.1528181228312468
Ni 6.830006372599461 8.229666495262418 0.8282763755166392 0.04188044228386981 0.2902562067529388 1.3137624958595246
Ni 1.7495751533286956 5.595833466988809 10.770491655990966 -1.5696070579018129 0.902557225524323 1.1533673104664974
Ni 5.105458242544581 7.87501858651114 12.307179046082076 0.27777607200805715 0.20753919006868127 0.9158223180643453
Ni 2.649330705843527 5.304030185100784 4.480894569101623 0.1343537670239428 -0.07339779616586069 -1.0017128473805779
Ni 6.573976745031684 3.360752230586036 8.299637691910899 0.8269670496928339 -0.045207192664257635 2.0759269472546764
Ni 8.29997835012243 3.4982509689789496 2.7064804358318764 -0.29638314558628315 0.13733187581566025 -0.3680850421069596
Ni 7.434306787198653 0.65288281767301 2.759184349054271 1.1134200806495986 0.09608623890231194 0.28440977527449085
Ni 2.852862631959623 3.9653705928493244 13.18555761450691 -0.9542369132868016 0.5602192104744803 -0.5197101946168404
Ni 0.6864326551883844 0.3449114428547708 10.873772866773903 0.4595661781370924 0.4108530292021053 0.19341072108709917
Ni 8.886255674276885 1.721087042625724 4.755224355792849 0.18614169822951168 -0.6878048055366541 -0.31029204235789143
Ni 6.335643176025575 7.608333170086671 10.084980140606561 -0.30003745450941877 -1.2200882088328147 0.8895615845956035
Ni 7.24662682319247 4.371089980673339 13.000934490185534 -0.5887540846893796 -1.3248817457011375 -1.5020680345095743
Ni 5.416138531460915 8.456799222273386 3.5182480602067714 2.442786087374335 -0.30195138370268 -1.8639574893287834
Ni 6.3688005752812655 5.224997480025577 6.833111358644829 -0.17111565713432467 0.0011659952836431532 0.5316743089572521
Ni 3.522106128005098 6.302267755514504 12.907159914559054 0.32857361427589865 -1.1475687015068494 -1.0143791299943368
Ni 2.909402810854806 2.2692106470887 1.5064532925013054 1.3640535308045927 -1.5931974436272434 -0.8638379545772542
Ni 1.249743256932364 1.7527727984076007 13.134103689815362 1.711743297084652 -3.4904954560896853 -0.3895133871840647
Ni 1.0256264906208177 0.3715808929191151 8.310938460314755 0.20548693552534286 0.38349057802875247 1.3529250249915992
Ni 0.5233491224766417 3.6443797153973163 0.5114633303708485 -0.8473666963951083 2.0169329852189715 0.35784639509808697
Ni 2.5411739947371568 8.086907994083465 7.3809070228028375 1.6831343750987078 -0.5497481357398274 -0.19557096196321158
P 4.721822591046753 8.572150634807292 6.480045012416953 -0.08844929118234444 0.19291398395633874 -0.5354196349322973
Ni 2.3799926974786034 8.334425708472452 12.027332413207843 1.0941368069399544 -0.02215596727174894 0.8810059817161084
P 8.87574523292378 4.328802941348616 8.275905169840902 0.07924294209272804 -0.005519130046016302 -0.19970838117035283
Ni 4.303312622907118 7.537994062569736 1.441397566739743 -0.589436969689017 1.1508885099087018 -0.305956391097015
P 0.18304156179797618 8.83141424432987 6.5189082096103155 -0.8219004338032039 -0.5492567979257057 -0.08524826774654351
P 6.7052618776462705 1.7268282690173946 9.805053566605354 0.4712212458775175 -0.4544129160709271 -0.2556211331775727
P 1.7140740255776712 7.609323349954855 9.789297897216569 -0.2417148075091257 0.15883786820823612 -0.19215499430312713
Ni 3.8176975292053497 6.197027078698839 6.400869685103851 0.25048664016448474 0.4587953614093389 0.009779705094583157
Ni 1.9786064821052634 3.8760091308004947 8.799102585860675 -1.1769396984697988 -2.771064796117634 0.7442903993282085
Ni 3.963590085930388 3.138343297441632 3.481099963555732 0.833659631221661 0.12094597825846913 -1.4925973760149778
Ni 3.280247882037014 9.20885445848732 9.517428117023545 -0.8535298877830269 -0.23511915656947896 -0.1344046748665363
Ni 3.613602381512856 4.3074186898834395 10.850212944864415 -0.32987150715171576 0.08722570318788848 1.8609438993134402
Ni 5.241585263872396 1.2292855958025515 1.9506479813684856 -0.6104601089079035 0.3255517967304393 0.42376382372650245
Ni 6.682878362093936 2.503865107410274 4.260891137141577 -0.6589092055482264 0.8489237564695831 -0.45568561213576353
Ni 7.162125418294816 7.642553422962339 7.565650058814675 0.005661826271467669 0.4307060593722905 -0.9610439089063061
Ni 5.1614261156443915 0.4026316617946976 10.706459721707793 0.30093682639523656 1.6509565048145824 -0.4535168866192189
Ni 7.398369616936869 5.735766776066799 9.159070213243222 0.10559700660622459 0.0552280672353694 -1.5741028888896373
Ni 4.968259283377815 4.6156916607716205 4.926365590734673 1.002594221544267 -0.07959389767424357 0.717806494105067
Ni 3.877480774274309 6.946620491570776 10.497226539763512 -0.21414101165591506 -0.038432850054901546 -0.26318094780270157
Ni 4.9970471733069335 7.364903354236057 8.27941440363062 -1.2947419888929637 -0.1002254578816661 -0.328046538127835
Ni 8.650492939240463 7.236834035138323 10.672729108234831 1.2013250692926987 -0.852668568223996 -0.5732757865481224
Ni 9.211488881989828 2.262297556449363 9.502377383027156 -1.0559147873442782 1.2846025864661168 -0.3123239851862557
Ni 3.3090902772799775 1.4065732133022937 7.393550438771077 0.011569707115470396 -0.40178217724908866 0.08689943019672132
Ni 8.102432924310307 3.435079310232628 6.397784684340226 -0.5546126629209803 1.1829640502870078 -0.6966931091652195
Ni 0.6033620147791616 8.3325452751448 2.1037479574276245 -0.4766886967499919 -0.9786364251770888 0.04767262348561467
Ni 8.552265279472852 8.273107230396858 4.638116055309339 -0.49675101471750577 -0.44296250814214033 -1.4689918207808959
Ni 0.2512513283873676 6.988553246355506 8.007345679042063 1.1760580671957939 -0.2667897481998825 0.6529015659015659
Ni 0.6343882562635139 3.9410067175606223 4.512431343692323 -0.14907590372546586 -0.7922756689582355 1.5912243790612723
Ni 5.0479823890950595 5.141331823273545 9.324973487524543 0.6420412261482942 0.19580004725488215 -1.5250835215681413
Ni 8.41930865056702 5.527901677500028 1.2866115596389998 -0.8871311207772399 1.5502646488194591 0.08838089983825424
Ni 4.607597621665643 6.219683120820399 3.2430407379626423 1.3056889748227705 0.08819218086621586 1.595916128109987
Ni 3.294401095198758 3.0009263170194864 5.655646689980383 -1.2897100828960113 -0.11507666396188568 0.2546024621050712
P 0.1062753693568217 5.522115030013486 12.402309895601398 0.2867268534434416 -0.7477297640270606 -0.11552120769847202
Ni 7.422633565816856 9.135181442606866 11.703342835072464 0.5102631902713276 -0.7048391353111216 0.5112672060558098
P 8.63811114877868 0.5718888297212806 0.5267747814517982 -1.0013256392444883 -0.2794776280801961 0.11174374293391078
Ni 3.6154101410887143 7.900327220573154 4.6560383109234635 -0.5293101796004497 -0.26856098116769234 1.649380161466398
P 2.2684929937897413 2.030422867133882 10.04223525664554 -0.7182160708386598 -0.7762335278937083 0.8039209665066477
P 3.577846895630555 0.3309971446520471 0.6880005913833248 0.07157257003166383 0.627018784597533 -1.2547551640873809
P 5.978460770180506 3.7522366472775395 2.3434950309061136 0.07925862582201189 -0.27452594050187556 0.23120645177863408
Ni 1.0421779375917406 2.404828952153962 7.04211925195855 0.3084074237406688 0.227683269116724 -0.408636995387393
