# total energy = -381171.83541582193 ev
CRYSTAL
PRIMVEC
9.22847821125376 0.00000000000000 0.00000000000000
0.00000000000000 9.22847821125376 0.00000000000000
0.00000000000000 0.00000000000000 13.50681069103841
PRIMCOORD
 96 1
Ni 1.7850183519141942 3.1808348737979926 7.6069005801564815 -1.0371007399615686 -0.28584110840437865 0.4249843263971649
Ni 7.251904103732755 6.982404861489249 11.012845717148183 0.4440246308580676 0.7906455895539802 2.139179427456419
Ni 1.1399385131283386 5.239477597609594 8.62119428853116 0.9262455702801983 1.6992461930589056 0.21295727576045906
Ni 7.166808308344358 5.905349197268462 2.873587465254009 -0.46831975596000636 0.010046585602724633 -0.20133923190555647
Ni 0.13269628477277598 4.834162845038461 5.965188494140542 1.6366364886474847 -0.3241009232165257 3.370060356029364
Ni 7.372880221479909 6.150365287449783 0.044242246250028885 -1.0345718028921278 -0.10109371941923236 0.3600464880731993
Ni 5.968352016389662 3.3884294857990778 7.750991266682435 0.7341204007737421 -0.21423357136972138 -0.45926715883943486
Ni 9.037660733884785 6.517068088182172 1.7178230352498909 -0.02105862044251212 -0.7398076809665066 1.8286832395075217
Ni 3.142628974990058 4.641149228234607 6.124312371284401 0.3945545491523979 0.9677629727976946 1.9219957723194385
Ni 0.19532165914488359 2.201453420442709 10.014827352526565 2.4168786234799535 1.4542005214043343 -2.0416166040085804
Ni 3.294151354827614 8.536831234293814 11.71613141220491 0.007474454000174224 0.25997555349152646 2.393687272965155
Ni 3.494160157934949 6.71494511287776 13.377334043699678 0.09393653954916081 -0.3550176674000402 0.3278339078963967
Ni 2.171036357043928 0.3897666128823387 5.555702469525644 -0.6769303247159955 -0.7090619151432176 0.3264339422250765
Ni 7.730031547510315 8.933175906275258 6.800030756940388 -0.06747911668858056 -0.837328852543132 0.18163198328461624
Ni 7.175436935249048 8.377372363399537 1.8466378221872521 2.338627355876534 0.8878533436552452 -0.8713486611320026
Ni 5.431614509006018 1.3615880970821974 2.5314194960604546 -0.15007426308299318 0.43225026393095883 0.49608587032968116
Ni 8.366178219618371 8.558296674058852 13.112492414289111 -2.0061364088240996 -0.4485186620736792 -1.000910920304573
Ni 6.568562995271128 7.3937181247427874 5.372752507951272 -0.6713662003646568 0.24335517132602605 -0.7731019242432621
Ni 2.3339835926119723 2.7467549553852333 5.443663209847477 -1.763497289728492 -0.9067059575853739 -0.6708555792768253
Ni 3.9037938381974135 9.164773789483936 9.684923107711237 0.38271898997005055 -1.3831925656268886 -1.670750142501742
Ni 9.205554433646318 6.209852056463296 11.951136449481194 -1.6320398704157375 -1.7923687213472035 -1.884771083640025
Ni 1.9989344713267363 6.735663045926991 10.625983306283926 -0.4028126753961321 0.2858907306953915 1.3214025289032856
Ni 6.824644030541991 0.3238955828071513 4.385175243308228 1.1607553754004523 -0.37111354452063827 0.37363528250122746
Ni 0.9863581827028197 3.0053553651427083 12.144581036206382 0.054152574783003504 0.4322829169411071 0.06436396809836657
P 5.062004737712156 7.5804471480470745 10.83656794514824 0.1248180596193657 -0.12522352258790048 0.34405242663778807
Ni 1.5555245616833442 0.21867801404657483 10.18194678298617 0.3298187995369094 -0.9236230450556867 -1.1473686696809013
P 8.731496748654822 8.68473605076598 3.6499184091620798 0.3302620577219151 -0.3276102219213648 -0.39794814821497915
Ni 5.294663895887721 2.5839461469867833 12.079910631115473 2.3467394434607067 -0.8436699642698116 -0.41871083468362724
P 6.578723549519324 0.8493531215644821 13.363084350861675 0.2503413728358721 0.1310226457681808 0.6626247067266008
P 2.385561556002684 8.93088724373797 0.6896496960039232 0.535358956897691 -0.7033558658973758 -1.082891315933122
P 3.699669133914151 6.919651211273317 6.572279303350827 -1.4516044785423836 -2.034004081768645 1.191088222056039
Ni 8.94735084844168 6.370399887758378 4.438473394993094 -0.08899539349380158 2.773645412360617 -0.9512858010782776
Ni 5.324342681048668 4.291417598494438 3.082618951275479 -0.05715279506190802 -0.7432802128961393 -0.8894209452526811
Ni 0.8326560363680579 0.3498940509524927 7.734755605384658 0.1585643028318753 0.3297974593806707 -0.08569486836565887
Ni 5.509585919399313 4.379743361173361 0.4928976227732354 0.37708673138493765 0.5669087066795141 0.15665294474177538
Ni 6.613902507552138 7.718449807654286 9.074118758964644 -0.9791830417091782 1.207348135558327 -1.8711321527003517
Ni 8.86297487433517 3.9897571105152667 4.065414941480747 -0.5673475939891455 -1.6605379778554303 -2.1543646198372897
Ni 2.0731498911850483 1.3156487337329463 3.337721767881213 -0.35261008639981206 0.09196270365224161 -0.5792222339395444
Ni 7.224726236102473 3.5798373474356406 1.964957061125999 1.643411345477473 -0.5353108772685748 -0.4908673022432192
Ni 5.64102713116777 6.251066439090407 7.360387630847952 -1.0235885644077467 -1.8378510220497188 -0.5910235974498467
Ni 0.9260039367598504 7.352503742115676 6.6324655909946895 -0.23363434449383635 0.3053190146233322 -0.10751942043991805
Ni 6.84264879106718 2.5971982413559123 4.2216207738895655 -0.6230513153093528 1.14771808260052 0.7326453588901124
Ni 2.9630981645046566 4.04297774298516 2.9604089860233445 1.0062647284173185 -1.5207918361713229 1.9264499514360502
Ni 2.2042035068786423 5.017329675845197 1.0819061522433588 -0.8388730571018004 -0.5378621829355188 -2.016515180955263
Ni 5.602470550196864 8.035475711458387 3.206516805148863 -0.8450462757920478 -1.0855886602596272 1.5982848854524796
Ni 7.27695019295129 4.023025773607683 12.099332885857304 0.44776044375141594 1.7901889400870654 0.2929304111509923
Ni 1.1322327340209413 0.4752278559984643 12.399873036610561 0.40872749821867027 0.6086909328226227 1.2999451303604581
Ni 8.076745464953335 0.3897315446660416 9.656883300238283 0.11961517526218755 -1.2123972679464603 0.6275831417414353
Ni 5.34065863010481 5.744478369244328 12.008796902703864 0.5365362650352438 0.15374065619098684 -0.9492096352755394
Ni 8.514978198453912 1.627829686601259 3.0426661015872685 0.7190308534304714 -1.084898061950506 -0.754208943993501
Ni 1.7040846000915886 8.061638446511648 3.717141411260301 -1.0283304499681065 0.737037317310221 -0.4426197800907409
Ni 3.660540387308923 4.081229784182959 12.299544715480044 0.010024217005221447 1.9347453586756227 2.0826794354871616
Ni 6.789806526194177 5.478412120806752 9.324872193901736 0.06664556504369168 -2.3332185261561365 0.12208343429702198
Ni 3.832319276297062 4.225858490974735 8.300285964043846 -0.5826654552931385 -0.7002546012642327 -0.40208608164275267
Ni 3.4661886411989946 1.0015021150563994 7.397950304741173 -0.6371296477792898 1.1002336638663115 0.420247840153444
Ni 4.592302894323883 5.879195690693177 4.596759326337011 0.6357664488831761 0.30916975582799017 0.5130050146825229
P 3.785106382987547 3.2364825959747674 0.9571897323737764 -0.2804024538873106 -0.5780814354668818 0.1804464476169473
Ni 2.0236944777281107 1.8658782759130161 0.5719220025032415 -0.12737296483073549 0.861966191475838 0.5502189047286589
P 4.971390312495945 4.0698418423643625 10.105106783992357 0.991861151397479 1.2590756458396057 1.2953978773094077
Ni 7.160717512882223 2.896385497238338 9.949819185141846 -2.041682938470142 0.2782674098221788 -1.5900591551085779
P 1.9058837279256724 5.3222662735047575 12.28062172139655 0.16504811078400608 -0.38765293693655817 1.2210947957204583
P 1.1244808125236792 5.222995535949939 3.0833480010353407 -0.17917477999337528 0.9928556541002643 -0.1259801982482669
P 7.70848305144352 3.2554748036430596 6.162347543249837 -0.2511178459905804 -0.13822841948800066 0.17645969505505738
Ni 5.305738069455238 1.270189251238288 5.944118033232746 0.11176816841394299 0.2428224387510076 -0.5389330474021944
Ni 7.839499753225223 6.548288029164598 7.088265655164538 1.6404972571544714 -0.667626016595934 0.5523508634699972
Ni 7.96329055675412 1.717022926209638 7.70088063128942 0.48315013610461954 1.6481925689162 0.13825001675455545
Ni 8.608767220092812 4.070801604073547 8.104262017725224 -1.597439763843365 -0.8096745811609732 -0.44971782458810294
Ni 4.883479831325803 8.449409862456237 7.360698630555639 -0.23901566341040775 -0.6823453250839796 -0.7594719921646533
Ni 3.925951413810421 8.043227632955649 4.915196264423173 -0.2315270683428464 2.4212978355935717 -1.216743717840614
Ni 0.36092946491252365 8.843770411673502 1.4390159501228863 0.9007397126996101 1.1414327638124406 2.2786723154791404
Ni 4.605324276743688 2.0258170276618848 9.64865795782101 -0.007538217358574114 1.2831805093076094 -0.18726758430383877
Ni 1.1065221943883552 6.99094120361421 0.10357120829020551 2.0789058273773424 1.742329654511941 -0.1722633975855227
Ni 9.14781184696969 4.365780674000317 0.17765096952231518 -0.3612003991719844 0.49499726525119275 0.720581742857359
Ni 2.1699289396871766 7.4892144148066775 8.625989405685896 2.064087274307271 1.313541895208286 -2.7996644621321978
Ni 6.126758840795024 0.2250512009346811 11.309900271771063 -0.20858100106963431 0.2589075172383283 -0.343842367509511
Ni 2.432026942596392 4.350027662100523 10.403917517973488 -0.2169823377594521 -0.845562296196518 -1.171401285150073
Ni 7.034001281835907 5.084448396142324 5.0833289817642076 -0.9872593909594095 -0.28343866961047315 0.9439704983637872
Ni 3.2685792423646216 6.440259466013467 2.5926319904549064 -0.3221085753768453 0.6403880068155874 0.8280674818458642
Ni 5.037761526077265 3.737552035993033 5.374954422795613 0.20179046051036215 -1.3850239624086729 0.5750544757150999
Ni 3.113919180016269 2.098325179095204 11.566408585572075 -1.5048263139810019 -2.8507139725098454 -0.9782155355895863
Ni 9.082068169890528 1.464734795385648 5.542735535125878 0.04200256968403089 0.11345069832268848 -0.2938634644882229
Ni 0.8797314253557766 3.1993287436557467 2.1890217377653736 -1.0218569264286208 -0.35425122154766087 -0.5373497620754746
Ni 2.0753924113324707 6.120289677736 4.98857835272053 -0.20800507396150628 0.5068253682343723 -1.405597158574334
Ni 8.112247419715201 1.946765885345757 11.71194445174859 -0.9524008885193274 -2.188050185015193 2.745688779246691
Ni 3.777742057565148 8.779392549334334 2.2637013500657237 -1.2010239931125122 0.5300084912190549 -0.3655229378067382
Ni 4.249538765453276 1.084475360511023 0.23689964380412726 0.7323663941971129 -0.04190923863927621 0.04795313084051096
Ni 6.0286324345088484 0.670266200869579 8.484951499673388 0.5966471142842112 1.7671659968293307 0.3173630902720599
Ni 4.147158030821579 6.243683656712062 9.313688201446341 0.44972168124284484 0.6424173785407904 0.8924728447051276
P 5.278837056164144 6.30636347910421 2.00674730077862 0.15994498522948583 -0.38444908528727983 -1.82502533103996
Ni -0.03872823066120257 7.470369862785952 9.051345643870842 -1.2673792806092947 -0.05409241096902942 0.20323567759732095
P 8.784182129402286 4.415909766349278 10.252965458074659 -0.1070856753366091 0.24257098486183387 0.5009951347058405
Ni 5.408266459734503 8.077576027970899 0.2573158056236427 0.5422016908511371 -0.09271372288565323 -0.4712520991154529
P 0.1366857558004741 8.261490365493442 11.207410641099285 -1.4607493782664456 -1.1602275279214405 -0.8410489817071968
P 2.387997874187538 1.8021833209438458 9.102820248308257 0.48799846533585634 0.6048216796752036 0.19730851347960857
P 3.8554458420972275 2.2114201766534745 4.207816816537655 2.4330416063930613 -0.7485535454799366 -0.7691118292472625
Ni 8.70198407609739 1.7246456490152788 0.5838165877625524 -0.7033391537268275 0.6929033031054841 -0.330453862017747
