# total energy = -340867.7747786974 ev
CRYSTAL
PRIMVEC
9.27657850087091 0.00000000000000 0.00000000000000

0.00000000000000 9.27657850087091 0.00000000000000

0.00000000000000 0.00000000000000 13.57721032695118

PRIMCOORD
 96 1
Ni 2.043704476807375 1.0254422743194258 7.591303488190292 -0.14326803879443714 0.5204241899647296 0.9142133217060125
Ni 7.468137426544691 4.829340432955387 3.8407484394413323 -0.18939671483169962 -0.3553814784973621 1.7923160137323968
Ni -0.20939557030491163 7.780025275441421 1.3358226791946892 0.4810433741742619 0.9120368828799841 0.4954880888446821
Ni 4.26425764792388 7.0096054232397185 0.6553281245640034 -2.2790680082556616 2.0850240244599383 1.0113110325919745
Ni 2.3803978968634953 2.3412414586197454 9.82017867796315 -0.5272880069640984 0.8813124572129338 -0.02124605386296986
Ni 2.322224472502786 6.088738019406383 7.063883612248958 0.4896018052672343 -2.2886659363567423 -2.135209387065078
Ni 7.580142836484286 2.389507497042448 13.292672921657084 2.109952412270502 3.7870794048328653 0.5242520483512519
Ni 3.486175341803833 5.330090145440009 4.346594704205299 0.21968045341690554 -1.5047810625653635 -0.5405459004152691
Ni 3.0791654560079302 7.404537203706703 5.143577111552026 0.04983594968552062 1.0693871107991 0.038445962681024105
Ni 0.15967496435872644 1.8291557670936969 8.938366597666894 0.06091123366307575 -0.14151480354875628 -0.5396107901955094
Ni 3.429449063703731 9.277691783070027 3.4504447440347144 0.7056606027711525 -0.3799596820573585 -2.490773413886891
Ni 1.0668993040543975 8.108657348699667 6.307782159106539 -1.280518389094414 1.1153257823127436 0.1730506693735084
Ni 9.045100127991724 6.300865542107122 3.233955374079247 0.5933247347791974 -0.11086828230749293 -0.8160653151786655
Ni 7.6865080866389475 0.5014473111948636 0.8394422352276711 0.08321812469039216 -2.3630469223714785 0.6578511965973572
Ni 9.181855449619146 1.1203138435965696 6.468793878440608 0.9341643109066428 -0.18222205146013135 -0.3666753062436266
Ni 4.321058138652731 0.32911723831869516 0.784309673329957 -0.5440618839883276 -0.875586353362434 -1.2246593731432651
Ni 5.476771406162626 2.6371457625996357 0.5324116028825706 -0.5536199599904078 0.1123752058703226 -0.1034107975881832
Ni 1.1153323208917856 3.9796336635138543 7.750645423377508 0.8855570914219006 -0.44217960722952876 1.7579300800533597
Ni 7.375121172986274 0.16898401097744295 4.854735066855473 0.9625104661495036 0.4853566568376351 -1.4938903837947886
Ni 8.396444646410124 7.174209033805246 11.098147974758612 -0.6233858158306361 -1.772979003966682 -0.3924639851719564
Ni 8.105364163298926 8.276043932843287 7.34933042918024 -0.0382569865986696 0.7656696363349329 -0.4708888022387632
Ni 5.015141025607378 7.354369466672304 3.650097123842727 0.5594669056894881 -0.06403383845245746 -1.087934020563352
Ni 2.490362459512489 0.8325979755412845 5.343853805099391 -0.29350171027342997 -0.38163629842883307 0.22795452050023968
Ni 2.6375539320577563 8.018414792140751 8.001321768424111 1.434893079324974 1.4732973901347852 1.51983435735406
P 4.519094538469731 9.046482338202175 5.310264241669684 -0.9573695453785125 0.7801225785354694 -0.6856659048167804
P 7.244646095066745 7.7813425496017175 13.137933097110174 0.9707284831839216 1.4143435373083966 -0.8695656010896509
P 6.354641868214445 5.962214763967744 10.310017278705933 0.2296748456254561 1.0362221940113572 0.421217660265881
P 4.624383705507531 8.986648406273206 12.134903036672979 -1.3027473756959436 -2.3173561052025833 0.20213575966492286
P 8.89131300806638 4.942023033132318 9.292500913136914 1.7024289616622614 0.051293508067653586 -0.5823270981171133
P 3.1790927606186075 4.772456453019194 8.692972336471508 1.0756104660009926 -1.9787271635732113 -0.5759294221208856
P 6.304613279858951 4.5167846703999155 13.284024367434236 0.5078247560331641 0.23508701777996285 -0.32016173606311954
P 7.181732339044686 4.363461379404253 5.9592277056605925 -0.9727455136139505 1.408034050150601 -1.0396453607602936
Ni 6.090212995402771 8.204725596615392 6.261796303702153 -0.6688706876363125 -0.7499121163903602 1.2734216301486327
Ni 4.022185329522876 7.784978968410423 10.321028577496584 -0.06696309628411047 0.6563435017035794 -0.5565229925698157
Ni 4.723531777516343 2.56286819780037 9.236684667396847 0.2055275589552912 0.45450804688789465 0.051306106473143896
Ni 1.9213927880502475 6.076947488013868 0.1728430676723967 -0.6415020658153726 0.003097922199033374 0.6730477018321376
Ni 5.298160161920705 6.82477887134006 12.173571526882704 0.9355789318659823 -0.3128857712269967 -0.3410545203517288
Ni 7.04496774083867 4.061833426432088 9.587438597627347 -1.035345704943675 0.5926328509184955 -1.1335281642533834
Ni 4.993248300126391 4.455002656966281 11.17570017180143 0.3355022230749319 -0.552412569945868 0.008900130703107252
Ni 8.24252765438447 0.2106135850742564 10.421242528385804 -0.28736063037269866 -0.34174229044737275 -1.476206079141148
Ni 8.87634988679484 2.3038754000445687 11.158987487807131 0.4885473958607909 0.7553916514476926 0.6609216079925649
Ni 1.6530955819650264 6.0955841344084885 9.26108299675598 -1.6160828328658492 1.0292766159314595 1.5507562437438969
Ni 2.8505998360392644 3.8312826186443827 1.7581806642737667 0.8229077920217958 0.9467663159413695 -0.043778687747847184
Ni 5.434600079875943 3.880235123883015 3.432020531289888 -1.1291968838678812 -0.2760719448327568 -0.4193998903308519
Ni 5.172657330127365 4.244081089482716 7.500091529168339 0.2363075204506253 0.9298829099224696 0.6659817961242918
Ni 2.20208350313657 8.574527125672208 13.015629757273782 2.5761898317801823 -0.3989781321413903 1.4043563441886975
Ni 7.111119022789908 2.1333255026005196 2.494282741626161 -0.4578461101221922 0.6525554954160567 0.5094147262281034
Ni 8.533237074351922 2.532459573170422 4.454764248896424 0.43806764194368425 0.3716671030312631 0.647035336928776
Ni 0.9998389174009826 4.321642563104129 10.85225092300345 0.5662818717287925 -0.48083614325946217 -0.30608726024792443
Ni 2.1567766932852384 2.0553651360995793 3.198777660394309 0.24622606511591788 -1.0039311951881353 0.5019094189899936
Ni 6.354549102428509 0.8156348239249566 12.416128082686296 1.2611142735361895 -3.5167608175441174 1.4365743236821389
Ni 9.440031908458707 4.799590445405587 5.82473215857858 -1.3224525674343546 -1.2944239434319127 -0.32256288930544447
Ni 5.717424408038803 0.6013059691239477 10.157369322631888 -0.8079475711675376 -1.1221592602948094 -0.8664136857242304
Ni 0.12982478976011552 2.586235899277746 1.9692116953847367 -0.05442742571094498 0.03710487527209738 -1.3500505316572813
Ni 8.212536475791236 4.6223985176884925 11.903072988697213 -3.193069985281817 0.09298137472474309 -2.442951409307606
Ni 8.117572140728155 3.3207553923220656 7.438342911417641 0.66851356140721 0.07430308158894947 1.1572440198130844
P 8.898112740175517 0.8046494995543694 3.1055832965268952 -0.2470125655729552 -0.3616184605460095 0.5301056789185515
P 1.3554472812095322 2.6315427091290777 5.797780914790481 -0.8978670191375053 0.6921983066186594 -0.4356150666381336
P 7.185684161525576 7.60021735256092 3.17497674269661 0.14602014761827756 -0.1282481683468372 0.35944202171998096
P 0.1546498417345523 1.3157156950929774 13.531632020282064 1.8254392786489273 1.6501142114189455 -0.010492929111523865
P 0.34674737593590566 7.916279661824786 8.641106985554472 1.2441825307778573 0.08166954925634967 0.7967830699102858
P 4.251622947879344 2.042424308961453 2.137486975757626 -0.9922265051566976 -0.10857820072173559 1.761007947647735
P 2.247510908509619 8.2306721869418 1.6135022168695168 1.244700093844224 0.8891198690724946 -2.1247923054968116
P 1.511701971040784 6.954029440885229 11.770613650616502 -2.9127559773432545 1.8332978554613975 -0.6100898700526783
Ni 5.242843923766836 1.49326013279663 4.099109502194906 -0.02918767730754973 0.7357399386550362 0.7455782649016967
Ni 4.384426447025877 1.7887655438969936 11.891341827407697 -1.9826959184129724 1.7834392800680576 -0.10980718803283024
Ni 6.430051175602135 6.628486468298662 1.1450368532064765 0.03431111457704413 -0.2059942141790646 1.8479158624848884
Ni 6.550841505469905 7.764746750497697 9.160747522687181 -0.552138747459191 0.005110838864004101 0.1612678178059674
Ni 0.5103055160939293 3.830132322898772 13.144708710114967 1.8367996979670689 -1.3571303213221981 1.9796157368257519
Ni 1.1864929552835888 8.474599821061531 3.349606479406142 -1.8602622998653833 1.8690521302428715 2.0215015784262604
Ni 7.503434808093486 4.376624844428627 1.6468478062822107 0.47891655763924623 -0.5695104059684192 -1.2297139048480368
Ni 3.2089169607971564 3.1830631362566852 6.7727066527203865 -0.18293758946991717 0.4812290078225067 0.058937140655840436
Ni 2.105161809990232 6.511221238296475 2.7674427302101674 1.1357382845308246 -2.4670189917797707 -0.5024570639633475
Ni 7.971187730520534 6.916848913881924 5.2612096940665225 0.09992309614989889 0.056622890700367 0.3195151036180562
Ni 7.025700287099682 1.3415602430548548 7.055980894945038 -1.8281600200141999 -0.9968380357867801 -0.8240110523883035
Ni 6.667986139950377 6.138766607761878 7.391229951714129 1.4943246431187298 -0.6961171820570914 1.0716586804420962
Ni 8.393439034945786 6.003866601853182 13.648626374189318 1.3483790574921295 -0.6106565411894257 -0.08656775788891542
Ni 1.303702525814215 4.169794248104856 3.650382842463411 -0.5947714945280531 0.5027977351322179 1.355994150835226
Ni 1.728848122760681 8.966889293868755 10.293358398867477 -1.0984883990404308 -2.306400634632344 -1.7013331574949215
Ni 4.095971235656679 4.876317026953574 13.486786256386834 0.40316594497049274 -1.4632029820132608 -0.5564358321726481
Ni 0.09177597500044667 8.845356837713492 12.338561970775585 -2.1735643326941916 -1.4603991940158785 0.8612971904332716
Ni 5.521781365498961 5.939199572476926 5.402182148322614 0.020405560239545505 -0.7815564827685185 0.007614322012148176
Ni 4.562657351545459 1.2129033745396784 6.996268486195644 0.09711185195334888 -0.6355291360613894 0.07497002574898702
Ni 2.933903511810141 5.673063809204022 11.397837122804706 2.142787456522652 -1.516909470397781 -0.43799102306947796
Ni 1.5795879731890328 1.17306046948 11.80541195223696 1.324938309970686 3.82014456281795 1.6143625077406327
Ni 6.5958607413848345 2.6050395240870516 11.22430666065852 -0.6580093194417764 0.7504654177906688 -0.7596020899846143
Ni 5.956565327604218 9.394576673349878 2.3681370429362825 0.2747905070171719 -1.9073433125135861 0.5505773165093422
Ni 2.310795727675423 1.602844355723285 0.7593797960174121 -0.9109904438933407 0.13828884041229086 -0.6860834519701732
P 7.206361655210798 1.845566034625844 9.082719437162506 0.024970811012724737 0.040434196755646495 0.9274359910438738
P 4.391151966506265 5.518451073783845 2.224449334125833 -0.3127811273283323 -0.39722952488139973 0.7872098243995539
P 3.4270093235336043 0.5625233769975221 9.233820059927133 1.704563234396445 -0.21485757810696546 -0.4717046132718392
P 5.213474275939375 2.977206580685247 5.769703494361114 -0.42055997207722406 -0.031058926188333606 -0.6646764470493068
P 4.759209498787478 7.065255618222959 7.765472178943719 -0.33764420911859916 0.06114160450632696 0.08460394929432527
P 1.129525486140053 6.4047446691986885 5.058746510944637 0.5274546144489497 0.5303748734195382 -1.7036348090449047
P 0.789280991798288 4.654282118314828 1.6370174159465316 -0.8276121394760004 1.6725514573765385 -0.4538634713253603
P 2.804903409887 3.244631788382666 11.842939423279667 -0.4398162492036748 1.1025533131384235 0.18983200259690533
