# total energy = -381170.36885733606 ev
CRYSTAL
PRIMVEC
9.24301162974229 0.00000000000000 0.00000000000000

0.00000000000000 9.24301162974229 0.00000000000000

0.00000000000000 0.00000000000000 13.52808181806030

PRIMCOORD
 96 1
Ni 0.5275680074390695 8.096490152167007 8.039035590663065 1.0436025456358287 0.34249716633552624 1.5946431749348344
Ni 6.420075854462457 2.5057158046634775 8.444540383941733 -1.0673094023344651 -0.31976372929375246 -0.5459133353747695
Ni 5.834346195114837 7.719976065477323 11.320623672431298 0.47214092947830943 -0.4692435533258564 0.6648489680714291
Ni 3.8229651488737897 9.022954199429899 11.198072427246538 2.319706093491998 -0.7556793578914405 3.6133085694638805
Ni 4.498878874597532 8.219348265344356 13.243397510113564 0.35207529694226464 -1.7434635110060683 1.0815258030441632
Ni 3.5922595737228256 1.610973773983844 4.11432244331895 -0.9803426092349181 -0.5170246773648773 -0.5855669452106496
Ni 4.962508347737449 8.894060399530852 4.68192008636955 -0.7756496303657803 0.378912985960399 -0.44350886756391367
Ni 6.36387834256671 4.470475099259433 1.956227994681519 -0.2239076041243757 -0.7502039365991661 -0.21961129074186694
Ni 3.0356361586119993 4.771769555717606 7.115568127833825 1.085624141483253 1.219780447784409 -0.6119210097241461
Ni 6.685701528288115 7.431011786793645 4.845989092069659 0.8505353239310771 -0.6935247387395669 -0.032212580176802584
Ni 0.6772179146922427 4.291595091411012 10.283398765867565 0.2949942356585565 -0.020984058450834828 0.28173994175181155
Ni 3.377100744461442 3.1814169411152444 13.388012748825682 0.4465054882983923 0.8862502608341832 0.3467292021390029
Ni 5.846888962161305 3.527576976971766 13.266935764027 -0.07860145185398722 -0.27358414541389653 -0.6533587080436426
Ni 6.068323796451836 0.9736865946766046 10.900036132456663 -0.40877120697241215 0.44080329570729243 -1.3741836772600593
Ni 6.062777989356862 8.25512796411877 2.454941167805433 -0.18338316164776805 0.4269609905075614 -0.8289624828563078
Ni 8.26325257151291 2.1283698469095467 10.298319759856595 0.641914727872759 0.04823363819540725 -1.031702708874449
Ni 1.8287114035443914 9.195206967799827 3.3458732290108193 -0.8920820370246121 -0.04651562706303601 -0.3964067718697883
Ni 0.9275362366345866 1.0672351173570096 6.055142337288263 -0.4856947569033442 -1.2574553366273635 -0.7751518647937554
Ni 1.7083673895834317 8.279085850769063 1.0893924653038 0.3391310780767708 -0.39698424163981305 0.15993212971367943
Ni 2.78706384160339 8.083531449588415 5.169878090933942 -0.5372762285250618 -0.8848019584234309 0.5950226913069107
Ni 3.0339816594953315 4.569763532283138 9.593912601580055 0.16053608184626547 -0.3105057010305943 -0.9698283399671557
Ni 7.3900929734445535 5.877973210928641 11.377942361661413 -0.36698820949835503 -0.3064628984197883 -0.013709893386924776
Ni 5.188962137448934 0.5665365452930945 7.393651532997163 -1.159534615619474 1.67771628940693 1.224369609816988
Ni 8.102507352865056 6.575053433731537 9.050300574215221 -0.38259609123894106 -0.058301306844054435 -0.201252328618705
P 6.827914508226927 3.604173815965197 6.141221582112919 0.0006144936555473289 0.03753964881667083 0.2201980164832724
Ni 5.338985462379836 5.562194954940758 6.561931129843644 -0.12144940025744892 -0.5443953560683463 -3.1349185737520657
P 0.5082334753036212 0.7004400576012685 9.330453489726166 -0.8297276431571065 -0.3300036618542059 0.27096624817507525
Ni 2.4583638550842153 8.98707282752541 9.755776224658728 -3.961737785013125 -2.5384344674082797 -3.5507346033864007
P 6.754691368549606 9.130616801167017 0.16180261920062874 0.13470086595071643 -1.8808370386929414 0.32875616260034995
P 3.0964644194320514 0.589592313989271 6.376325906591382 0.9543922079177434 0.46825085039528386 -0.721583444648996
P 3.512834373110957 5.601061819664709 4.98361014373383 -2.397651656929542 -1.3159705592544366 1.9299561648170955
Ni 8.248870445113274 3.2891534869469607 2.48118577558122 0.4252396369410805 -1.2932214384833791 0.8967071945014493
Ni 7.884150441512236 8.912648096310845 10.402270368044809 1.054799957013545 -0.9621746800766398 -0.20728439374539784
Ni 2.768319013622374 0.9942707820107871 12.885430450951839 -0.7907440628050575 -1.0876671400552107 -0.571039698128752
Ni 8.04243701901465 0.8835810939009964 2.714341673166981 0.47088237448086 0.20169507258307845 0.7270074438780447
Ni 1.2757574641280736 3.6584118093540536 1.1435934866453568 -0.7078987480730519 0.1618637995187535 -0.5360575256266122
Ni 7.716648581220338 1.302885703834327 12.40584661510086 0.1796074966554197 0.7852437018121187 1.1414600175059504
Ni 4.210931327214598 4.96687104931883 1.7367619219097044 -0.7454039441073614 -0.40213493260281713 0.946775314802434
Ni 4.77750022304908 6.523486670760094 3.7840613121025397 1.1595788385938481 0.6089030488334287 -1.8516686446591013
Ni 2.7954195242931523 7.190212842729826 8.011451670473841 -0.4339790736966075 -0.3859225845090128 0.29823433986240894
Ni 2.2250147785513126 6.820215079376736 3.1243237813736586 0.5208121694317676 -0.8914875979737227 -0.28898865289442494
Ni 2.54315000255456 2.9682823314435263 5.737422124515957 -1.3769802661685897 -0.04531826432082518 -0.08073675302943514
Ni 7.792459764208647 5.678398099604137 6.812755968833995 0.22694510539911883 -0.6409724185641478 -0.6327389749107619
Ni 0.03668089242734785 4.185577745778738 5.518510632453639 0.2946052277502539 -0.2665616913494764 -0.5183585656849524
Ni 3.964623548103104 2.925533401753093 8.203253408853556 0.4396450137331331 0.24968085643373772 0.19714370576697016
Ni 9.113147508817844 0.5250733185475132 0.6143876175109048 -0.0816546368580142 0.42921096288400273 0.16834760747088426
Ni 0.9625395224157044 2.5770718559521573 12.533741245421629 -0.926686771582675 0.7412086750790912 -0.3471452066304989
Ni 0.10445620093503863 6.035954769040831 0.8909015592663636 0.5254419548942951 0.4779739912203187 2.6386249582869525
Ni 0.26624218271438244 5.372805642647358 12.454574849140858 1.5475660189413734 -0.8309430036214464 -1.4192654000900462
Ni 0.8930598025274914 2.003478271130707 3.9068833775337706 1.851052351231341 0.8803174402895162 -1.254692943390878
Ni 5.450372997882409 4.928262988925979 8.593863088576303 0.4624648398411261 -0.986282885978753 0.3938852909995152
Ni 6.706221014539523 6.476550656712954 0.41377359165727523 1.0486596484437618 0.9131933650819304 0.6361991655452204
Ni 4.9345297509433 3.679975755941682 4.025619107437188 -0.6527732678538176 1.2409462832287468 -0.11955141190378765
Ni 8.644563781339748 7.9440081860906675 2.2456747585824597 0.3052493377276614 -0.7029113221607893 0.288325051168497
Ni 2.3885698727939535 3.730987938203628 3.036391312678098 2.0477885371472477 -0.20877460513767915 1.7157830143716644
Ni 8.440672183492987 2.364251508682488 7.02992238026376 -0.14334800010275311 0.9809573600007815 0.7224463068699235
P 5.120221858506717 5.787068189630174 10.411036440459599 -0.356768845763192 1.14323125047376 2.102909132270475
Ni 6.880368600333567 0.38747722301526827 5.979412492804013 0.12523766365528755 0.8736307722979599 -2.6113015878816515
P 4.3140093950865355 2.7021667779911462 11.392701602943507 -0.3939274570913603 -0.4351216719414829 0.2122185978222216
Ni 0.44745142954269407 4.924140605652048 3.078153088705626 0.13007210892945342 0.6522497912501799 0.658516340985182
P 8.216834166127969 3.769069146922457 11.728589879758953 -0.44472294247667277 -0.35583656375690975 -0.9995217532665303
P 6.474951615667236 7.167493519664077 7.763752818082692 0.16168407940777962 0.22933931666290824 -0.38462366319193114
P 7.803560621410422 5.898076761647926 2.4526008372113535 0.11823089332015121 0.9296831352068375 0.16163060046202485
Ni 5.044484619613007 1.1235527884064818 12.955655157593144 0.7036726258068462 1.758568999188939 0.2322642036191871
Ni 2.2509691557557963 1.8510887351726162 10.45417727385141 -0.6236758362672291 2.6159036054300366 1.315675139501205
Ni 2.579752329381395 5.699083960068394 0.36430684097246224 -1.523885387494982 1.1768749066701345 0.821668777408372
Ni 3.146857319901725 6.788594735923554 10.458140677321952 0.7182145281767631 0.8267225377821955 -0.8069384131767329
Ni 2.075693922519108 7.742482799271097 12.359742472117967 0.09822771072534696 -0.9700103740709747 -0.08816492717270623
Ni 8.469066715819261 8.004975092088094 6.294508614519214 -0.07712923818383491 0.029801399632148676 0.4185316287932857
Ni 4.779755517934371 2.4976928703994137 6.128532775479616 1.8422329531674981 0.10457087933455539 -0.6963418964733878
Ni 7.970027264377926 4.105071112783349 8.889451833834928 0.16689030619906742 0.8594519096944166 -0.25759445485385957
Ni 7.042038120163916 4.9021884525677715 4.319949878786437 0.4261233250976145 0.38664994959334054 0.3119879420030756
Ni 4.652174225714468 7.77971365090203 6.769330450677975 -0.03802455887288936 -0.8482069329082166 -0.73442404805709
Ni 0.41291953736464904 6.804677576498981 10.685222991837534 1.270774936554405 1.2076821218589782 -0.4000160864876014
Ni 1.0790199574338317 3.703545436095326 7.88649262070868 -0.6415236630819274 -1.2761881371501762 -0.7125246768808374
Ni 5.103177744701494 8.23518154460051 9.158808911534322 0.3092584588870545 -1.1146675799034542 -0.11091970437071864
Ni 1.28212589927547 6.11448339750568 6.185552915427785 0.725136452107577 0.3305785605210694 1.1005298549504918
Ni 9.24328911531326 6.773371495447846 4.541701748382564 -0.8891548360754881 -0.03475180165888853 -1.9853019885772518
Ni 8.152364158648881 2.2317621771835325 4.68355702376375 -2.3597875348939166 0.1753528351441238 0.8472150013085925
Ni 2.742244477264166 5.065198209112739 11.765968619579084 -0.7632898232488468 -1.2642304505676678 0.7627591475563573
Ni 4.248855404732404 1.1002234265602864 9.573052972493487 1.1483246058362675 2.414836910459577 -1.947510114540459
Ni 6.5114984844231225 1.7444705937717198 1.2728274293795616 -0.576992316167761 0.718130453103389 0.30225657364792463
Ni 6.056548199386839 3.792962332489975 10.6292306748043 0.6237156883662291 -0.6044390995248041 0.5360832366582251
Ni 5.943857399216945 1.5366507158993525 3.805949688405224 0.6265511009324951 0.14897768758470473 -0.6764914374063641
Ni 3.768838071626833 0.4594812094328775 1.600141888426175 0.08124351746252459 0.5839306951588072 0.7420216578986898
Ni 8.222324515151993 3.8698826768972796 0.2854306752629963 -0.6164569499212866 -0.1854842671511709 0.1734350492961207
Ni 8.714949316386805 7.720050009571922 12.92378247991714 -0.6980745628937784 0.3330236796274523 -0.7001173043554201
Ni 0.7131963382208937 0.3073966928650102 11.828170391956325 -0.42645011230941393 -0.1364762126835843 -1.3172417126573768
P 3.9943675601558204 7.298781259625788 1.5616410469704929 -0.6057048536111053 -0.8596048903325131 1.162951611720823
Ni 7.674777737653275 0.44823523694545053 8.011979446449047 0.7216952876365119 -1.234426736942674 2.4416437462397758
P 4.511477099714949 2.5663314762115554 2.0947419212879823 0.1518956325624481 0.46323231413477 0.2058772289852261
Ni 2.133758522803497 1.571321253254772 8.055783928089891 -0.26506916596434993 -0.8554908681641396 0.11549189712243335
P 1.1968591151902277 5.654061249469021 8.445892636571724 -0.04920525808005719 2.0808768350607836 1.002072544712842
P 8.759759437714205 9.009625776378309 4.393014962961551 0.5674558374322356 0.16399010183313692 0.15064736197764378
P 1.7160390893981472 1.4946874422140408 1.116794298160072 0.03525393810628767 0.0448130425496325 0.9011310346007576
Ni 4.803685675549188 5.621821624223566 13.042301923343853 -0.34668857870905456 0.44320470605993345 -1.4153655508150076
