# total energy = -340856.5127508751 ev
CRYSTAL
PRIMVEC
9.40151641533744 0.00000000000000 0.00000000000000
0.00000000000000 9.40151641533744 0.00000000000000
0.00000000000000 0.00000000000000 13.76006959368519
PRIMCOORD
 96 1
Ni 3.4412370018368774 7.779980353271754 7.7588899318138935 -1.8864489855630802 -0.9104083461376257 0.9501869115871442
Ni 5.553362844960854 7.7780436409192735 7.53958264198943 2.104856228694517 -0.17242100620930953 -1.0866433267763866
Ni 6.680849085657762 1.5353052136381429 -0.024694962797379795 -3.19395573032088 1.768011889769394 5.536666255127852
Ni 8.893383122589945 6.219178227498044 3.590662821195386 -0.10643415779553929 1.8543551903523288 0.06795862742816038
Ni 6.293920281877749 4.127416068623934 1.8927113760139873 1.7304912671161166 -0.00275776525079525 0.16219598604719163
Ni 7.5596934254515205 2.2442171467761587 3.07538921799845 0.25840718056314205 0.8936606943656417 -0.20425023490476435
Ni 7.882240645785973 5.77948811438735 0.8176056832386541 -0.06757990393250297 1.763729717454272 1.3327284954390661
Ni 3.3366169287378398 1.7303490702622115 13.327879036974057 -0.9480546957354897 0.30499994072101666 -0.5400283373489022
Ni 6.297351835317822 8.65787513992182 4.213140974315131 0.4342351555714716 0.7647352974461217 -1.1316407174226835
Ni 8.773918055293983 3.730314824235261 0.47541305449768234 1.1313938915191997 0.4189597174696398 0.799444675902849
Ni 0.8750348453994622 8.25355353103458 5.300007023797832 0.06980879326302171 -0.6148466680113733 1.7517260081251769
Ni 7.260715806416429 6.038095622541128 8.15266209928988 0.20511335423600802 -2.174448020850726 -0.6998116001895432
Ni 6.338351847789507 7.3949130497140265 9.665856826954416 -1.136306755439785 0.21778323639419267 2.164325330594427
Ni 4.187388340936907 7.05146625870208 5.544482172688267 0.1358573481526628 0.6613468684554417 -1.4659568906093141
Ni 7.911498164431211 3.4674484292092815 11.283132920835477 1.2764383054877693 0.19828887511500687 0.8611125852262912
Ni 2.736217296436371 6.521925854559081 12.206722837184552 -3.470248532915191 -0.4221969934600149 -0.024671277494434932
Ni 4.445742008151281 4.747464869938431 0.7771810435629495 -1.2907863466793255 0.36190770965165414 -2.000908070545625
Ni 2.057465427505914 3.491356485094513 7.859476754431309 -0.48538905273746724 -2.1920153403105282 0.19492715773162558
Ni 8.026779556985165 4.398395972194527 4.8859115985919574 -1.174932695342099 -0.9258825305138246 -1.4806024084366307
Ni 3.8416757845028835 5.004868984009114 8.472528947334565 0.3707865001985227 0.635428605927783 2.268580735571093
Ni 8.450731531852886 8.439271083514665 9.884284134855616 1.007509142347381 0.6777330231229489 1.1900014167497635
Ni 1.7925965095135352 4.416710125896624 10.278524497842056 2.638710061801591 0.41029458559547405 1.1532410693012785
Ni 4.187820810685519 3.6719972187865433 10.95009830909718 -1.1285062855587595 0.3714164204730378 0.4546764541449589
Ni 0.13278889615972578 6.105701926068732 9.620751172325797 -1.309250466921784 0.8889910568041142 0.468151091592626
P 1.6318399827413888 2.2047213769083425 10.417363269724214 0.8171968576799474 -0.4386065451662898 -0.5881110517887419
P 8.792251012028627 7.84128764089566 1.864158971089313 -0.7886979789093062 -0.3949222169044618 -0.7425263654492502
P 8.891625039046675 4.417969929077363 7.535935793826677 0.28792241641343963 0.02715084938317905 -0.7077588800610779
P 6.416788698064963 0.6062746398212019 2.250748380131829 -1.4615551619971925 -0.7915336485858884 -0.5588457271657215
P 2.522784073980013 0.6499879298896136 1.11259517907024 1.0372434361870202 -1.2761547128090798 1.11405822845423
P 5.4962956411766015 4.9958435283859055 6.984487036309964 1.290567288689984 1.0192845377157542 1.7030503972963442
P 4.412968322419501 0.7154553884648427 7.4113657031938365 -0.12567295142049323 0.3094908866128347 -0.507880548971764
P 5.585732265492844 6.761598708936666 3.6600544726634565 -0.8514172123153982 -1.3168455056602224 0.17493991597642128
Ni 6.682766994977694 6.5817665056442145 5.714790639994977 -2.164307332872298 -1.1755818988903237 -0.8740483194513529
Ni 5.813531004816145 0.8712949222255947 5.769225419222459 -0.4599104488503886 1.1393913079023796 -0.2028962919800312
Ni 0.6512232891280404 7.489689735274002 13.632679015037747 -0.5188745860894225 -0.3740872824369815 0.19026420503831748
Ni 1.8532832970633453 2.8499850448701824 0.9473907949487805 -0.5851221443637471 0.5244682781271162 0.8576109998309358
Ni 1.699662521143299 5.452512779887761 3.0875256353567844 -0.11099452347271206 -1.6915786492113187 4.744381587308552
Ni 4.005929675329023 1.2005830297286317 11.206915768552355 -0.665202494756106 0.44286249222916635 -0.3803013816674934
Ni 1.9213314718558359 0.3714595489024837 12.355483029190848 0.3187144620936318 -1.509063491990801 -0.7192427123309613
Ni 1.4357713608434346 7.787924634523433 2.487063953047906 0.15560136354880943 -0.7911392413609472 -2.027942448955598
Ni 5.843634659926058 4.358129277992229 9.463542777795526 0.8831870485278274 0.19932425835805673 -0.13102110310628404
Ni 4.83421266060026 1.6521284548610617 3.8596035358861105 1.272508374305744 1.2036776286852755 -0.10750887891695678
Ni 0.6394328475685955 3.4433711460311156 5.397386989214127 1.1744832665095062 -0.5573118070196982 1.1315188471328383
Ni 3.013214170422437 7.755432994279879 0.5071384711648914 0.7366398247614862 1.2661389804442904 -0.5837697441009108
Ni 0.20664250725152042 5.332427212517703 11.968769520133513 -0.5601472195859643 -0.18466819900777873 0.7860235174009367
Ni 7.140639640562645 6.524567680632124 12.55318751492051 0.3717943726377468 2.293461815083489 -0.07998007736906872
Ni 3.826388919041072 6.563424147393296 2.3224246000545246 -0.8292190789518041 -1.160018497234428 1.5566253009301643
Ni 4.206971699336017 4.05038004427333 2.9118921492323806 -1.0500243900017723 0.17852737621736353 1.3252599549761628
Ni 2.2415001085729216 8.129218478308593 9.936709810055307 -1.1564930005796727 -0.6154120535965402 0.4245858054071655
Ni 4.700006015786388 5.744420458684672 11.970077271047252 1.4509035958206173 1.3768331990677642 -1.1219635993442354
Ni 0.6847453355552446 2.6912592456132582 12.375861755866753 3.1124512458874847 0.6296842472448381 -1.3617791329481193
Ni 8.922330391198136 6.0810417488815665 6.072593546357591 1.8772007274919347 0.20529333145729803 1.2009178065519512
Ni 7.405113694871509 8.579851956362429 0.25982406435965544 0.8828232374305055 -0.4121210972812515 0.48188978133495725
Ni 5.592444948112606 3.9226792487211894 5.2026270583815375 1.5273558625420858 0.29250489357779946 -2.573221750290794
Ni 6.366688017839875 0.33451723085473406 12.156374897081452 -1.0726927781335653 -3.823235800148764 -3.3801334239946494
Ni 2.494711146385321 1.9563709230096922 3.6322457276760693 -1.4188730497476338 -0.3955927606089251 -0.8793157384978791
P 8.09866355041752 8.089779117538423 5.438144442565937 0.6149883357955602 1.3133099817031382 -0.8340018450524282
P 0.7156998278879713 7.391199450785726 11.469403282472483 -0.5682261399393568 1.353433074976269 -0.6970273525761866
P 8.315735159671984 2.1707725016422903 13.033083212377718 0.657318721132655 -1.3649996967679459 -1.791888182166359
P 3.9053992618092526 6.750721154607443 10.0061296660722 1.0053435021546298 -0.6101461772119104 -0.2648485653131116
P 7.305561039044252 5.406219713753716 10.835035971872415 -0.14532414999251747 0.8195607299264338 -1.7376492183171364
P 1.3059834286784262 7.776276155859729 7.729127551744733 -1.5760427862248276 0.6186287607616249 -0.22949846794859186
P 3.582184533819334 3.275055800174531 4.851896912711986 -1.4382856499462908 0.07109640172619369 -1.5864241294591517
P 1.330718817995785 1.7016556425934244 6.856629235436044 -0.3802748993049322 -0.2428016128154012 -0.9102587079336387
Ni 8.252594576374614 8.038117785611822 7.618000689232337 2.4853103338897906 -1.029623200637601 -0.8277820893949613
Ni 6.188839534481276 2.2040726722854243 10.804475403071574 -2.3735874168914863 1.8401223345823985 0.4095880464467527
Ni 3.44925649521875 4.9285286718628 6.267904406043847 -1.139792142885224 1.302358624897957 -1.1626032272424687
Ni 7.539047695713429 2.794299863978234 8.97349156245895 -1.5656570721151295 -2.638176300785308 0.906064210236317
Ni 6.239184654129492 4.471661988519186 12.864385224808775 1.1446782673329319 -2.0779545192076663 1.3829028023006118
Ni 9.117449459952399 0.23824664435879261 12.259795336703906 -1.7211383651463068 -0.5682611069423503 -0.316403554572268
Ni 9.069520529986645 0.92504433091669 8.12152333723818 0.6981149292134106 0.30725736929662567 0.4116318163496588
Ni 4.670861315336441 2.1972377699540977 1.4288038971326424 0.5958716695707673 -0.1133005458980694 0.4147695906476921
Ni 1.7661688472668244 5.541300699581085 1.1549490098854058 0.3370042615417551 0.423658922717522 -5.684455321721094
Ni 0.4642684971062733 0.2821846306661572 0.8587674017902543 -0.6986890565493258 0.5477046229472373 0.760220954515536
Ni 2.1004397583951753 0.743597887279963 8.739763286821526 0.1229684080051366 0.6097083183435434 -0.2076716018814875
Ni 1.8947721883812867 6.0806468851980515 5.219153043688285 -0.9529575323537457 0.8172392808821087 0.09802536490655375
Ni 4.05438509020613 8.365713620185508 11.593986535228106 0.5311071235998724 -0.23006873862976504 0.15580756602234458
Ni 4.075218850269706 9.321142711548708 2.6411491638718965 -1.0067059297197953 -0.48534971485909967 -0.8822874195316934
Ni 2.860552349162357 9.323295658775494 6.052407550765307 -0.03586766043088662 0.9328669322514579 -0.39563595514203476
Ni 1.657524925202439 5.649117288213343 7.979533177100918 -0.6059691630160855 1.450184972487038 -1.1639828811988149
Ni 4.2415598777087125 2.966902301255843 6.777700685859449 0.7996174540352874 -3.32299734110329 2.517942518102515
Ni 9.320089741726001 3.6442909503265444 9.49689747723305 2.339817519529893 0.27477610883946874 -0.5498754053463111
Ni 4.114724021653796 2.2408984115313744 9.060716950147507 -0.19195907624223715 0.6733030123760534 -0.3768028815959317
Ni 5.627804050819784 7.752480918169787 1.6571112584863754 1.1352826850506448 0.5535739372438208 -0.40547145317521777
Ni 6.846767044864431 2.9647305509965083 7.008058517912579 -0.3825606100153153 0.7644938708592769 -1.256390642808275
Ni 9.27506588028897 -0.134972868390217 3.5572667550862556 -1.4036207515742536 1.2786401982350948 -1.2222111687130888
Ni 4.586736547715108 9.285116101186064 9.294569325799749 1.0986359803618886 -0.699463215711189 1.2422002102405059
Ni 6.921603114406878 0.3101945681018116 7.560965450603417 -1.193965543603834 1.6034427755043352 2.185187004534785
P 4.945075340505351 2.7266841589343556 12.74427333319315 2.221258810556678 0.8994852714672186 0.3619329064626347
P 0.32017615793010495 2.0546449726236604 2.4640292980245455 0.8022461499073861 -0.7198860023419151 0.24231130344254398
P 8.73884099807503 4.462251070728735 2.5246700181446124 -0.6789766657220628 -0.6104086868446779 0.42826659669286243
P 2.6305630565471736 8.38320984197175 3.9882181588201018 1.5809893315968258 0.24500659088651994 2.5600217066607525
P 7.645181412932609 2.2245961823119518 5.191151567617277 0.02784324746451334 -0.12548294689687423 0.45045136032001776
P 5.416091305841601 7.826010176950123 13.12451953920548 0.2521182622306367 -0.3622797482790922 1.0346576777377148
P 6.847791810138317 0.5392155045407547 9.976545914812247 0.9764080500672022 -2.504221826082313 -1.9442263015828647
P 2.030765121287252 4.466011677238406 13.017534984763484 0.08957440592572316 0.028682455536357055 0.0011261431846432217
