# total energy = -381169.3519038382 ev
CRYSTAL
PRIMVEC
9.25112390828326 0.00000000000000 0.00000000000000
0.00000000000000 9.25112390828326 0.00000000000000
0.00000000000000 0.00000000000000 13.53995495770334
PRIMCOORD
 96 1
Ni 5.029762170463676 -0.14001668854091065 12.078371252646141 1.9947939872280869 1.2485891444859851 1.2596343465565532
Ni 7.01230582094387 2.542911991289873 5.5439479745960245 0.21635216037462096 -0.6862562301026116 0.12120360279522997
Ni 4.391471611262306 8.699248302687305 0.9073539533117014 -1.437847019746975 -0.10877309034136105 -2.601616756493719
Ni 4.432361579835412 6.528629299019045 4.522345413843759 0.7325538276175706 3.133837939093377 0.1396183578569918
Ni 6.622722482357748 6.444610589837833 4.340219458571838 2.438666408779006 0.9634301497502956 0.20011127303572634
Ni 0.7283613537763666 4.748120948011266 7.006927217385408 -0.761990644821449 0.6546517158234532 -1.712972284395747
Ni 5.563107977743482 7.8664713612885535 2.4904035359450547 0.07589716554894671 -1.85689209784157 2.5153143364510484
Ni 2.8493554774853833 0.2743069312567641 2.479044080648467 0.5120071695456279 1.1851931967278428 -0.4600307764783368
Ni 2.393534090260472 3.72189375031563 8.229692696606367 1.2088409180537696 -0.1632971895311704 1.077022515857171
Ni 2.764781700857478 1.5878999470050457 6.822851125150769 -0.03335106465661998 1.8333364220088169 -1.225211131881677
Ni 8.697564598099 3.544031638146728 12.452602350769125 1.365012295173436 0.905270510690428 0.6105878927350195
Ni 4.28060613990934 1.6596979212348828 0.08249042347798113 1.4884152196128302 0.8797561684694075 0.5939227733745126
Ni 1.3787412819667275 3.079125647044263 3.4714824726390323 -2.0379754077115675 0.9190210275073011 0.24651788532472382
Ni 2.0787830946127785 2.399732343415219 1.4862670975154193 0.7739509025071187 0.07384156857149864 -2.0479127214299373
Ni 2.3964666966038375 5.35007309170242 12.85978872831473 -0.29287847486713425 -0.020410445335551947 0.965214238233912
Ni 6.73244081432088 5.291078673242985 13.226464433375803 -0.35270675987867645 0.6079684528343013 -1.4194471770835488
Ni 0.6255415850632267 8.87695314574631 11.735322918566 -0.17618124458269013 0.48833913650472666 -0.28663712194311275
Ni 7.169408410606426 1.4559789171741635 8.130973026099472 0.20183545481568466 2.3396288005578545 -2.7187276772768145
Ni 4.347306744753706 4.419835557788357 11.555065690364613 0.38747090283273916 1.5252527001561538 -1.0749448073925358
Ni 0.5889718914502198 2.507563446059592 5.6596064533511905 0.010939015510006967 0.7509025053280874 -0.29111469809849216
Ni 7.9081476754111435 5.60151864505469 11.162921640624411 -0.1303258768114723 -0.047722502886943616 -0.30305027319381356
Ni 2.342467885164647 7.84436117466192 12.91157929642849 0.16838977356272936 0.690853619665307 0.2680891837375964
Ni 6.518887865329569 3.447227875443337 11.583390782169396 -0.5841327838672843 -0.0762244669813784 -1.0615323906413718
Ni 5.886934326144618 5.304631570066424 6.62848500756684 2.1506756010214767 0.49400919030631046 -1.2705833893688891
P 4.8105382823919784 7.35349652930241 6.412753418847256 0.9201353436174023 1.8307902585481952 0.049747503736772385
Ni 0.02151533934626107 0.7626737731061521 9.112511743661795 -0.5131898769998194 -1.2851687433822319 0.48407419058078566
P 1.0502523670133639 4.106953289211199 0.517418146896928 0.004660638700462942 0.23179857683667823 -0.24325284142020687
Ni 7.445850501308138 0.08180213984408087 2.046727024453803 1.911847628141843 -0.40084783836027743 -0.5432332174394451
P 6.877248660039168 0.5289422722027015 13.272947631586758 -0.1526602786426145 0.6387188466432806 0.01932775379433446
P 8.028634315840135 4.473714104614097 5.696516588331503 -0.28854359493720627 0.5100497887089409 1.1087401586754262
P 4.68018069253595 2.091087089681157 8.251397683996917 -0.31025270447952374 0.2510625672726128 1.1312367971160453
Ni 8.201038264783215 1.4612705601659775 11.654787257612792 -0.9624585298656455 -0.9711874250982114 0.30060078321205647
Ni 2.646200791995469 3.0430925186297264 12.46974375863544 -1.0089854697825913 -0.35979940505939967 -0.6320977417823371
Ni 7.232482574799059 6.5517571092979505 8.545972903069703 2.3059823161480026 -2.1190487181448154 0.20087000557862178
Ni 2.6163196611151216 7.819216619326692 3.7678579604639286 -0.1648308525668774 -0.6712975519102502 2.0557849250891627
Ni 4.938388817613774 0.4516130508665611 6.944141688265055 2.15567691089081 1.2475468192643997 -1.295764259509891
Ni 3.4824561560601675 4.789908275623194 4.201894800630932 -2.2604645342218617 -3.6064108139027824 1.0718497134069798
Ni 4.190185652842927 3.021019336499538 2.458409448317627 0.7972875203505301 0.708734870821102 -0.23638799597957352
Ni 0.20196129047952247 1.1934412660121294 0.09072299882486065 1.125275694436604 -1.900189475077624 -0.8371715010296614
Ni 4.273057222634304 2.3523943413363533 10.542655971642008 0.5896429150522361 -0.09868176754363005 -0.6966010636720454
Ni 1.732106469656083 6.472752509385206 8.506463202214041 -1.648802177475741 0.7273293459938377 -1.1500475020646452
Ni 8.768280190807785 2.7195529550760487 1.4016563163910682 0.8275548038755038 2.1899134634761768 1.8714774518549122
Ni 5.128147875390145 4.145715499238646 8.680939402958112 0.039093880677668155 0.3998268532949308 0.9534591545805127
Ni 9.159741507588555 7.650550124524683 9.782455024010877 -0.8739914980714883 -0.06430894649071506 -0.7665841777294023
Ni 4.211241211320844 7.367104932870518 11.04926695535181 -0.1613413513563802 -0.3331301232983295 0.41023467889181603
Ni 6.621223800251674 7.859375749094985 10.616245888612255 0.6417802591774237 0.1960558720194301 0.03642713247878243
Ni 3.0825115584690943 8.646803680098856 7.331208721092833 -1.587908170203846 -2.4246032458177207 0.1782350417879253
Ni 2.3663912921171475 4.875092626442462 2.2676179650904054 -0.5805939174760903 -0.036235842403582755 -1.8544338661090642
Ni 3.7570480219395677 5.622111647327028 7.09985198374882 -3.3994375236398997 -1.1391617083900767 -0.8896065789009261
Ni 6.578104310767681 7.722061313907062 0.3931246688960291 0.6938623245846437 -0.1802109345673735 -1.5230289530319576
Ni 6.808725583744824 2.691586806886795 0.24419544738603907 -1.2781254633822052 -0.8384747932221173 -0.060700660314166426
Ni 8.922403918506417 8.15092492547088 4.242027102139302 -0.1715311474051885 0.561928222745787 -0.6518738959679998
Ni 1.2656370385787634 6.1835531185336485 11.024813458987715 -0.34223362826149445 -0.010536637865265725 0.35344235249312034
Ni 1.5179892020939674 6.9654488773188055 6.176751692086828 0.19034853722200767 0.7576501084645662 -0.5039632161952288
Ni 8.568113618405906 4.495010192318913 3.70013140595559 -0.4043913327371616 0.003998322526115695 -0.9125225642671511
Ni 6.6927257385099415 8.599447175771767 7.931624253069055 0.5596373698290813 -0.7506911606482297 -0.4483407417349182
P 8.373109173258278 7.446720106974626 12.263678669500027 -0.3439768362048463 0.25561341986808883 -0.4319576723912045
Ni 5.040345456447304 6.776217133616793 8.560582278266683 -0.4129353656524308 1.6055863042098995 0.7789689245470004
P 2.382210714347919 0.9610807817020122 13.254235382846302 -1.0632640286204977 -1.7860335231577953 -0.9329191256456321
Ni 6.6179211489438465 4.584255786623158 1.704991424885093 -0.5320990551994964 -0.5133366869903287 1.8203415524110458
P 4.6650181001170985 5.532236976583198 2.263230156924291 -0.22835047038707768 -0.08922962099179471 -0.34014229295010456
P 2.553097478936703 3.8095389001485738 6.059685192241882 -0.5115101753045513 -0.029639677243303793 -1.2871724040758221
P 2.9098300758026676 7.958788328797836 9.41422235476183 0.025186012347324368 1.2845910165018908 0.5706447766831785
Ni 1.0169853247081848 2.0787830946127785 10.825207504706997 0.715462933573555 0.6886000477444398 -0.02108201748127982
Ni 0.1422175309670514 2.6368756588910136 7.885832113829232 0.8419473251517499 -0.20600655547423874 0.12811010010707613
Ni 1.7156302176133902 0.40578298201788016 5.173982569800882 -0.7145085400800855 -1.2872839899530217 -0.6913066480423256
Ni 0.9707852108950414 6.365679998917981 3.916405110548111 -0.46113429395516065 -1.6708121060879288 -0.6799120330521387
Ni 4.429216197637481 9.084280088210539 4.739850443055529 -1.178521698244938 0.22770898014833685 -0.7855131534234214
Ni 7.0377926678712255 2.417179963489626 2.809297184969906 -1.0585522249671253 1.4730868167858757 0.8461014565294395
Ni 3.349739529555691 5.73047006404576 9.774737736277011 0.01455501499603945 -2.7301549452771496 0.10891732922870918
Ni 0.5329776125401651 7.975135065102967 1.3218154148586385 -0.18521584398113264 0.6321447929701888 0.44677519702001117
Ni 3.0386612301802876 0.46001769712191576 11.149043104232245 -1.5649428196569242 -0.6857227261966448 0.4393115416531144
Ni 4.659476676774273 9.366208095510409 9.31766929752186 0.31591864451604945 -0.7586962903408934 0.4792726554270843
Ni 5.8964999884759735 4.3652816789024715 4.030641691527331 -0.16884588726354147 -1.4728325346832247 0.2973097711656106
Ni 4.2869894155463175 6.516686097791017 13.309897546400752 1.6660388530690016 -0.06721120773917458 0.6894662523994772
Ni 6.68881251301075 8.762405726996942 4.9979086999227444 0.7789599256859359 0.5224509905867711 0.22690319641758988
Ni 2.8004355331834403 7.112199459100522 1.679726604936416 0.3019143598171575 -0.48012240502188924 -0.616899436775344
Ni 8.661244684837005 0.39768547308302943 6.348031629450354 -0.24847269505824954 0.5373250794851262 0.012530014146210678
Ni 6.576069063463137 1.285785986893747 10.12057528427679 -1.205031057389376 -0.33431154520094036 2.1160541542928657
Ni 8.494900222186999 1.2740648126443972 4.018766948617729 1.7071721327742015 -0.7307797664362833 -0.11237880541474839
Ni 7.645517513007993 6.587614466354368 2.1944202957824888 1.2710109638246112 0.5119344073261636 0.13937487438761803
Ni 7.4102151712304 3.8750831144789943 7.808546372776417 -0.3496155225478624 0.695788337962763 -1.097779031678232
Ni 8.214387636876198 3.1380830610072508 9.795196597249731 -0.43088038016662566 -1.171249332953241 1.9726668163117445
Ni 4.696906724929656 3.1441703006726587 6.290717215129578 -0.08329242957175333 0.06150387294175215 -0.28717679649666666
Ni 3.1228187062231725 2.1908419609761363 4.376154525070792 1.0846358094280546 -0.91109277379916 1.521690179615876
Ni 2.4557849044071767 1.398085382484005 8.995905949797603 -0.2834268425359312 -0.5223453182468424 0.935248545109757
Ni 8.37791050667218 6.714021826214758 6.084084106973718 -1.117973761458552 -0.7876970484486177 -0.42593126369146644
Ni 5.421676792325914 0.9925901104259943 2.2161252831730365 -1.3052662854630552 0.1518850910394868 0.1442869669772547
P 1.7993158863265852 4.146659113898025 10.274605575621894 -0.37070396778704545 -0.08862669730047316 1.051589420496047
Ni 9.112542272371362 5.070772403650233 9.194563663856888 1.0660426198068995 0.3325608810584208 -0.10118396514019348
P 5.782970193378879 5.785486499137223 10.501887192794763 -0.11247470756266437 -0.6122853350421004 -0.29389586038805515
Ni 4.542422203390672 4.068265088176644 0.1927314439534165 0.4066400195620223 0.2051838024626273 1.6628828239385232
P -0.015058054716390394 8.017662482643821 7.508690612060749 0.45513076807355807 -0.5142373444277273 1.9965004283962327
P 0.8040596019316384 0.861237099615562 2.341464138198542 -1.9927995825058777 -0.5150127891411711 0.7499563393647343
P 5.269403289449594 1.8781817193776562 4.249447428789186 0.5865851020625188 0.2590620405383216 0.24277487334252382
Ni 9.121377095897905 5.9326718837521835 13.588834665275352 0.11513682777585979 -0.2800291297082919 0.22421999315847188
