# total energy = -340855.2132534151 ev
CRYSTAL
PRIMVEC
9.37404557026621 0.00000000000000 0.00000000000000

0.00000000000000 9.37404557026621 0.00000000000000

0.00000000000000 0.00000000000000 13.71986323512632

PRIMCOORD
 96 1
Ni 8.17151493177629 7.4614216014902155 1.809087691496867 1.0799761991688563 1.5989847397329817 1.3958760746318282
Ni 0.050136145631107694 3.8092840511900903 4.733709310308694 0.26668407585995363 -3.0633552596917824 -1.800979602944666
Ni 6.6561348378626 1.2553721903593493 4.350513323552529 -0.00966786210706722 2.0964654335276602 -0.7749865428604847
Ni 8.252366075308618 9.319282452384034 3.6193002684689666 -0.008817855401946104 -0.8590328198791269 0.08238534437645166
Ni 0.562518667385774 1.8030883022956274 3.3800530637646027 -4.107117727944243 -3.6236230640160105 0.20003671104404905
Ni 8.945351772325534 7.735387458983065 5.766623211681523 0.6926569914226328 0.85106908494736 -0.30479142425463635
Ni 2.2584606907609537 5.4253132730001985 9.917280007658638 2.7916703881831277 -0.3271055143708044 -0.3114814346803023
Ni 5.173526407460681 0.2960670448674774 7.59974783097498 1.0221559457262783 1.1895931255677512 1.418639850690905
Ni 0.8780574798295242 3.63446747429335 10.37084508012709 0.040564294575607555 -0.15865197744967516 0.27180957001197703
Ni 3.7632856092987126 8.312388089457894 3.5756294021067565 -1.2163166576055247 0.6229818955239981 2.0348363478619533
Ni 7.825462663412298 1.179123703229847 11.241863589095347 -0.05189925997245255 1.2670370667785276 0.3117174619505083
Ni 8.200143267120954 1.065688377098287 1.319893746409554 1.932084524014008 -1.978114212579561 -0.9219937369823799
Ni 5.200289307725585 7.31259925311697 12.451764158927553 -2.9146416244017415 -0.4588074455941969 -1.4314395735587346
Ni 6.416684216368132 9.152752531821505 12.80125014020469 0.15289656302313667 2.1286427895911535 0.8099568882880824
Ni 0.9398043183741555 2.480456839298066 6.6981877439496005 -0.6243337815662022 0.5406137775387271 0.4131179139768821
Ni 3.923028720827339 1.2578094422223527 9.808673252429513 0.0065532277374854885 1.0087622980281916 0.5094607489746903
Ni 8.29369624247778 8.698945608975878 9.799042357952398 1.1936999486472735 -0.02834975478728666 -0.6808800533923628
Ni 0.7618258758874492 6.183317350485545 8.017448742279337 1.3065909178117496 0.8569864788730596 -0.008598540302288417
Ni 1.3111665099308758 5.4618064326258615 5.717341041607028 0.5484484430917973 0.23569019858160056 2.2050474909041378
Ni 1.593250290936652 1.3178314563716278 0.8848255407721723 -0.21550601032424174 1.0617735601179004 0.6482566109303868
Ni 3.261914778942008 2.9260427241288705 1.2218496657928613 0.5576776749995492 1.3307520884389856 0.732074831098623
Ni 4.664450111598636 5.900446149647107 9.267233064040468 -0.326406945641883 0.5111191105137197 1.6210720585503244
Ni 2.7372400711567404 7.2736875897195565 12.035023149895395 0.16327456382335107 -1.0712838136011806 -1.2458208377122284
Ni 6.316025714426087 7.629966941862535 3.8931348893230386 -0.7959240643441002 0.644448035817574 -0.18686520665909753
P 5.7757150985350885 2.956780219739595 6.325446630281158 -1.741779695545742 0.3825428694035025 -0.10562091786562454
P 0.8295496059238153 5.390348082811725 12.513503498235682 0.6128028981084672 0.793826044164491 -0.6327492593234071
P 1.9503170629122937 7.345380290674368 4.58030774064669 -0.6665847198156133 0.10729702001646683 -2.681220938580608
P 7.074020417865807 6.7482535842385065 9.772219463795482 -0.052028843571781364 -0.15246461769204064 0.7741383359275765
P 4.298862332148108 0.15071965520813738 11.78389434235889 0.5265729831749447 0.21755183710967696 1.329195285474827
P 5.436093425471175 3.508152209470379 2.22183535709195 -0.1390236616957864 -0.11982754838330978 0.20613665329419986
P 4.083587374325509 8.534046772352436 9.555418411344817 -1.2458555476049058 -1.2820754491688888 -1.6180371283787425
P 6.265255883310599 3.003669195965532 11.679294054230716 0.7280790796756687 -0.21793313170849563 2.528261897750652
Ni 3.1436611933582035 3.0036316997830244 6.2205444978837985 0.9294972444482766 2.22299867606592 1.0670008699551108
Ni 7.822462968811679 6.3571777747283384 7.4118675840925405 0.4510792237120038 -1.5732515966329357 -0.911370710050895
Ni 4.780032094178764 3.9539818194874834 4.495902896417189 -1.6368180085306716 -0.30622764248053064 -1.3814951233198078
Ni 7.514956776065651 1.9724866808199988 6.947697653806335 -0.08395731684926187 -0.026988869884018035 -0.630475632797882
Ni 7.509801050970836 5.7353129618829914 3.325708909051563 -0.10338714343909937 -0.9906211083427906 -0.569829736981051
Ni 7.058243899075673 3.647787993129227 4.496987473496226 1.6441844761980715 -2.3789821055444964 -1.9382410305337068
Ni 1.7155347161400398 0.5212344330401826 5.755413727920832 -0.9837997145455831 -0.1425751264924706 -2.555481138477922
Ni 1.0548894765360561 3.887847927589446 0.25711882269211855 1.09622377137597 -1.6278733977428739 0.37426314589321347
Ni 8.501050131745618 2.8517346644441437 13.319160536665562 -0.5833347134460212 -0.8473633539609986 -0.5471328096041674
Ni 7.9938111488264525 4.235043829519924 10.92530581789195 0.6787486088716569 -1.0279321860884234 0.06677309176049145
Ni 4.682813866981804 1.5546011008167921 2.974027526288596 -0.150823739654508 -0.007091616739458755 -0.9157644682432163
Ni 5.937576744375403 8.9756861839743 10.436754932334644 0.9722983987742028 0.0836194738938689 -0.3440969067224784
Ni 2.3136738195036104 0.10614231863380309 12.609926806363477 1.566627920668831 2.010625812054021 -0.418728318185124
Ni 6.333967637756043 5.0425709900523765 5.904288570949588 -0.3738445702985561 2.3346462597415982 1.5630011225495213
Ni 0.625248843316671 8.412231049430394 11.461299685771742 -0.12273829427220152 -0.006694124190723955 -1.253863505511047
Ni 2.713973689910684 5.771777999371775 0.15837356346253112 0.0658526368287511 -0.04664521066236483 -0.2149380536359137
Ni 8.739497730358005 2.6440901797618714 8.953856843922852 -1.1332605124142936 0.9845797872447172 -0.9243311268663048
Ni 4.5631166783714505 7.660179490918153 1.7283049784976154 1.9318742077754145 -0.2273217720122472 -2.2796105110226934
Ni 2.9275144492922998 5.733822488628309 2.6417185462182564 2.4200814466879677 0.7060532102238808 -1.5965445057226053
Ni 6.1711029690336465 4.671030691628745 8.262842508701283 1.795241414909308 0.6076894881413019 -1.548769038110539
Ni 0.24306806570190326 6.064491948118497 10.511542005750908 -1.154394209069115 1.5207234448272327 0.8972869782643191
Ni -0.0962208287422534 0.5390910525549341 7.741295919941723 0.4427483352488052 -1.611001818798516 0.1523280921141764
Ni 0.5948863095310234 5.895665386377369 1.2167314368805537 -0.9490170596487593 0.8542346271595354 -0.11019285350702314
Ni 5.001981372487742 5.451551226709994 0.7761756649331637 0.2038198322355651 -0.9382479940577133 1.1726390142119159
P 2.9402162811167987 5.297638771561322 7.349867646315982 -0.46535090313966954 -0.6898318632690119 2.327110870596502
P 2.0572280532875054 2.349595162346031 8.925004468887705 0.24372103930587702 1.3457825004095467 0.4563276165951367
P 2.7113395830895146 0.6483671146418221 2.7637976798224146 0.11242199994785801 1.4388631197163153 0.04364987547946676
P 5.666066886836811 7.05803767007188 6.01626998260441 0.6187542305958956 1.5768724812149746 0.2312365336856211
P 8.679138250566162 4.909384549784861 8.912519177517188 -0.39808853044758535 -1.3794312988122437 0.025901293246794105
P 0.40594679549274015 1.3447818375490703 12.500633870994461 0.031226305004133318 -0.41200128387393553 -0.8213227069228629
P 8.484073735115237 5.6751409630036855 5.217622855494354 -0.5453541204371898 1.0843234203939585 0.024519325297602933
P 1.2822100829892684 8.19854030531875 9.083812050662763 -1.1902143040915178 0.08994824432537411 0.5513180513301086
Ni 7.856875090308163 2.971441227100124 2.1252620642341236 -0.017195537942680063 3.4075956339706606 1.7934807234644599
Ni 2.349342063114104 2.5573240134389463 4.176669772591864 2.980478834611525 0.6828451475385338 0.04338608029511883
Ni 4.5902170442789245 1.376034905669277 5.287086408399079 -0.42120017676438426 0.9768716199671821 0.9137752057273295
Ni 2.9374134414743445 1.1257103912475621 7.4870389933795085 0.7566666615053743 -0.9458422614652033 0.7874044569088633
Ni 6.211036403404397 5.499424477726759 11.408793781406146 -0.6317241604930024 1.0262095469703618 -1.8280054967142065
Ni 8.767676111512577 4.299087309243155 6.775650169987792 -0.5983808091458662 -1.1910447704126133 2.6342376278525346
Ni 6.796614285627872 9.026287282268504 5.827333280779814 0.03589825655850592 -0.9448133059800566 0.8981968916730982
Ni 2.8347770159050154 3.137821162932622 11.439114131986473 1.1569365158749945 0.314020141941756 0.20707382039648853
Ni 6.771369980754532 7.077357578108996 13.89822158236919 0.19118414574942558 -0.455020467747939 0.629889935497741
Ni 7.844266998939933 7.490921723078185 11.857432792897646 -0.34432727756572956 -0.7604443833802517 -0.5611548349148723
Ni 0.44274273679215437 8.918785727018795 13.761159911639501 -1.617096618842344 -1.8388360116708073 0.9862540896233465
Ni 3.9369491785833404 8.72565226496702 5.86869906932236 1.01524559175969 0.02238659522531628 -1.2393066907427945
Ni 6.846934162553268 8.04544339213962 8.120059857925472 -2.15060232458138 2.505097543819047 -0.11663038160225074
Ni 6.182136220736552 2.4107139398336574 0.5437349547585185 -0.4419302102228841 -0.19061567484046527 -1.2397406929564196
Ni 1.1166363150806875 5.364438220698872 3.5296543953294464 -2.4545519696610114 0.945419829215804 -0.5282395722440903
Ni 2.0663021294543804 7.777917503992477 6.5332757836622815 -1.82515285775676 -0.17110871515578918 3.4161720627857624
Ni 0.8398141858853109 9.004473878094622 2.5385862336352627 0.6345099507682557 -1.7141938155076737 -0.5266881685965703
Ni 6.9760616410643195 4.667243577195462 13.257613365292784 -1.1144392659427325 -1.9739240857576137 -1.9112099945578438
Ni 0.6875890589494874 1.1296568644565024 10.016474283673755 0.8130823212909416 -1.3050171455667268 1.6551468887468463
Ni 6.168328251528074 3.0200831498582983 9.61254759501362 0.29092417935424086 -1.9930312389007094 0.691469655982751
Ni 4.0966922901119665 3.6039737038689252 8.707215392027962 -2.0376897581503486 -0.2624906066038963 -0.7039184232690651
Ni 4.2851949736240345 7.417626060321169 7.689530565180654 -0.41650457106092786 -0.24492174448219756 0.0480721729168785
Ni 3.5835289103565766 6.206780586689768 5.60456377347848 2.0263103126688136 -0.5362948384483989 -1.8183682307347588
Ni 4.332196438397495 0.8660080815806598 0.42287819670411303 -0.08512382635353727 -1.3350954530093457 -0.05402607650746825
P 4.97022210590368 5.906201813662046 3.1985940381366147 0.9340943769006558 0.08808548008502248 0.001104031697456163
P 8.866553544785504 0.9540434936814722 5.508566047022147 0.2991853909217686 -0.4516556650407641 -0.2914072896382465
P 2.941378662774538 8.050477254641285 0.4083812351420556 -0.8243959465315479 -0.5688151796736075 -0.3754070296896696
P 1.0693817510753 3.489076026619563 2.5149748875101348 0.894933133320162 2.169914137536115 -2.2158114142888614
P 7.088615806906947 1.1548542991017081 8.948685182950472 0.23007490927735214 -1.8783631232311522 0.2367641483720697
P 7.707837138885498 5.313424664397083 1.184567211525409 2.358960668117247 1.0746786982153427 3.140149226023386
P 6.597228335142931 9.182561996915164 1.289228430950156 -1.8095053810274904 -1.0695555180561644 0.12878938556228786
P 4.169650487226414 5.1372301027931835 11.260934147518787 -2.665166970441539 -0.10843113362091004 0.4208255670337849
