# total energy = -340857.06265076535 ev
CRYSTAL
PRIMVEC
9.45023335407845 0.00000000000000 0.00000000000000

0.00000000000000 9.45023335407845 0.00000000000000

0.00000000000000 0.00000000000000 13.83137175792016

PRIMCOORD
 96 1
Ni 2.8076076376789465 3.9350204806683644 0.9028998683369724 -0.501893992371026 0.549037482826048 -0.04097721374331007
Ni 1.6756397821973157 3.5897751043654944 7.894504780503927 -0.1082627263638458 -0.6325520557109364 -0.19226452329779792
Ni 3.8828646426091975 2.236246527141308 9.056616045417941 -0.23825050310960902 0.29635486345150897 -0.26311384201019206
Ni 0.4078134815070978 4.089909805870348 11.542750368877334 -0.6203092337878414 -0.31483595297483197 0.42921456242842854
Ni 0.34510267777873666 0.3860760546718567 2.9776589173259604 -0.3157453521629788 -1.0826984831960256 0.5153956264018865
Ni 5.026295631188448 4.637947740410518 9.830661036508937 0.16541449298448932 -0.4153396042185492 0.913930243247955
Ni 1.2654051508966395 8.971994875583368 12.392536145489768 -0.3903065725093214 -0.08092444356020902 -0.16189362431542442
Ni 9.065410432607262 2.4085431822409142 9.43797454358334 1.2532472120832867 -0.16858157785856126 1.83912937454151
Ni 2.7444989791250207 5.616538308031979 10.043650396570088 1.08735372257985 0.4769452928454882 0.6911791213255258
Ni 4.757190785279256 2.110293816568274 -0.005655019658381123 -1.507857644608158 1.2017122774287883 0.6602531211706306
Ni 8.549512741814008 5.835415163492816 4.520894314617393 0.751537310698609 -1.8939339810862157 0.6350452544464353
Ni 8.366329417853345 1.8640963363875502 5.146902344734834 -1.5419972666043444 -4.059882449106363 0.5939806231956416
Ni 2.1065326236805135 2.087480953173668 2.689828433961751 1.0416870737806705 0.8508919359395475 -0.00851086568448857
Ni 1.589595407214762 2.1944670453403337 5.475507750091052 -0.9483442019514507 -0.45971324523791796 1.021993194896169
Ni 5.1346236564959735 5.740100109558271 1.9842900747349537 0.24772501825894755 -1.8665242216146953 -0.2052928172366658
Ni 9.068963720360523 9.449666372328911 9.866360238149145 3.671139107319103 -0.23910642335200114 2.4722648135597423
Ni 7.288587001542488 4.512051731237802 8.789159320211324 0.1157909164200909 0.30796236578345026 -1.2901381715723652
Ni 7.089177626857495 1.2324994382454313 11.21486318125848 0.6683148151328425 0.2925156922110768 0.5290574401596954
Ni 0.7129378919682952 6.858724235498401 6.157754119090556 -0.2410643184093203 -0.23167773498809777 0.452793121079317
Ni -0.026178091503478527 5.597042476555976 2.21835818036432 1.7208115779345075 1.072475777026753 1.8299325385335905
Ni 7.598450704046932 9.071486932674674 1.566775928656786 -0.331869511418351 0.6827129928360436 1.1031765485447194
Ni 1.8743403893783341 0.9243046469570145 10.314012123519666 -0.8571541147991754 1.6119464420999723 1.6681111622169982
Ni 4.350433839864751 6.628970161409895 5.716007684563156 -0.123687031338716 1.6058464998498214 -0.3138933865559046
Ni -0.16868761096936646 3.5262033843756386 4.49949709618406 0.6902249849423726 2.9330599790079295 -0.6840479095973832
P 6.723831604141896 3.3957429124773237 10.668759709492491 0.21260503462736288 0.8763294021760457 -0.3229285001749793
P 0.7940048290262677 0.1430888187724701 5.695191655483082 0.3018184576692415 0.19682051809959653 0.4761780756621606
P 3.4400172558922897 1.7304983870049735 6.955880194896603 -0.023722283317604304 0.623127677073243 -1.538081476489706
P 6.506202179488055 1.1395185919573099 13.544453443649944 2.078011597697847 -1.5934823218575136 -0.6821535207881478
P 3.1556408328307843 7.633747325744881 12.072754423046367 -0.5151295172246935 0.19607284130029456 0.3723129641453781
P 2.8697618226608523 7.587053722583015 4.298569068993882 1.0131689117363196 -0.8133134634651412 0.7738753120741769
P 6.441893341294064 0.14754460381412565 3.542297131832562 -0.3416713280001212 -1.739851625285094 3.014433851400731
P 6.029059895812147 8.061994101879906 6.55909891584471 -0.14368147218277189 0.587875024518536 -0.4139807761978096
Ni 6.895173785669483 7.142372990589158 8.509377600622255 -0.404060174649988 -1.4606473054709426 -1.071861797591838
Ni 4.8597352677543455 0.32488862856537226 5.262173456511299 -0.4775361323519518 -1.4400797657322362 -0.9631223887018897
Ni 3.647194722420848 0.425309643598553 1.32373293638042 -0.09489273281484303 -0.7136112250767969 -0.12895573593682308
Ni 7.850119869358341 5.644407046288271 10.882841516533103 -0.4839399789957666 -0.35611244312611573 -0.062405301710098976
Ni 6.716961284470032 3.1075485951277404 0.8760772709165461 0.7641187469080454 -0.7044755813241158 -0.1512024631501654
Ni 5.599395584669172 5.189246005468973 13.132943030842114 0.3490192837247602 -0.34919668984288893 0.6965157030470908
Ni 3.3148961658572524 1.0039644442637623 12.341193972525163 -0.6941945111130818 -1.1029644325339132 0.26277214240005714
Ni 7.463397418722859 5.078404218080684 1.3360012293625563 -0.32757474069773906 1.654567104983976 -0.709552995847023
Ni 5.822638447954496 1.293642448255 1.9546768233955432 -1.3134395653024669 -0.08495747597900208 -0.8250140397315211
Ni 2.205722273303455 7.9278763896610815 2.1704190364421345 -0.7186703847672591 0.5694967791216644 0.8877463857637355
Ni 6.180301430927006 7.273995841193991 0.8982796492343947 0.6807260443130019 0.9383953182688548 -1.6218140789226712
Ni 6.703523052594669 7.914948470388579 10.624679095861945 0.9369398167692509 1.382241514567529 0.8693077194425738
Ni 8.671562505998486 7.46120496457723 0.4791721938072914 1.7407566535978665 -2.4548157648453595 -0.15323260620631673
Ni 7.407036226806775 9.329260948753655 8.80449799402068 -4.764283468438801 0.5508197715374513 -1.8204549380604584
Ni 0.2370846201262836 4.668405842614667 0.131623795628172 0.5323080858865091 -0.4936456363193047 -0.7205143799545334
Ni 0.5994283036950445 5.186713342921436 9.47180637910641 -0.6019867813295697 -0.15481460598145597 0.05196070933800729
Ni 3.6693744201785696 2.439464345880993 4.6447263928185345 1.7765615791116176 0.3380825822075984 -0.6277980859657187
Ni 6.173931973624618 2.6472088264127316 3.888524387384272 -0.13577790106497906 -0.9585021163210591 0.7206228805079395
Ni 8.878437565058682 1.2938503533894992 0.25365371432253964 0.4120262235746001 0.06816534412232778 0.0939023438771157
Ni 4.366707141756014 9.449146609492663 7.920147988797739 0.7547308779352421 -1.076570515921417 0.6031926287122127
Ni 4.9847996563890655 8.190309370799524 2.847865631904721 -1.5819915476090949 -0.1466284706262378 -0.18250487280787278
Ni 3.5620292191432235 5.618135397474269 3.4713419444979645 1.2384952505850928 2.1887646945837145 0.7826828830634779
Ni 3.666652752963306 7.270782761842638 0.4464791114072755 0.40120573592032843 0.030506396118973267 -0.34496902491478654
Ni 0.04441042677572903 3.0368419489312037 2.27716981779748 -0.37613773720810706 0.6712373880962762 -1.4375708832674534
P 1.0456683241976459 4.745028334911047 5.778830001045476 -0.5257738843124171 -0.19228097835803012 0.18338984651598741
P 8.962176083094969 6.1771734036761305 8.072057655413012 -1.2998014056937421 1.498733570819703 -1.571724361355132
P 4.644931462883017 7.011874717757299 9.271486946946313 0.1356809704757986 -1.4117901747589234 -1.0037136798606905
P 5.80593043532746 3.4081983200805093 7.051606333983454 0.9445808782542766 0.4757566718540258 0.24247174027980825
P 3.6387273133066946 3.4673378806121757 12.631306687252172 -2.461606819625264 1.0279131599250297 2.198405302997272
P 8.063439987588016 5.7772773277001015 12.985140435656541 -0.8674562680561319 -0.44570047589859374 1.1793231111003109
P 1.5614998633571966 0.6415243683144608 1.1884500103850602 -0.6220961504849349 -0.1416778114891818 -1.0486215961169747
P 9.452028930675493 1.450979383904043 11.78428699395192 -0.661283619317674 -0.8291447740704431 -0.8313474381487166
Ni 6.895164335436097 7.212729978150401 4.05541361894022 -1.9028459388638648 0.6361996797658527 -1.156561134813447
Ni 6.991556715976684 2.0544996386553693 8.805175575754479 -1.9158567493012357 1.5395647459034518 -0.10439501587832344
Ni 5.211633608361194 4.557535704526218 5.13431557888758 1.0086178020305274 -0.8609493201755494 -0.25931992218539857
Ni 4.663236564952343 2.5440500787675306 11.296773079134514 3.2507801955090923 -1.3017904110993128 -2.351818143535195
Ni 4.761774148471627 5.205094046857853 7.595332127029441 0.5142735969823014 0.40959884508003014 0.5029036645824628
Ni 8.39030465995447 8.498150723359291 5.252892382302581 -0.621620239289781 0.6747109484671735 -2.101968365623761
Ni 6.805954132269122 6.038954290167637 6.30202988717635 0.41706661421198493 -0.2911100701128019 0.11229370190010982
Ni 6.023238552046167 1.3007773744616806 6.851453225930956 1.2976311375153007 0.7691750783850302 -0.1244475636538244
Ni 8.842262071655801 8.613131712970794 7.310599430169272 1.343821520028434 -0.17404722895882285 2.045866894644502
Ni 3.228728937840677 8.522929235298253 10.029404169740193 0.6073426463248444 -0.26352804672947516 0.1831507339219878
Ni 2.491846989541432 6.074354864432837 7.680837838708975 0.02009805630145571 -0.16646530284650687 -0.37315294354817025
Ni 2.907695059473589 5.39534614539149 12.693243516866191 0.8184093899308099 0.6330873593891162 0.37342188093884077
Ni 1.9680394534038168 0.6867012090178213 8.129416791974693 -1.351687295929756 -0.329714155638245 -1.4252640408756423
Ni 1.296694873638785 2.5207080023032904 13.011489576384312 1.4432841316021465 -0.06010879236643842 1.2023902773324198
Ni 5.055544103519147 6.62854490090751 11.376109678459448 -1.4884177907159915 -1.4784005156893054 -0.12964813401815736
Ni 5.295882439000345 8.455369516819367 12.680725737722659 -0.1608880658690455 1.5848259317340962 0.9597177338957149
Ni 2.69309915973676 0.22333264050249313 4.062702583951097 -0.7555592873738084 -0.0352883908886489 0.3099464860930146
Ni 1.157455134924568 7.719394790925209 8.726253841675206 -0.23795456913574503 0.07194126622499224 0.4897797256059952
Ni 0.9754814408373573 6.330881449704822 12.00547821156907 -0.6624704405369236 1.3214608929450469 0.21640332532753054
Ni 3.058114424283837 4.25320038855278 6.150298829972079 0.815720273134421 -0.00881528429878482 -0.5285995266866703
Ni 1.9877242895475467 4.340983606478418 3.7709436385681894 -2.183359721518059 -1.9554807914507613 0.1769111807701792
Ni 2.6421813022512026 8.331817165526461 6.598339119934776 -0.4451248059007818 0.12822939929375982 -1.1789886105790275
Ni 7.895991302215597 8.855511298863439 12.722635632744362 -0.3121077554103915 0.6086881046091452 -0.577380038524483
Ni 8.77102621238963 3.042994050865706 7.309050536917252 -0.14129780244194373 0.6558254244165802 -1.6922245103254339
P 1.5309000076522534 3.192761349572297 9.985807408059028 1.704791291246851 -0.31360799410500184 -0.04046093622852387
P 8.961987078427244 7.576412759790005 11.05433679184155 -0.4537174326657993 1.1101432096705397 -0.2717103254299514
P 4.112543114830613 3.0910201369350454 2.357792593886295 0.6792720854752946 -0.7953921031000303 0.78816576055492
P 5.381567705114217 0.6241860251205573 9.996872686331084 -0.760373163822684 -0.20360077424622355 -0.6179916413982582
P 9.107520672576758 7.563172982815754 3.4411068678017336 -0.05347354643810791 0.2295501471221337 -1.5987952494299948
P 6.6287055548750775 4.6318428896429475 3.329612069286449 0.6137210390473624 1.6495465118409331 0.395492487585635
P 7.987063201359679 1.5684646853629234 2.630519714252469 0.06409503070769607 1.4544167511801984 0.12678906730280745
P 1.5611313042551298 6.3288212988266 0.832269769030865 0.32528003112629145 -0.88499993336685 -0.7214006392142285
