# total energy = -340866.9009059213 ev
CRYSTAL
PRIMVEC
9.28393272045882 0.00000000000000 0.00000000000000
0.00000000000000 9.28393272045882 0.00000000000000
0.00000000000000 0.00000000000000 13.58797397069097
PRIMCOORD
 96 1
Ni 6.959430816533694 6.483295050784407 1.6649888225181626 0.4167190010645791 0.20584020509970355 -1.5748875895744618
Ni 6.264092118890586 6.853111220750033 3.647787081535229 -0.14867609718388589 1.3355626224537513 1.7875877550187922
Ni 4.3684244954296885 3.470027624630779 5.17022390463151 2.072548517700747 0.7243242406189268 -0.919310533723262
Ni 0.2820802220059401 1.4574010186617983 4.957151153413202 -0.32488228146724046 1.3355142857143194 -0.3306932317220628
Ni 8.87751913714946 4.448711944289023 1.20137243983858 -0.11210112627332951 1.191744367582799 -0.18438229233624373
Ni 5.031083750428849 2.0806314120391276 0.8472628269937005 0.10805241012525262 -0.528812928249057 -0.8456515134762146
Ni 7.843456159715322 2.3686561360691925 1.934831893004504 1.9400919676995168 -2.211295014475746 2.4382285499106398
Ni 4.351592725681542 7.930855100922743 3.2623228432240414 -1.7237683465699862 1.800512176389944 0.09077022600603722
Ni 1.9856846336528626 4.046708380105622 11.44576218398679 1.7585072927130683 -2.0430268540925463 -1.7161100586937799
Ni 2.6031218531069467 0.993779994015931 13.099717052646337 1.5570402769803957 0.2854572427023987 0.729463361617705
Ni 4.3080046622686625 1.660960524176342 3.3801034537645074 1.6758476116293075 -1.5807216797577357 -0.5689859009235169
Ni 7.085153831387199 5.552868612621401 13.005905699213297 -1.2608412223804608 -1.0903899383030125 0.8953691924163161
Ni 4.779934806564056 1.140011215915027 5.843996955309384 0.14626954462492228 -0.019605947156385587 -0.10294028570966789
Ni 5.501138540345242 4.871400110236832 10.560817731480803 -0.24462041119169484 -0.19940859054174692 -0.02893493786679533
Ni 3.2332687762484067 2.020434393259765 10.099873264594665 -0.029832252870084106 1.7639732009236457 3.565006025703751
Ni 4.846658429939638 4.390631662135462 13.377278784670798 0.4978319064865103 -1.0141467022685566 -0.7632029199619953
Ni 8.416432626095013 0.47560843837935163 9.128074837723075 1.0755878402931736 -1.610044339981253 0.8190097425189701
Ni 6.7326243438656155 5.572253463826105 8.486151246117453 0.19252677582024907 -2.6280813784431514 0.6782205042823286
Ni 0.2444654408081509 4.807164580789823 5.1724251250436915 4.336596912619125 3.243608103240685 -1.345382950978283
Ni 8.397855477023835 9.20306023269208 3.6315494834715176 0.609003578967035 0.0017033558443519052 0.40552184679717906
Ni 3.2689097933819617 6.057283236976787 13.191992843632411 -1.983778352843874 -1.806692594169043 0.43892201952417953
Ni 1.5555136180541953 0.28086217005284747 8.744241786364313 -0.7700559383280867 0.7438281149798093 1.1440092662903654
Ni 2.4827278155482215 1.8837192022442049 1.6970564540057933 0.2849684759914382 -2.0970542161515953 -0.10236924369754627
Ni 0.6528322123745528 8.478802085095591 5.689827971063534 0.03965129584303494 -0.4334738519254148 1.0482598419021818
P 8.762351953627252 3.3398204703463006 3.903376530347919 -0.34888095837468297 -1.778481164731834 -1.577844615320257
P 0.13258198423570627 1.1610021874542218 7.0838587227937815 -0.011041602526142273 -0.23908508319576244 1.3855073298029945
P 5.338251943416817 4.60519262774463 3.4528811295685324 -0.9293177814476188 0.06278453942638865 1.1769206723064054
P 0.8734212354009695 7.2565352266165375 8.054012965207349 0.8036106343550805 0.36006345735406375 -0.5456886209584731
P 8.94933963950559 6.854968007263894 4.363220851224594 -1.2348260292636217 -0.1260609308875313 2.617923464073543
P 8.00047531125995 4.348974656696998 10.340910149104971 -1.7846194164190878 -0.11310437072686326 -0.344158098977717
P 6.576561437375627 7.332412807505454 7.4651786136060325 -0.29700329566878525 0.6456844793278363 -1.250462193138982
P 1.6915232301944882 5.710481935850463 2.0231406596037167 0.6521849994505156 0.26070086169332524 0.07424188933371084
Ni 2.4873604979003043 2.544484534999227 4.218753576513666 -1.3882902918647704 -1.499533955233811 0.3400461336918724
Ni 0.1898359963905996 2.219593314736459 13.49062910258919 0.2361799937338255 -1.0072602595613684 0.9751623505855593
Ni 7.172181415291848 6.659160585444718 11.081658417731056 0.14830637254929296 0.9638291849609271 -0.9435264688478332
Ni 1.2592261940374505 3.6295163022388404 2.6035646966905026 -0.6310438465965261 0.4955881047576562 0.414831297123563
Ni 3.8676770244391774 3.2458949245426596 7.319855360312214 -0.2856827284496435 -0.2627222629987282 1.3817537762978331
Ni 8.905723724295003 4.098958352605661 12.360612968478277 -0.44879222745004 1.308772755954417 -0.42410500911600507
Ni 8.187917909834182 3.513281466471163 6.014294915607884 -2.486322320094073 -3.070599342848705 2.228453528532904
Ni 2.148599082378997 3.846964570877062 0.19504985292152036 -0.3767877120872801 0.5103945736428694 0.7242314237948044
Ni 0.9273970909656418 0.6505520785355318 11.725008021379322 -0.21208952844352502 -0.6850300710049945 -1.3467559200664094
Ni 8.34997823676394 7.306928412602716 9.00537559970739 -1.4113206913216727 -0.11937426289597507 -0.32329539659609485
Ni 8.411642116889253 6.23085564029248 6.651965537703508 0.43905674532983097 1.3752218887165863 0.1824562789581245
Ni 0.6232099687256767 5.3840960024440365 10.184227075919354 -0.2926727866142314 0.0449523963409742 -0.6814513525148006
Ni 1.6559472005889182 3.19351497698665 8.818201306784411 -0.017101949787609257 -0.12298023507967852 -0.21609864960291814
Ni 6.359038897276851 5.17498470525305 5.924899928898063 -1.3791466776922894 0.5001402429047128 0.536830913457527
Ni 5.044322638272675 8.84566596450418 7.832162255744764 0.7265760127675809 0.56618108448487 0.3356477475138607
Ni -0.12576015058378223 6.675936651597449 -0.1048388085388573 0.4817213740778929 -0.7158730245277801 0.36290144102349114
Ni 6.398179956989034 -0.09658632087800362 2.417137760339351 -0.6995040962514534 0.16164705552225708 -0.1047390294813035
Ni 9.12814818079037 2.420896824636662 10.685785962616423 0.0032444750792266705 -0.022296863724987407 -0.7965449857575506
Ni 2.0093679456371554 5.458738820301234 7.939860515514967 -0.3656311812498284 -0.423614956853464 -0.639997199135072
Ni 2.83427320621746 8.147087174394386 7.504352167082207 0.23522148647529809 -1.4253159771595 -1.4857618411503832
Ni 4.477371444130462 7.755648725474852 11.690059585615439 -0.2339109951939907 0.19835238136309064 -0.2710079000462881
Ni 6.409933415621771 4.055862337618954 1.5929315798815151 -2.026633243225871 2.8057464066602193 2.342026868476386
Ni 7.398969320094789 4.985870998816342 3.8500709747147503 1.912967343568583 -0.5942742431766603 -0.7718225433102063
Ni 4.8940436217733625 0.8771524479005725 11.75873376322383 -0.5481018583856561 0.21584848126532505 0.4971011989680729
P 4.217226369606015 9.497463018397255 1.6553957349943016 -0.835227232819097 -0.22225052813692692 0.35262217058467016
P 3.577906921086083 2.848635449902172 12.39710996419472 1.115228337502931 -0.4922202167266878 0.11291822285798618
P 6.293197247495352 3.33569840428553 7.134147928735183 -1.1471627243176823 0.04223962539550145 0.11794190132482268
P 7.845368649824598 8.092117009651542 0.46075693144823715 -1.337249266127555 0.24668269303736226 1.0413235197936648
P 1.24990512573787 5.746373619163389 12.294086164473162 0.3511790103802403 1.2035120496416885 -0.7361428305204096
P 3.568010248967206 4.562644364779513 9.367114748337723 -0.23815434385137696 -0.0013757973016040822 0.775507191250645
P 1.7294666626052309 3.465784867446607 6.08828228782569 0.6777466499697038 0.7659686556325904 0.6125483588955
P 3.725846386577931 6.248467260376449 5.677122909342442 -0.7739946112608606 -0.4270823465767742 -0.3624718096852403
Ni 0.4872709144729104 9.089898378604842 0.4613863820764359 0.5486500175796423 0.019382261181353718 -0.19478189040301294
Ni 7.816022138973031 2.40640460589598 8.500527415701018 -0.9634664023048698 2.229685601167792 -0.7309774842693864
Ni 2.005552249351172 7.05303142469741 4.159211074980439 0.47105232439982103 -2.267564892712069 0.6265421020714306
Ni 2.284116646093117 1.3410362078381508 6.467698972461234 -0.14330480556964353 -0.3262297966340704 -0.33402872385319893
Ni 4.2908108191503125 5.934958141443646 2.06035808848754 0.08351585843646907 0.691447287385248 -1.0674616116416134
Ni 3.7198675340032996 3.7336263220710073 2.0667175822975126 0.5060859189651865 0.03251699879109884 0.7341373700546066
Ni 5.582632900438587 8.697141611260466 13.748040058971979 -0.8852465021600173 0.3853906232649427 -0.41941788805298086
Ni 7.8706766500085195 0.1289816751853305 11.563963356672646 0.9129537382672986 0.43269840721197095 1.322583179474948
Ni 7.346468681415378 0.759282711607441 0.20531416877014202 0.5654143815221746 2.5616417587626783 -0.45276920981991703
Ni 2.7698612820516337 4.8278863182845075 4.230466185843098 -0.17359240080959137 1.0134108525437966 -0.38293007753959213
Ni 5.173053647278634 7.925860345200458 5.513239218056073 0.3635334181805352 -0.07191169853863745 1.049845698332063
Ni 2.593466563234871 7.839844709945863 1.4720529210426727 0.012217110891482186 -0.10279398993979072 -0.06631543539778256
Ni 7.415290473551623 0.6253805521603798 6.811012300121271 -1.2870271367472093 -0.5623658245038379 -1.14025134190983
Ni 1.676418271904232 -0.2301356908874313 3.4589407523565168 0.13914604620626358 3.741399900517879 -0.8416287654700666
Ni 2.1887799425389414 7.8963095878323655 12.666559395940125 -1.190468586194169 1.1629513546105068 -1.518189365551469
Ni 6.38078186735416 2.8038683270529914 11.555104628215018 0.8340090441412797 0.28633424599071333 0.50873621210384
Ni 4.386221794165043 5.653153652235014 7.633370049604558 0.6882133538289825 0.6750559905114181 -0.1838557304088124
Ni 8.94279446704423 4.432836419595515 8.290172071545745 -0.21410398777039252 0.6250130670214139 -0.5863189928853257
Ni 0.4177398298883704 7.5856320683332 10.816652276113322 0.6676172748451856 1.2039398812077267 1.0723744755621982
Ni 2.84585955406395 6.737229174419989 9.950772379138398 -0.5708352954274297 0.3663793722697626 0.26890396632940783
Ni 0.1995154244873552 7.41360079782401 2.5266565992863943 0.09479220268123675 -0.6551517953883232 -3.33802518197069
Ni 5.549795630940961 1.2771720356939136 9.53748048134398 0.2976488996725842 1.0624397329469897 -0.923307827808113
Ni 6.486535143251093 2.6554646649326785 3.979998682628893 0.20062137990292545 -0.4822016561484212 0.4383247522598129
Ni 5.143549309573388 7.008552103757878 9.52565832161023 1.0210601415589382 1.2230547476603066 -0.2522848697154881
P 2.8470293295676825 9.269607461348846 10.670812836168652 -0.321024341173731 -2.0879555962844365 1.8046308265440083
P 0.5106729233003532 1.2118131504060186 2.1054157984261392 -0.8464189877698584 -0.2950122333806855 0.39504974362126155
P 3.468523627554552 1.3016259140814583 8.301558814841995 2.0565750250906256 -1.9783479258569223 -2.947957207834736
P 7.177417553260936 3.0503010331725777 13.683225212132646 0.9966493168147414 -0.8251788474441595 -4.487787805805064
P 5.119680318937709 6.696964758866922 -0.08992881283255623 2.492304505819437 -1.2757495069508609 0.44542279675717483
P 3.1467796604327773 8.912770229115104 5.095585728740597 -0.10197920734797922 0.399595454010415 0.6285254510500465
P 6.693436864490586 8.905324515194524 10.046703254377007 -2.012552596763089 -2.3064767392859182 -0.8708904905486614
P 6.491938392006428 0.3245430727914194 4.606186936922802 -0.3974413837818897 0.36951328991305393 0.11956375319896181
