# total energy = -340894.20151958807 ev
CRYSTAL
PRIMVEC
9.00764347536626 0.00000000000000 0.00000000000000
0.00000000000000 9.00764347536626 0.00000000000000
0.00000000000000 0.00000000000000 13.18359673275749
PRIMCOORD
 96 1
Ni 6.24583683004357 1.928392314204279 11.159018051129705 0.514982707234184 0.4900108677801948 1.5797996821640987
Ni 4.658095571212777 0.40188591548069696 6.118665120011998 0.14651662763872186 -0.6292677285327098 -0.7479701621726409
Ni 2.7342701321757295 1.4152088585287208 4.830826139668062 0.6362084215166011 0.8119309812953177 -0.17099172996195067
Ni 3.54565162022051 4.274036682642273 4.807345915805296 -0.3887829367759433 -0.7519507440869437 0.15842006394452715
Ni 4.6371257775454895 4.3700761758040505 2.5169328131964863 1.5111699968108425 0.2510286287108838 -0.032924004421530394
Ni 7.067811306641928 5.992911213040234 2.489919791620529 0.6322000716881564 -0.15049926643555372 0.6994107652066986
Ni 5.092732377069286 4.59888833161867 11.280016823188685 -0.5316817651564197 -0.04933612723096665 0.39755811186541207
Ni 5.504363661866408 8.043825491790237 12.355719497810892 -1.845261198470861 -0.7250001836400288 0.32761484990705514
Ni 1.680213725234733 6.628004113515221 0.3578448449577294 0.5169321176510709 -0.9054281193142147 -0.04255715663592026
Ni 2.7517990060917694 1.6041441773308487 0.41516318174598116 0.04303178227949363 -0.5495612165400019 -0.6858345691841607
Ni 0.6675843707229552 0.1176344172760195 4.870231876934507 -0.7022610901713002 -0.20075841970142197 -0.809410271755993
Ni 8.41574207715477 2.2551265606362016 1.3444628278316093 0.17573618662547152 0.5178566863478694 0.3048976108151975
Ni 6.894423180223709 0.5491617846557468 4.720188859729134 -0.48670545755604566 0.5863351908352418 0.8692688957848385
Ni 0.7476118771051066 7.332843196277924 2.4060460215373762 -0.9240097389711441 1.1458311499904525 0.418410272724073
Ni 7.634788408271541 3.91105567945899 3.7019144151437784 0.108671017545858 -0.7278047429683595 0.5380221055521509
Ni 7.494251157070073 3.7687168995919476 12.628461930135547 -0.08277255251254131 -0.6029416890436713 0.9013369799639767
Ni 8.082612403960056 9.014759366101625 6.865358217497661 0.14997990359697397 -0.3877886911834741 0.3163387627726036
Ni 6.760695707378112 0.7653992703846566 0.41343911881302636 0.6443752735981095 0.4228623949581556 -0.21386590361765748
Ni 1.806897220997933 6.426827407430514 9.205011602358287 0.9714913294918752 1.2486125415247527 -0.42292178744118136
Ni 0.13505519947212513 4.633477681997701 1.756648082693396 -0.7244556239904685 0.1606299271116524 -2.1078253386251697
Ni 6.406470133509522 1.9164391715081919 7.038801290540182 1.660741095005172 0.24772039027325726 0.969853022557504
Ni 3.3138669421076923 4.380732217860924 0.44298689122144685 -0.2748964364674169 0.12944681664062865 -0.5901378524107838
Ni 6.08544673294747 5.615400881169093 4.675391147166625 -0.28045516150211697 -0.13248740323916539 0.9747982823779212
Ni 5.254455605377911 3.0408632881265296 9.16042466864965 0.7089819538349016 0.2615590959285624 -0.0900783421453352
P 0.15373525020546733 5.379004289672405 12.564139249895542 0.7370676563275241 -0.6548772015706981 -0.4452093951947881
P 4.019021292386872 6.148599320319185 12.504694208517579 -1.3578710561429645 0.011797763965876455 0.6899557904413859
P 2.34125764613732 8.445449284850092 1.4210332007045232 0.3543188415608027 0.8760980028915298 -0.42157324383308686
P 6.474477840634959 7.692473356143238 5.864551394853717 -0.6068142846252 -0.28879839126048973 -0.22920716196041818
P 4.633837987730815 1.0821422388373034 12.513289301781036 -0.04578466243428244 -0.4970016972757311 -1.3128587530983327
P 4.147812576688794 6.249782177821177 8.003945952484747 -0.07110514347694205 -0.21706127062650357 1.1890017718406556
P 4.841860502744706 0.8676882664873123 3.8504666673783876 -0.6312888727277967 0.3572470709511912 -0.25503877831154137
P 0.1922870628844293 5.6688162061033776 3.5868480769805355 -0.3141067881182913 -0.7470605058741779 -0.2656661761184005
Ni 1.4496360713278498 1.1202625854008603 2.5563385504629306 -0.7372481477694465 -0.313226442395867 0.2851790493403476
Ni 1.8053569139888668 6.725322692029556 4.587430609305616 0.3659587397925762 -0.34773553191633017 1.1880959721969346
Ni 6.059351590226623 5.605411404718484 9.236532949419846 -1.047118786319203 1.2751165013525525 -0.29976337491242566
Ni 8.634420634225533 2.4763542807687533 10.262691784210087 1.2926992474313221 0.45169911668418977 0.4946895042027868
Ni 2.4029329800032633 5.221406562007946 6.880400081090876 -0.7960449061926806 -0.5781251442206237 0.6681199255132171
Ni 0.5822639731213459 -0.014078946521464882 8.858611869012952 0.408125088747981 -0.8015552944879486 0.4452435908668332
Ni 1.6767637978401577 1.1714710377198159 11.45633423521713 -0.8204688435629999 -0.002046855226699701 -0.24319499159907793
Ni 4.125942018688719 6.929084591749362 1.5285592406380042 -0.4815899907063512 -0.5640951484901188 -0.6041984442689078
Ni 5.922876786166025 7.974610760458863 7.954823670360526 -0.6258643592781156 0.14662795640560555 0.5868290997525248
Ni 5.41162997380596 2.6908803142653674 5.123791632028124 -0.8770593383635347 0.452041330514957 -1.2484258794352434
Ni 0.7721730181672168 7.1419171883003365 6.889114976010593 0.015184163939606107 1.0907930872787022 -0.20919832293865906
Ni 5.209930824408236 4.5080372410137475 7.130335160509358 0.7271226292996703 0.32815529579155744 -0.5977310913770093
Ni 8.232616688299117 7.054479994516677 9.061718913062823 -0.6022467198591758 0.24147312381196478 -0.2101840838906961
Ni 4.686559724128855 0.20463564112260985 10.11917480459576 0.21440557817121142 0.24469368763179147 0.0325409100504988
Ni 8.176436016863178 7.269465417823012 4.59995483658869 -0.21639201247362086 0.019418770846243976 0.09401341553368324
Ni 7.5376950208404025 5.985191662708248 6.925632862826122 -1.3739779890071562 0.1576117091106189 -0.09620245276520206
Ni 2.3163875429090632 5.332822102330402 2.6196730922298688 0.1816525521099065 -0.20035938449079044 -0.39433909070748213
Ni 2.102329906865499 5.434329234992199 11.402202802638278 0.8664134286139142 -1.4851668878788615 0.5903013745718415
Ni 1.0244843138955908 3.4098523894095027 3.6954144997183853 0.9940442750917269 -0.6522297366455219 0.441986003161484
Ni 3.4952898863743744 2.329862977327561 2.6168915319702215 0.9126485483220541 0.20848818424551194 0.6531180527877462
Ni 1.1566354491588098 3.374821664507406 8.176071207308398 -0.13515466565868334 -0.029320860451304342 0.4647616062951029
Ni 3.5657116419116823 2.8536304139133692 7.112840515637964 -0.29897713156570443 -0.1284181182657982 -0.29318237926079826
Ni 3.994970884701451 6.528226448372376 5.811381978582284 0.7755365018266838 1.97044692584229 0.3537308302678166
Ni 0.39583908451469607 7.188819987108569 11.139466961286558 1.0927718082716276 0.6224134246150377 0.4973590806151499
P 9.34669102273373 5.374275276925272 8.061492182649193 -0.1816821197962613 0.33360089228716094 -0.8576153707063101
P 8.57942897170887 1.7613815992621928 8.191404017781103 -0.40382851825515614 0.2731928235127488 -1.776487531340573
P 1.8223453293052345 3.1797251176690136 10.490161801168853 0.7146926310664338 0.9844154937527111 -0.50370944831321
P 4.0565561421341165 6.105425685848691 3.704353684956966 -0.5862040645740162 -0.06292389321773034 -0.6048224510061518
P 7.023187441595648 3.962219093561307 10.50718174323687 -1.482096476483654 -0.029808084500368016 -0.5256275885425399
P 6.417513504229493 7.559268326610658 10.233978119573827 -0.5789661520646803 0.9837968863321057 -0.10147835645216072
P 2.3912410589636846 8.41471520581539 5.92183460183299 0.4883530204617976 0.1866155525421367 -0.5151161474882548
P 6.724746202856572 4.055718431304625 1.632854238909777 -0.10996582509788157 -0.6902342409137532 -0.7582260355726942
Ni 5.148813964428621 2.8102766265763184 0.44432903007729985 0.29772628987773886 0.8124966239908007 0.06048854430336035
Ni 1.567636198922981 1.2288046875017251 7.020067193946872 -0.23221972353449688 -0.1099596544502945 -0.6836033658607968
Ni 7.268465569413618 0.713364817172535 9.530856794393749 -0.926702712422275 -2.1160014466780592 -0.8254999782290041
Ni 2.620395505224764 1.475794267551992 9.124090537758011 0.4315966895073599 0.15522572537694557 0.7716489938468194
Ni 6.2059329701010935 2.140594375722302 2.6368119351898116 0.07256732984476534 -0.39370968465359935 0.302135474689028
Ni 3.947842894810022 6.934570246536037 10.585017689997349 0.11110353824675058 0.07888684430488994 -2.0773302553601067
Ni 8.205972079335272 6.8841544668299335 0.4611408955844413 -0.09748106236730952 0.9330865044614316 0.9480693510235092
Ni 7.548125871814079 3.999006308912338 8.432465667757297 0.8863083677656284 -1.4249066575362235 -1.7072891179680403
Ni 2.988177582301802 8.336168555996343 12.500502051312786 0.611984773082546 0.12071380764300502 -0.6568016722869204
Ni 0.051296727223568914 4.9290364748718565 10.197643988682188 0.5659445429940316 -0.9402758231210193 -0.03916690000744867
Ni 8.721830805079207 2.2653412281700094 5.71706654835346 -0.6300884246617923 0.8374378673171706 0.159643394828667
Ni 3.9025524641574783 2.597966473338361 11.050688529411378 -1.3737810425050017 -0.47640227585782463 0.8621448831455475
Ni 0.8852594763269934 3.1889579520800826 12.64446671080051 0.636252387380659 0.9519584016652703 -0.4630657066499187
Ni 3.2769896503233817 8.388016550991576 7.879005435705489 -0.08629393540223848 -0.8499555401682071 1.1778169588684297
Ni 5.526108112859893 7.684960981607793 3.4915436075143123 0.6196461462825458 1.1642939846813303 0.4572182467302061
Ni 3.1354435430691914 8.297786987776277 3.4381102672933714 0.2512574568922383 0.6356684898527311 0.39910103087249976
Ni 3.3554192007791683 4.551057745547667 9.219222961236673 0.07951445058655983 -0.41883810429011087 0.3758983675037913
Ni 7.278770313380704 5.9045462319938045 11.4986665558008 -0.26693424419754674 0.8393525678413802 -0.6575832876479513
Ni 0.4083624110334374 0.13032708748932478 0.4399314986046325 0.23693795494577258 -0.42791589822166304 -0.4776274065141774
Ni 4.6861543801791 0.3309525258023657 1.4015748895876528 -0.7424026953871924 -0.46736767645938215 1.2350569143275052
Ni 5.916445328829924 5.717340380710628 0.19171057371144545 -0.0041435898547283485 -0.8485627735857386 1.4885828555389462
Ni 7.630671915270704 8.393024800681873 11.900608318670129 1.2889153549088577 1.6605544329156627 -1.1363890307409463
Ni 0.20804233182921128 4.967796364111693 5.577848016135192 0.01728886898743474 -1.1300875140029505 0.7552247868525253
Ni 7.670611805786491 8.871826081774941 2.6483471232354856 0.8079879374871697 -0.6581849257876923 -1.2990485866881176
P 8.528733955059604 1.664999815653956 3.543288915375609 -0.5425261640700915 0.06047363190502489 0.276510317921756
P 1.7785141368718067 3.1679070896228443 1.4915261166241214 -0.2566117792256161 0.5988778033869427 1.0563873561053228
P 4.675282154682358 1.2728700786616778 8.168319229460431 -0.3289780488031689 -1.3258646784396972 0.3011599981496362
P 8.457546549839426 1.5666093275836035 12.184412137001411 -0.9806591120340724 -1.4569264049759296 1.409192075014444
P 6.311223312960597 7.615043654096844 1.3422487491016184 -0.3549958130231693 1.5406173555376823 -0.5777808735073274
P 1.747437767390646 3.272323691079544 5.888532443685513 0.6108012942974061 -0.46057507901758094 -0.377093416253157
P 7.036563791937538 3.963948561080258 5.922532694190901 0.014487909203529888 0.024299495977312992 0.2466184154583301
P 2.1138236597518643 8.405131073314536 10.253080628779248 1.3446219044425423 -0.2951078784182853 0.24830043114644337
