# total energy = -340891.3552923747 ev
CRYSTAL
PRIMVEC
9.08202421813728 0.00000000000000 0.00000000000000

0.00000000000000 9.08202421813728 0.00000000000000

0.00000000000000 0.00000000000000 13.29246046832204

PRIMCOORD
 96 1
Ni 6.24380064339286 2.1134777927300066 11.471286479009265 -0.2127585294860916 0.06813577643597298 0.7832503255311736
Ni 4.786199374050687 0.23721429167674066 5.933302592284562 -0.41635364730536034 -0.04511077629570941 0.2614703928694981
Ni 2.8231471439565237 1.4511530323397306 4.950417806454994 -0.7808327172286165 0.11250633213154818 0.046102965005649636
Ni 3.6139098870067103 4.4098947938264805 5.123938047785922 -0.2358976866067163 0.32165580411014283 -0.05494370322573119
Ni 5.074971407472728 4.831545919618565 2.5512349797898812 1.1380095970635047 -0.10774696306969186 0.25914920093548915
Ni 7.337975642467816 6.29170831971382 2.25277969243544 1.319183923985412 -1.8805593595515226 1.8043937708325375
Ni 5.104478903276862 4.678350339678856 11.54983145491338 0.6029244626524907 0.019253448912973294 0.38590047302182573
Ni 5.599294813986797 7.918989042459692 12.244256628944685 -0.000969563002120911 0.10359051769915709 1.3874544262270363
Ni 1.918922675735197 6.454321958486674 0.3830697798624025 0.25094326808592915 -0.18604142520622155 -0.018867783438780407
Ni 2.706806417194153 1.5663130959889784 0.5226423238814594 -0.3893652916419746 0.40864085204213496 0.5345403176511374
Ni 0.5312339185354176 8.754662393928296 4.328357291031797 0.1943178062824008 -0.9413852541351142 1.7590004302994031
Ni 8.49958466935 2.2800057838240613 1.5350264316936082 1.0070792538988138 0.8654688053124578 -0.40187036608752086
Ni 6.835903194624147 0.7528698145356949 4.611805442016048 -0.5220545264793008 -0.47352418297908117 0.44950879390109033
Ni 0.7091761973261892 7.439839623058507 2.067017791026214 0.16136294862293502 -0.7441024516871185 1.3555454933335815
Ni 7.917990019825511 3.959907753319439 3.710855951630046 -0.1964091415937908 -0.20953668011468427 -0.16896338667801225
Ni 7.724933436781972 3.9289198876119285 12.29627028829213 0.24405091184147001 -0.35113324474396945 0.9636463795261597
Ni 8.32452865776962 9.17148188298052 6.44332090287955 -0.5776952557720567 -1.0598889415006778 0.3099963654943435
Ni 6.729843318969894 0.9069508918102466 0.4136934564096343 0.4933671858469374 -1.0838685922447269 -0.5795341087530084
Ni 1.886663326675092 6.510221815881085 9.222029703662905 0.23358960729882997 0.6695643712692275 0.6219208012493355
Ni 0.21342029713772928 4.747028604766839 1.5663966506092917 -0.2885533651292192 0.18342841306340668 -0.048050575650323696
Ni 6.429355474656092 1.7295988045339175 7.151489903750005 0.687392400589584 0.19059382046359433 -0.3983425554399204
Ni 3.501674235068429 4.471997673576761 0.5226395992742754 0.06258836425518254 -0.19008679892018876 -1.0993435479518745
Ni 6.105045481529042 5.446898452154432 4.857809316468793 -1.268761248558486 -0.27444520786261123 -0.6933355055468963
Ni 5.157427102888464 2.537853525706222 9.34147557441279 -0.0902691179999026 2.3551520930044343 0.49794349236371016
P 0.36277145634063046 5.504296843500113 12.348017844337926 -3.4730839454814575 1.71689038850323 0.510553724928553
P 3.870885754589949 6.341432400824202 12.502435864700916 1.6164543572726549 -0.3086809891170297 1.3880902600388225
P 2.5399333091901086 8.40975437048922 1.3761818328588016 -0.9962083726225811 0.7876613101146757 2.1253283805059398
P 6.619369579677351 7.8822431735697185 5.92992589578103 -1.2356068732937044 0.4846712007348362 -0.1830903129976976
P 4.634883773068028 1.1569862766931105 12.961810085159682 0.7229623272743937 0.40901700443463107 -1.9332543759523932
P 4.008932518585893 5.931760464618344 7.890298020608403 1.064679935131418 1.7015439879541472 1.6466936157731704
P 4.690729138318755 1.0123005531918354 3.8720400798336256 1.0120067731074183 -0.2644317894906672 -0.3631518664714004
P 0.3848643877943497 5.779936270294646 3.513024040395122 -0.08482532127651198 -0.9357319125040787 -0.08886066768815018
Ni 1.2848884199401418 0.9579264758205382 2.6473000880903483 1.3992244222787706 1.3354384381710613 -1.278664880825443
Ni 1.9084420201002417 6.523536062987535 4.8656652671830365 0.18162349864418398 -0.840691855478094 -0.015733865795489032
Ni 5.735534255217267 5.58837822120238 9.16166875610568 1.321625443547369 1.3544283490100029 0.6353900393803639
Ni 8.465318192997588 2.267935773998363 10.309910860142521 0.583138538274815 -0.07616250339519141 0.03122990454855912
Ni 2.302356644757878 5.155628862146938 7.223707433570174 -2.0470025509108423 -1.0189320394723422 -1.3170097991522287
Ni 0.5328795812746323 9.07814592287616 9.14448102578579 0.6144085520326903 -0.5908361640293889 1.2166866393504336
Ni 1.49743502637416 1.2272448139478882 11.491691062211219 -0.25179867410768897 0.11816918684428036 0.28134784851971545
Ni 4.247989552921501 6.7757529500224924 1.5993089971911931 -0.5160849391594272 1.5324476752426963 -0.3837109215696747
Ni 5.632053674363992 8.131989750091066 7.945594831612726 0.1719335250499297 -1.362626311439763 0.20071111140325434
Ni 5.1149958870076055 2.6268846064596585 5.383685749077816 0.25815109868827796 0.008825568711429962 -1.1004588925032401
Ni 0.7272939268982621 7.511860072959022 7.048712271550236 0.7982825372739478 0.2641502536945064 -0.6698124827242917
Ni 5.424829133962976 4.41419059115346 7.204832263200912 -1.01447323237004 -1.3985716191861204 -0.5531803013498279
Ni 8.043467262678666 7.271086536097413 8.883749741300424 -0.25656704203060976 0.2916572008655235 0.5072976798851005
Ni 4.446831385219343 0.56450318865844 10.740666714941575 -0.06223715156335088 -0.392861220610375 0.2830136662579126
Ni 7.993588787161184 6.83742897464726 4.713918270062889 1.0030616480989887 0.4890014526790739 -0.5200968885322979
Ni 7.1417221869948975 6.01972894856997 6.957752168910435 1.1525496996612086 0.056952249015327715 0.33109303826364267
Ni 2.603144195861935 5.107248920580728 2.576570193792716 -1.3171905477044672 0.5189342356827643 1.103723679297441
Ni 2.201210144059008 5.5832014675525325 11.503547644474159 0.8931503303881264 -1.4162577236119738 -2.448880887418163
Ni 1.35856179819903 3.3586777680213147 3.9787656678432004 -0.24275353318628515 -0.1656744315140953 -1.0899189122038648
Ni 4.066984815655767 2.8365703753503397 3.020326057669651 -1.7413168969767105 0.019446024539753606 -0.4273271155977286
Ni 1.1238187252382956 3.1668472582106357 8.493961988324351 -0.6973381989483861 0.7590444177089315 -1.0850824100471699
Ni 3.574539313196025 2.621771426977441 7.279735347502238 0.1636309187215053 1.1732830755538182 -0.1919840159429016
Ni 4.326994079237338 7.014065258394439 5.990779089036188 -0.07609179805825604 -0.9000146616081274 -0.44775787264825473
Ni 0.6914081256760797 7.670159750357003 11.44254823063345 0.26515195548614334 -0.4881594163937529 -0.04340664912040912
P 0.2261387634732503 5.743644502602028 8.027436582209637 -0.636562205311594 -2.365667133603145 -0.16143031152576068
P 8.49547959452591 1.4457310640433108 8.08555063704235 -0.22518184285110898 1.3703025970380982 0.3566163793457277
P 1.8051884898456438 3.2603921048657813 10.469167782864524 -0.06134369321480403 0.27545770828752564 0.6136523905929561
P 3.961751404180701 6.223702124397924 3.9192021219885294 0.8746337596411776 0.21822160948319194 -0.44390198923727414
P 6.800165430392302 3.9712875293251573 10.181691754259734 -0.36223938195946004 -0.7052782797310693 0.6883239112649178
P 6.3288992077772015 7.792494612924461 10.081214598725767 -0.40436819280871006 -0.326283018469509 0.7293849429712858
P 2.322527819944391 8.451686075052987 5.704605422665413 -0.06147404814508122 1.2519248937274374 1.4993233818849019
P 6.9486111118076765 4.101750803325271 1.5738139395668895 1.6758926059346297 0.49590743577028784 0.503949589348474
Ni 5.411523968880472 3.0563281087983567 0.6533190254443304 -1.2703401630098314 -0.16728908429938286 -1.6883634847081312
Ni 1.4538776395238608 1.1582032679020222 7.191526189916014 0.6967010795850196 -0.7785326083405302 -1.0263951806186065
Ni 6.75661712556595 0.7420740126697752 9.35789224089957 0.4529047069565168 -0.5093139389841809 0.07978467352881098
Ni 2.743334317509395 1.5472045176042768 9.249544603413044 -0.14039380257043563 -0.9824388296423147 1.0341146607500513
Ni 6.387723476882578 2.0694844687302467 2.5228554713599785 0.029567686354787785 0.012997440700932453 1.7740318707112284
Ni 4.211952081899402 7.088110999635157 10.457138642146589 -0.7988774905454693 -0.26599450599209673 -0.9351338739087638
Ni 8.090357752317551 7.258262718284104 0.11235916746396181 0.6437726070171041 -0.09871879142915256 -0.5550114410212957
Ni 7.7024281814410545 3.645233787600264 8.049023644929502 0.21686303857276845 0.3035025302398837 -0.05912971628262074
Ni 2.991591442103416 8.499602833397896 12.691414618992205 1.0857552677444786 -0.1401858003246876 -2.1277146213499294
Ni 8.81267836290238 4.738455174160774 10.004729425852856 1.575611355114364 0.9479521087193545 0.41206890388707745
Ni 8.895451929156264 2.236166854231402 5.768462041239879 -0.7588808955478737 1.0610222837741725 -0.3912393687362359
Ni 3.5173498084011263 2.931822642507541 11.724667681514243 0.24196651850861553 -0.6993781121965503 0.27790514138675365
Ni 1.120004275180513 3.615026975952204 12.852413473907264 0.8394811229994444 -1.8127549983130393 -0.07835796838461344
Ni 3.0975695795421445 8.267375481070507 7.892251563959425 0.02474763925832512 0.10000794255422131 0.1419727170217813
Ni 5.836835150323238 7.683582981750819 3.47887563035402 -1.2191338153393456 0.3125430431755972 1.1959825740338628
Ni 3.073247919411807 8.460813509119824 3.5963942956223303 1.0323357144727576 -0.5439986348505599 -0.4640517247122718
Ni 3.604755206868032 4.540839415095791 9.703269804976713 -0.8985331919665944 -0.4667547254657316 -1.005659233622836
Ni 7.222779250722779 6.130111867623042 11.336302173488283 0.3664328512155173 0.4703295873011835 -0.5686614277045625
Ni 0.4173298987980537 0.13022169216312118 0.4581563210474594 0.4831480792220905 -0.06453494645859209 -0.6730821546144989
Ni 4.745094133666106 0.3700316262839435 1.7594695812959344 -0.8323532537054117 -0.86497721038802 0.006832192430485007
Ni 6.12331851371061 5.742209542818387 0.2860020161181756 -0.7643087514316643 -0.43039752699293615 -0.5564422599305514
Ni 7.722108927334424 8.88440818803659 11.469519117149158 0.4098837233103006 0.8532349822504274 0.08399614050699727
Ni 9.28664194662977 4.634484164014355 5.738873715422616 -0.5302542886812739 1.4577242182868766 0.8941412335464859
Ni 7.981346218880491 -0.3662226254405291 2.542475367692902 -0.9796538106980096 1.1897674463620862 -0.2935988979729266
P 8.57776273148665 1.564414952984034 3.6869956583162207 -0.20361362976202999 0.5870425013149115 -0.3849810465313499
P 1.9124653567088075 3.1578742185508992 1.8101808784093658 0.19267692824486815 -0.3783452863823871 -0.565721114129316
P 4.6015981553019 0.945465938965115 8.166076402369328 -0.27391324661854116 -1.1681706940279173 -0.34992045538279093
P 8.589115261420528 1.7195904141442118 12.625816976427078 -0.49075057415969675 0.5434054813512512 -1.1399111849615915
P 6.325375382485726 7.849820348078566 1.2920614024535628 -0.6287694487400526 0.7739185066072866 -0.7177226761420091
P 1.913755004109296 3.221548288444028 6.0663860301934145 -0.5063795389462052 -0.33781621592008915 0.40228482791712006
P 6.943316291846517 3.681679949699982 5.82401133250993 1.3671799922487164 0.09960145114442201 0.1123906324892903
P 2.4814904850905095 8.54214303356612 10.360568573314664 -0.786574247698084 0.16947709308963715 -0.6966745972224582
