# total energy = -340886.1641377624 ev
CRYSTAL
PRIMVEC
9.10798887114110 0.00000000000000 0.00000000000000

0.00000000000000 9.10798887114110 0.00000000000000

0.00000000000000 0.00000000000000 13.33046236254210

PRIMCOORD
 96 1
Ni 6.5629710190781845 1.9151186489634384 11.332200094937726 0.14204573635156179 1.2795130877583512 0.3220126732289293
Ni 4.5198122595552315 0.4046069315278478 5.814348053411674 0.4913198163996055 -0.10105386732023242 -0.36162385986264817
Ni 2.5282684741780153 1.358329060207979 4.327214722359933 1.717819842296035 2.9970585933470772 0.45935200524375724
Ni 3.717944900495645 4.782149669175782 4.776504537540784 -0.49486356788680586 -0.08812456085307403 -0.6153927703228305
Ni 4.14419878968225 2.979150365850957 2.5317085616554893 -0.3358112696749184 0.49889428631275373 0.601729413903125
Ni 5.281650006585434 5.277132443999184 2.276723120824499 -0.38444265752937656 -0.9012963565340284 0.22976689111863008
Ni 5.330405072158424 4.610281915138362 11.632601612543075 -0.37988923383073925 -0.4591589153963447 0.14946619718534906
Ni 5.594764455355885 8.128807394613906 12.312868209326373 0.677057337212163 0.6914958812349962 0.38546929902167804
Ni 1.912577520008672 6.848360749073335 0.506886916557737 0.07786714479112396 -0.5546617709913609 -1.3897463075850065
Ni 2.9395943692540034 1.8647879012787125 0.40183719204704343 -0.23387757085289398 -0.9950961133950088 -0.26418933446255793
Ni 7.787895363155475 8.74774990088666 7.335553460832179 0.7265104496369682 -1.2532032462192289 -0.8823318996163837
Ni 8.79924647117429 2.6238386036488492 1.408763638968276 -0.2775230754569865 -0.4018554536891854 -0.45611138681927255
Ni 7.1090587206585525 0.3731087728745565 5.082678698628325 -0.11754826543082982 0.6770200562163243 -1.2901284013803525
Ni 0.5135831101331642 7.793569640355545 2.5075669257863007 1.9399004205140011 -2.1086555478359488 0.3016145691885515
Ni 7.994200423923974 3.9801639062580882 3.718425802319343 -0.8822514240874353 -0.5071691247270362 -0.41369358397469397
Ni 7.4597982723398975 3.92429550120957 12.744482150089606 1.5646589698679183 -0.3815720208498009 -0.13446561001145876
Ni 8.7303900736903 7.074830897676432 8.952019326094621 -1.8299201972384165 -0.8774455180583599 0.4632567396148022
Ni 6.904775633466964 0.9133218214949812 0.399311546673722 0.42727646486545123 0.2610024520941441 -1.3779027779828592
Ni 2.100047259349011 6.504042329697045 9.399869168201105 1.0800733868683527 -1.323331113384566 -2.085677855993853
Ni 0.4855332361475234 4.894587794432376 1.1501085893348653 -0.5786391077425648 -0.4051266682412894 0.3350497089185456
Ni 6.7463148393629355 2.1244566700973038 6.5960066062890546 -0.5528643127713059 0.08404473435674557 1.1443280830823648
Ni 3.63372332542495 4.790137375603488 0.48444938544638655 0.6576565640880481 -0.16696178286695115 -0.6205208355780152
Ni 6.112134667350668 5.811161168030768 4.59378370370946 -0.2908568164514152 0.8439854386277011 0.8426646629337488
Ni 5.468637022504259 2.903226168836864 9.367302642428122 0.24083729000017878 -0.4267637868950908 0.39929180672706716
P 0.6983441335195697 5.863213325652594 12.282874690469953 -0.36672235743147813 -0.24794407624828907 -0.2152887521071131
P 4.101564292774504 6.4455781477592495 12.447052569322752 1.0125842428774432 0.5416841277847703 0.30196449632880257
P 2.448537137726316 8.786194722815223 1.1450937305445632 -0.16289943987211947 1.5946323763015569 1.1897273371527706
P 6.158858651357662 7.77869629417944 6.007332680143093 0.5836563584514981 -0.8191609233848537 -0.9065717460003547
P 4.91876950545354 1.2174557930274406 12.57379934543217 -0.14172254868418815 -1.3421793564393207 0.3650238866831326
P 4.093858934008438 6.186556046165706 8.019139919637025 -0.29382129839637783 -0.25599085781216563 1.230319913863152
P 4.773487971555772 1.2743260768753284 3.704721921941775 0.054001136806803775 -0.5816825225545789 0.816216238934233
P 0.26300775761722 5.796023690171193 3.535265052615204 -0.13167082087514098 -0.4542560787780886 -0.9520833572789087
Ni 0.7671695638406699 0.0543255116974876 4.665821521780905 -1.813286445336477 -0.9840321422713635 0.13662019446061632
Ni 1.903906714399577 6.763674666559296 4.47906220558921 0.3544080588404993 0.8648975061900201 1.2778639821907025
Ni 5.915356563165271 5.409908708882994 9.509485638439111 -0.7561768663531493 1.1960694773207143 -1.8314700582240393
Ni 8.761885499946866 2.473256220103505 9.79146442652186 0.04248850818151392 -0.3666470241088524 0.5915794699533167
Ni 2.421850729706727 5.359158993700349 6.52911389125183 -1.245611292804584 -0.9426947169751572 2.550634866129214
Ni 0.9864589738490075 8.903696890003179 8.746782632445814 -0.31193472016763696 1.2059129457736972 -0.66835749544532
Ni 1.5147496647569267 1.4260833910126616 11.351662046014946 0.028990987915711364 -0.9821495805366698 -0.03787543488953477
Ni 4.160392794275706 7.3478155465375625 1.1553110727003226 0.8795723345933755 -0.2057892972571101 0.4293127785691897
Ni 5.536027033745534 7.9553093105302395 8.123157708984367 0.39603781856614373 -0.6401789761285749 0.44258918396312164
Ni 5.399106633827966 3.3815322156452945 4.72947452510053 1.606065814949479 -1.5559082202584817 -0.36607546787609857
Ni 0.5647199148519289 6.99325063944044 6.826809425299973 0.6096306710280727 1.1928666541127004 -0.9378301897940042
Ni 5.200115288294869 4.259970438944022 7.364134330581486 1.692440225880666 1.8423049440560142 -1.1107708159522096
Ni 0.7484726838466046 7.544912430340941 10.789116208157651 -0.5511223903795347 0.8412968360519446 3.237627717287534
Ni 4.575370992974853 0.5635076415046909 10.296889510831425 0.6180772591335291 0.32818872013265415 0.011630642260392872
Ni 8.172635038091812 7.305700205007672 4.7050933491184015 -0.05749526600299131 -0.12013942319677375 0.2554411559562827
Ni 7.47826927420465 6.134868208107288 7.207874937439346 -1.399540925077925 -0.08351971509121099 -1.1152234524069244
Ni 2.343613103464998 5.5994095297893285 2.39183170848087 0.563311733356875 -0.17142933172000152 1.2486765619934688
Ni 2.8612292311650815 5.0673754553674 11.478355084988761 -0.9165807934969246 0.1417325759865172 -1.4672396139764796
Ni 1.2793719028285204 3.4906459248857966 3.43148771417971 -0.22410686461937532 -0.1702401965079068 0.668385520469778
Ni 1.0869565254149263 1.007780776297423 2.4748136862370713 1.8096658178647542 0.5931987507242945 -1.120029615546316
Ni 1.2872047734417784 3.181620963214594 7.866426266645748 -1.0333970658577365 1.8049133907814336 0.052053783272445836
Ni 3.9306528775910285 2.67315836454512 6.616362051095533 -0.36288987105926535 0.16154498272675405 -0.8179229372126947
Ni 3.8470051058327 7.133877990915679 6.072518558025753 1.3797611713478366 0.40849661315478686 -0.9768469373768337
Ni 0.7144989737599603 8.903605810112326 13.030154227746399 -0.051627237257988505 0.2404981614932052 0.8034712805637388
P 0.48595220364544184 5.201818482253799 8.097562438057183 -0.1800875216156318 1.0105255605762016 -0.6289445408653361
P 8.793280738323496 1.4362387988426417 7.8713983178873494 0.22868805623215452 0.9277038999932796 -0.8014768758415294
P 1.9029959154910587 3.203634972833483 10.289157738897012 0.577382095407012 0.7911107021158569 -0.7409361381439948
P 3.9943359372746343 6.445459743901143 3.5652321583032758 0.5997897736782508 1.961072940826558 -0.22158718352131515
P 7.306920675545086 4.072855911178005 10.58569382593461 -0.8068638511850557 -0.49357415965142093 -1.165990912767779
P 6.44336490641155 8.034876703178407 10.235876002748688 0.33286170012829125 0.09844265494963046 -0.2607710528096283
P 2.058514829120573 8.443224285823538 6.1509419872448206 0.825343655156798 -1.139183819877264 0.4372047797227567
P 7.096134484146677 4.064376373339698 1.5199129837693173 -0.29827393485109277 1.6126725216327193 0.3132974048431185
Ni 5.345387714203552 3.011019219660015 0.2754711298813856 0.09205166382162211 0.6065404621385231 0.561340468563117
Ni 2.0311544299086806 1.3383916721005116 6.671976343248573 -1.1477111406219849 -0.6632939648794834 -0.24599235183855697
Ni 6.85255042405252 0.8330221465243663 9.085603469610287 0.009144128393113283 0.34474482471912243 0.2482724061219853
Ni 2.8650545865808583 1.8150218489172678 8.756954434656148 1.2529916444290548 -0.3120043970633078 2.3927385358986406
Ni 6.451616744522726 2.3141305427962577 2.5285353382582114 0.9141055924835548 -1.033762162506639 0.9958327344507171
Ni 4.195212636548364 7.252054149295939 10.347558164911211 0.7955173158239848 -0.9981603541426292 -0.30966572162780215
Ni 8.583359805888177 6.887388482303348 0.46959243365063463 -0.5986680013689819 0.8055896124583223 -1.4899565959580212
Ni 7.469634900551896 3.9643433292171237 8.18485067305286 1.2869458898873125 -0.46558590196861105 0.45080205879121715
Ni 3.127984015491946 8.689877738239403 12.258800453719994 0.5846608884566125 0.02576888143398788 1.4410305596812796
Ni 0.3241642611285956 4.832516848816849 10.295689988668906 0.21646477469308528 0.09349122448162607 0.20679254171064387
Ni 9.047384525811038 2.504842726250922 5.776702912924793 0.010764951825987912 -0.4309096907426643 -0.2684265124723571
Ni 3.7760265468918623 2.6831862605279073 11.543287760774854 -0.3188242481986186 0.748982148376923 -1.0384824508004438
Ni 1.2498438022143543 3.639424926592275 12.511906005603803 -0.604314658131798 -0.5424608580497948 0.4344015059460067
Ni 3.2956985265065213 8.672854906639195 8.113106132229959 0.1553113431122164 -0.5355762151148197 -0.5038894255344999
Ni 5.831435551734388 8.105827938151988 3.2783478072992462 -0.1890537296699841 -0.3808292291465054 0.35254966547552186
Ni 3.308121823618712 8.643071782330644 3.2940909664329867 0.05495321630742794 -1.6851511484184203 -0.61452013790989
Ni 3.626691957851188 4.2789605961866295 9.007354002982748 -1.7330698264765703 0.47093276810282114 1.1169646034677472
Ni 7.477668146925028 6.274038281328896 11.014708346612935 0.7091382769071077 0.5242875295748778 1.6432586219496927
Ni 8.080325568713473 9.259181703997903 2.294532882681668 -1.720739072825359 0.8031434649106749 0.6089513855728609
Ni 4.877546746853998 0.6070702425002168 1.5788863022969741 -0.6083268646149846 -0.23262775760619292 -0.325677009454394
Ni 6.181273412496299 5.980068825615503 0.07498060934486755 0.15342878137752286 0.33693201354292296 0.8785487784248676
Ni 8.204904643420617 0.2759647828898026 11.191642874978442 0.12427118597696019 -1.437276491955486 -0.8236906929344071
Ni 0.12261812465710464 4.9590723571554784 5.563042240171098 0.3044993469355143 -0.02459671550275764 0.4701282699236548
Ni 7.467485415127793 6.169824670216223 2.4433938562899122 0.4590385877683965 -0.2645783423708605 0.3597556963056578
P 8.467123649183062 1.6322609399339687 3.769428719598555 -0.12173479270835164 1.6226355463827022 0.04791045052803362
P 2.354761282105263 3.516886041440211 1.60557453191438 -2.1663086795730435 -0.19943224469083073 -0.9562899391610885
P 5.020979358967473 1.2969867537192659 7.883808863814821 -0.4281681234417851 -0.6043233998825464 0.7156573089725481
P 8.781039600993008 1.7150981006637158 12.643143931131126 -0.12157589853298416 0.871897591656937 0.3929008155990588
P 6.794423237710877 7.946474561117612 1.2562558265303236 -1.7422016135745093 -0.757857853599998 -1.1478072998802167
P 2.164486282126687 3.3898113777237264 5.505214706670358 -1.0373164555168006 -0.7776193524976415 0.2901852443056873
P 7.091416545800551 4.264442461584847 5.909527450150754 -0.09350665110059381 -0.4717820034769939 0.013395961690931768
P 2.5543810788852377 8.74693928985808 10.261896616766148 -0.9652317217354086 0.37827715214861307 -1.6555862902771101
