# total energy = -340860.8468738367 ev
CRYSTAL
PRIMVEC
9.35326329237843 0.00000000000000 0.00000000000000
0.00000000000000 9.35326329237843 0.00000000000000
0.00000000000000 0.00000000000000 13.68944627073919
PRIMCOORD
 96 1
Ni 8.871888203986147 4.7246512787441866 1.9372619143245435 0.25561059165461136 1.5970062758503722 -0.5451085800852871
Ni 6.857906147849928 1.4334717724981 -0.15891007197220536 3.0189530794273236 -2.2891500750820124 0.7684459135284896
Ni 4.487059685656689 3.3447082318283146 9.621750542689256 0.07658339298269391 0.7834025348383218 0.007798155888180118
Ni 9.720472365644925 6.36453086465284 11.21418944206539 -1.326505911568122 0.8971296267508485 -0.8663298677611726
Ni 4.690511867880106 6.323956408672463 8.969215455391176 -0.41494673965550477 -0.18691560028105875 0.5148580087308617
Ni 7.595607373674823 6.448972125277749 7.911583054106249 -0.16778582143014328 -0.28712717420565387 -1.0228676270813222
Ni 7.005612881100763 7.137007523242846 5.130393967895317 -0.40549999242030815 -0.6866146418832949 1.4070009809003963
Ni 0.8007440907854635 4.730646720487714 12.903274675281919 0.016357358312100858 -0.20994034331100617 1.1155031884308726
Ni 2.744415796415529 2.714429234434641 0.5003995838981616 0.38680601555523064 -1.1948962829482195 0.14478807498338936
Ni 0.43633066595902115 2.6679061030269873 8.107342177306183 -0.8732803309370767 -1.2714915030054554 -0.7927757485231056
Ni 0.6144429873843653 6.149967005687909 5.246931886690411 -1.973627380452801 0.382186000284716 -0.9429803665363761
Ni 3.7132922767381245 3.772002710161092 2.8153163378327855 -0.6316971639098089 0.17181782540767185 0.6390931992635638
Ni 7.63920293368509 3.5674374896108736 13.680342850801562 1.0815157757418343 1.6842690029237835 -1.1381571783849624
Ni 4.9477640203200135 7.858424717748738 4.611563778762178 -1.7667728751559701 -0.26316295008057256 0.8383670639996593
Ni 2.4069874713929105 2.734856761373586 6.8849698150650545 1.1418266568167499 -0.9332988775825539 1.1658273906067211
Ni 6.317801961453678 0.7488054199558094 10.652236968042454 -0.4464625508755988 0.6639966473734629 -2.3648698345128305
Ni 7.714113219057808 8.9400173735023 9.063933146349335 -1.073900939509054 -0.13745837409119555 0.49710994071882136
Ni 0.21513253737055768 0.7105524439141889 5.765980942183611 1.017216342332816 1.1567470255720078 -0.08284300073916055
Ni 3.270125310669362 3.822472918660428 12.080566316405465 1.3262256613235417 -1.6996483135933311 0.5768545050383163
Ni 4.342888485914516 6.011538709581502 3.2341451775975965 1.0252099020612535 -0.06541632062228088 0.26087261138449913
Ni 8.64143315075873 8.671934142218392 1.6396803614014197 0.946035351312616 -0.8667785252628168 0.9262306578818628
Ni 7.0239733368613635 8.527950007741227 12.196967677557103 1.1446381581236158 -0.8142215771017074 -1.8709853427098422
Ni 5.065175533902699 7.348550278177887 12.872774619148583 -0.8622405281831473 1.306589375149853 -1.1746069365715641
Ni 5.1008956462561015 2.064695449480067 2.1863963695894 0.5465859359617619 -2.0692551916614557 0.3304664604232373
P 5.655076493844252 2.953966306278228 7.514260172533157 -0.8777355384949528 -0.615363716857108 -0.9827980127539461
P 7.177320087852212 5.745718968004198 12.028697795050189 -0.43030419594818153 -1.7103623575767255 2.3555344160445175
P 3.7588146089779815 0.29996850570463446 0.5536804480042528 -0.6089323594094674 0.6532538070346621 0.137215404842454
P 2.916581313066248 4.5082541801821705 8.648704377609615 -0.8087291865285684 0.30094788213883006 -1.3198688658675786
P 1.2230794689428617 5.844255596347509 1.1601338779200983 -0.9243406399480016 -1.3670617215032972 -0.5624902658968441
P 2.5665354359187953 5.649932199056515 4.26270202474223 -1.48275622155484 -0.19167676911512793 0.5361619124149605
P 5.666599714168786 4.119766391075439 4.1768549686507805 -2.135901528036096 -0.4341757630884458 -2.829235748031411
P 2.15614230427955 0.5247311629178378 7.36307402535316 -1.8247047144757478 1.1093927046577605 -0.04525964316874786
Ni 6.511910233689912 8.525667811508121 0.6314041949627004 -1.0836027401778499 0.5731942825779097 1.4691859390695727
Ni 7.7501606956249764 2.1450961003807882 7.064972430993311 -1.344419301513433 0.2689517888482078 1.9497847695072485
Ni 5.296874571142422 5.260368784675983 13.48283186139482 1.9204253425085245 -1.1686252650668325 -0.2025623056793802
Ni 7.540133169336505 6.3477978766978165 0.7681068139994027 -0.028063333895119412 -0.24051255967090837 -0.8186981248158223
Ni 8.2378491947658 1.7782424091723084 11.631620904300584 1.3291245801378917 -2.0608505125375283 2.8766918846308456
Ni 7.615473704818742 3.9552892568165756 3.5999550446273285 1.2289963099557222 -0.5933910692407587 0.9093199981694533
Ni 0.13622186130563022 3.286998597573143 10.528881455664118 -0.047532241253008464 0.4369535829438991 0.6444230961169096
Ni 6.704858701283093 3.874710893914096 9.092023801869361 1.2069167044478633 1.3965185933118334 -0.48917243103929947
Ni 8.838169689968336 8.092564956696824 4.549906132088998 1.6649664459404292 2.150453971928974 -1.0494129816700186
Ni 1.8525447324337474 4.645803269543037 10.553235482515595 0.8954501821658966 0.11874357129051162 -2.060533752628058
Ni 0.40122132169587105 0.5773283034803224 9.301184280654518 1.5581255396247746 1.033646462864381 -1.1987249126656903
Ni 2.216816922985108 2.368470733327628 9.669075248757471 0.69430686832123 0.19267127181791333 -0.03700537357975563
Ni 5.117039378626348 0.5880826855656702 12.510866933546932 -3.3790227074289745 -0.8294031699381522 0.811693668473531
Ni -0.04553916811370784 8.881157287867325 11.198843543050403 0.5749542026918099 -1.3714194842513607 0.6625115781875042
Ni 0.434297266528377 2.8055487250203583 1.2279992854125894 -1.7411945124662336 -1.0934819469647747 -2.223457103759577
Ni 7.197981446372418 1.7985389904257476 4.692002778042225 -1.2193143067812677 3.178573591437855 3.345375451688174
Ni 2.829296660413208 -0.03128105361474788 9.620778738637535 -0.20924408857492993 0.5280297702261294 0.45986262633158864
Ni 3.4070944977087017 9.134780374166064 2.790757474516124 0.8042824636111245 0.5611589486799303 -0.13184976965516648
Ni 1.0754288552715277 3.993478630668093 3.8079519774641306 0.19567432031029527 1.922053365030251 0.5687074504511496
Ni 2.171556482116263 1.9325151332249488 4.843038337683891 0.16362346252233756 -0.5669061355763526 -1.9738783201213423
Ni 1.7870905962072179 4.8904472231213605 6.511617476550174 0.9103245281745677 -1.875247717530622 0.19249258014820397
Ni 6.097729030434241 4.2461383308520375 1.6853757290114098 -0.1417505737086462 0.23901437785882707 2.0081853209333285
Ni 7.3198170534725575 0.5379398412800992 3.1437262464293365 -0.31676042369105445 -2.7503992973484825 -4.326273162095614
Ni 2.396062859916405 7.190105998715554 10.038922919532414 0.024264271864003373 -1.4969715938232735 -0.020521516992119498
P 5.3850384305410035 6.960707864235435 7.065479377861485 1.7593205326429833 1.7957409802535462 -0.22440125593134258
P 4.177204780696347 1.502236963915283 10.6041191052506 0.2946404518635635 -0.14352900576530764 -0.12586809815043484
P 5.368651513326245 0.4195546529930446 4.005874510453892 -1.2499641704566409 1.5191301321981836 -0.37226822695037176
P 8.283923369537431 6.466528200398812 3.292517022890898 -0.19484745353362573 -0.9209328998180332 -0.5173586636655283
P 0.8990824299478652 2.5900401864671334 12.640547122535208 0.20118393727461478 -0.7937432546426975 -0.26079419273807986
P 7.277923787373869 0.29765918500810257 6.151995728486928 0.8419375549597372 -2.26799118161621 0.6587706230878331
P 0.006217114082562767 7.395017290006038 9.167781492892567 0.14862673200318918 -0.31746387751598226 0.636442134793962
P 8.483344295299913 4.721723707346801 6.64743060025176 0.5408935135626749 0.6688246648897256 0.6145463631621352
Ni 4.994446157202924 5.2412881276451 11.107001045215428 0.5529658713461767 0.8277995728964583 -0.0804691011903453
Ni 5.732671165769844 -0.1279816363819988 7.750841613189608 2.6768606047293835 -2.555294476388412 -1.4313243881371092
Ni 3.6456307703844923 6.334609775514706 6.10472620667189 -0.5136966414329088 -0.7296906471371627 -0.13921675154319893
Ni 2.154907673530493 8.02699858131129 5.20736945379373 0.04043959607228519 0.025308911078433832 0.4801432309574956
Ni 2.7542086630387317 8.116256772510171 12.199746532068806 0.26296574646810195 -1.5028455361055473 0.7299976368546203
Ni 6.525771769827053 3.329163108306094 11.4039793126589 -0.6659296027301176 0.6322941740638595 0.4679371758096071
Ni 3.4726702263574873 8.293950067741896 7.65972399325654 0.6705483324490517 -2.3286198510418603 0.1285595289396689
Ni 0.5083386337451291 7.336465862058328 13.444664935375103 0.20396355690228096 -0.730933004184696 -0.18508806015401671
Ni 7.301082467181939 6.811495255601279 10.325771602875667 -0.3665045849937172 0.7864518631876068 -1.3436520843301054
Ni 3.160570538217041 5.177676584278905 0.3883175597155738 -0.8108901987356294 0.3528934219681858 0.7008616387206124
Ni 5.293395157213262 2.8182785163041975 -0.10065701312218404 -3.018535018053298 1.6452941643224825 -0.43779279101574275
Ni 1.7063158147764792 6.764120977237837 7.806242862074573 -0.5630219700305981 0.7041467372297874 -0.11444802923895128
Ni 1.761256883109522 7.411394853957546 2.36311318413778 0.5196181491236664 0.15985602506010532 0.7318017799428946
Ni 3.87868603079553 0.3824998299738045 5.9254082496135645 0.6743119132565419 0.9705176527246961 -1.533064740001405
Ni 6.429629576875853 7.462435611515158 2.7297854220392015 0.7307800235465995 0.24312454337245873 1.0996770200318933
Ni 4.240414133742773 1.239606685106377 8.205577630572831 -1.349213894688599 3.430616520345866 0.7032000570458019
Ni 9.956922860615869 4.751766388907191 8.644105378069378 -1.1912147203315742 2.3295130522800913 -0.4550582629644099
Ni 0.002870516491557865 1.6693143053577664 3.557900902400732 0.734006243793381 -0.06826561714561791 -1.3348149456544496
Ni 4.627573759467944 2.829736263785978 5.495696888056876 -0.09433120388441818 -0.3024622619008275 0.712681771283992
Ni 1.440945029835196 0.12135578469539211 0.5201302927249499 0.9541610657435439 0.5926356791319728 0.19765278419290475
Ni 9.101810121208288 8.510683883780928 7.218335082531684 0.02117843384982804 -1.6685536490710555 0.15806036661226325
Ni 5.971890226662916 5.200592079242466 5.840026986031988 0.6288306409952912 -0.4377156579209042 2.128806054641895
Ni 9.17919902134237 3.07585803295787 5.489029882011967 0.4894046016547636 1.05143181187226 0.6559120705931155
Ni 2.4938792869894324 0.9066239661066893 11.75889169267555 -1.2732956460937297 2.2000006725088497 1.3815329185362788
P 8.796987271876679 9.198887640484532 13.249495067759947 -0.4990482953921147 1.190776347242575 0.5254519821966241
P 5.11664654156983 7.993813203298754 10.543707313242379 0.14082111991584134 -0.39915553825951905 0.2752471349386163
P 1.8864035454003147 2.5927245730200075 2.5906182181360102 2.2215809697827873 -1.3942835333337278 0.5800745546375107
P 1.2635136259744835 9.076378598430361 3.6023504153457644 -0.6952823448606219 1.8748849348745646 -0.32852399198488585
P 7.943090456691656 2.1902068890376265 9.645501284061078 -0.746286860932947 -1.2055658468469237 -2.080364671311056
P 7.427959483174063 2.3523550607471315 1.7717428265395825 0.354037562874958 0.24912395548900318 0.981284147212581
P 2.5544510197992363 5.866899846676807 11.98746486933698 0.8188917288838671 2.67376268253035 1.5358160774942968
P 4.837694818388919 6.951027236771237 1.4281647309298044 0.14212286944640037 -0.12255985971280828 -2.1670447864081193
