# total energy = -340889.5632221992 ev
CRYSTAL
PRIMVEC
9.09013354987452 0.00000000000000 0.00000000000000

0.00000000000000 9.09013354987452 0.00000000000000

0.00000000000000 0.00000000000000 13.30432929502293

PRIMCOORD
 96 1
Ni 6.306916485900986 2.0808406598549576 11.40067919639867 1.1357616815695923 0.20333955016503688 1.432185964806456
Ni 4.735768706448661 0.46737558151125563 5.973324945468466 -0.15056971466217292 0.5011671415073304 0.292168079063671
Ni 2.79468885050643 1.7054272328115965 4.889381055922507 0.4892541921198284 -0.2557813129045208 -2.268395101922848
Ni 3.593193455261266 4.696862934692794 5.3663149129013545 0.6781899081547094 0.6966828247525744 -1.6776039321987821
Ni 3.748343855338171 2.641511009418082 2.540262374476871 0.8966688850643462 0.7317490723280882 0.3558309073299549
Ni 5.071967297194169 4.842659587307832 2.339166803193691 0.10742120429915694 -0.5087390403173174 0.05577519798809103
Ni 5.058132113873508 4.357282814252617 11.171472386995159 -0.4028779814164287 0.3940045901861989 1.2233979899323382
Ni 5.782524859486851 7.954266855220005 12.363061638488078 -0.5670380331685267 -0.15772586609097997 0.7809054794480809
Ni 2.4222751675470495 6.501363533478036 0.03177728899629972 -1.4462033621314705 0.9420771379958164 1.0360802691168542
Ni 2.8060969681591437 1.7667310937278518 0.1551613082372101 0.25740676432308573 -0.7582530321558877 0.7933884424064401
Ni 8.093918577529676 8.909494453162438 6.749299654125892 0.4670987390687117 0.8772429151292506 0.7582286066758555
Ni -0.36323173902232414 2.3614530837109484 1.0603059061641928 -0.3996800433044213 0.4507514080589398 0.800996079550369
Ni 7.020310169873068 0.811749838405648 4.892693500601909 -0.2576546186678337 1.7694982445069334 -1.1859925527006865
Ni 0.8032978321956934 7.173333478690423 2.0951394399885976 -0.0768692996542289 0.6784583313247476 0.2207873133278391
Ni 7.943158711975689 3.908512009155552 3.506249963547207 0.8010156199343946 -1.0541610378779653 0.9574016841680284
Ni 8.022951904609569 3.9082756656822686 12.523471589858895 -0.9185803404254568 0.014510020690716947 -0.5739900390063275
Ni 8.643008096901918 7.401568552813398 9.154881700352268 -0.5187434598281969 -0.23130492502971134 0.12304785509282033
Ni 6.735907160310957 0.810186335428543 13.620573447773221 0.5305376242496476 0.052484957272593474 -0.3742533757012006
Ni 1.9130458839573958 6.543714465863687 9.263617878329766 0.017594058932679374 -0.1300361134851954 -0.6897092216482186
Ni 0.1959996423938484 4.7860280550557155 1.2980238076459805 0.5484011347936297 0.1996883265656948 0.16458916886971653
Ni 6.33166891966062 2.2075207615348114 6.874054465511845 0.8437692088518371 0.4520711553116279 0.23090640403971202
Ni 3.5705862930283585 4.45591076368046 0.22455084297983097 -0.8414639577574282 0.39601365019642765 -0.10928345431887632
Ni 6.040557391510697 5.992816009907469 4.56277255611215 0.32856821495926 -1.2664125458206512 0.8217343405389848
Ni 5.582987337100622 2.7479110230635104 9.360873217585848 -0.45779983026528903 0.8786590787504868 -0.9096825237151945
P 0.3732854267704526 5.875326033284901 12.59716439384199 0.4245462104184818 -1.9169515250273115 -0.7877101610747401
P 4.42418619745897 6.2687106544313815 12.298096271762647 -1.1439542446827138 0.18345155299185825 -0.3648439094618426
P 2.402849552069879 8.402764956309435 1.2591698496515633 1.0071571583246008 0.7764155619975274 0.0460487147289465
P 6.454922040977865 8.026960653521797 5.55892120842687 -0.5971626204680489 -1.249438379860158 2.102974181180456
P 4.747676781448705 1.103442226091832 12.642452348389865 0.713341773465494 -0.47149352570229763 -0.16243895529593314
P 4.05005447925149 6.051038315537453 8.164268030379171 -0.8966979385300685 -0.04323849897366102 -1.0394818385992357
P 4.863076027346075 1.2224229846228025 3.892181584165034 0.09123533856791384 0.5787735764379001 -0.6084783025911843
P 0.36195912032002936 5.842665183303865 3.706386525736872 0.2860861345356492 -1.0551460274990538 -0.9636355808928823
Ni 0.9837160766066602 9.088597355243246 4.500376061138638 -1.5882264727752133 0.3598127747958384 -0.9381106971489004
Ni 2.0400168699120598 6.770649650883604 4.869530931206785 0.4918934295148883 -0.665994394529782 -1.1992651014398765
Ni 5.905559817597989 5.5188291742377915 9.30148282978983 0.06823296413546959 1.7027084405758934 -0.5090486011379363
Ni 8.534580983466407 2.304730650122954 9.94597057412616 -0.11703147369541135 0.8290699549684496 0.7735510959655388
Ni 2.1870043300271025 5.220990947232884 7.0950256138847925 0.06286655761723366 1.1073111395383834 1.1457031090530203
Ni 0.5757099755841719 0.37239277565212875 8.803648028652507 0.11540730782842706 -0.5893978889209656 0.41707407041115263
Ni 1.2685190520466358 1.069690560080258 11.089970249246768 0.35122631867840803 0.2538468148859693 0.769864391142571
Ni 4.382989712038971 7.096812734148157 1.3952246061005356 0.5764050762057233 -0.021464597631679162 0.056675084094541105
Ni 5.623274809161838 7.762701379990294 7.632161607589051 1.7663591846573192 0.47671775021571455 2.2495005790111904
Ni 5.5254649717569 3.595620520929214 4.4990452655813815 0.14810479806144813 -1.318832197072948 0.1411299094055118
Ni 0.8071665930506694 7.394250995275202 6.795359361015373 0.6587140588182849 0.6705095087913162 0.60406680378705
Ni 5.563688983493681 4.885474116506463 6.964616739407215 -0.24110314206705571 -0.4193099017202069 -0.365828384862299
Ni 0.8615310459859832 7.688934945925138 11.47733901998483 0.35591343974143225 -0.26308041766909535 -0.6945128136844491
Ni 5.043169753987956 0.24431733846654463 10.377203784492247 0.5483533122748298 1.699304299990351 -0.05771998041928769
Ni 8.16131282794977 7.503550761535145 4.342998578332717 0.7914112640754112 0.6178201488174005 -0.23354255611097846
Ni 7.65741036264258 6.520834599623146 6.639485386304878 -1.4577784685635797 -0.8145699615800616 0.8577740077713614
Ni 2.579834453024726 5.353534185076881 2.383257587148051 -0.5534772637649564 0.18575474720373816 -0.28711123336605393
Ni 2.6573005714601243 5.420337576813767 11.306697214247562 -0.10481050614918724 -0.7887594282748609 -0.8611166989913492
Ni 1.4774739528298448 3.6402985275133473 3.663041132736713 -0.750633825047733 0.04257541146836539 0.4976437017351042
Ni 1.6607128656931118 1.4034075443562906 2.3448081400982916 -0.9945217289487776 -1.221386358818948 0.8856483655841264
Ni 1.066063596778718 3.361467769840569 8.317174985486602 -0.6310561878917003 0.6811554185409366 -0.5083515750709116
Ni 3.767460406273355 2.730930653521463 6.7339727798834685 1.1555787162955196 0.2559746598622495 1.8333600761579005
Ni 4.314322842916582 7.183741681648476 5.9138272940961105 -1.1916212117413738 -1.4587176925483976 -1.6102482284619428
Ni 0.8052731182243266 0.39587622676290185 0.1672557309758041 0.34613939107380387 -0.8798677543466074 0.181061712603443
P 0.11877441249852708 5.618029802081668 8.037717008596264 1.1244745386915471 0.07074467481372977 0.5152693852366674
P 8.571905071977994 1.852732847602213 7.619641766598548 -0.9484377901065215 0.10636910888555874 0.3958110472673183
P 1.6974733659222543 3.140123016977162 10.485354557866689 -0.08626076817145788 1.263221292576863 -1.1396137083258309
P 4.028938098926986 6.231895613400712 3.6829439802272437 0.28671862591332553 0.8097020919647989 0.7261378967888978
P 7.059606817373211 4.066262187438573 10.378867278938818 1.133865492988144 0.003705988096677489 1.5070315491624369
P 6.655632190596922 7.593806697928605 9.929752866792132 -1.6044730165410626 0.18843049426368838 -0.2637329636514297
P 2.569844396211712 8.757907385451958 5.7840974525975435 0.5687318759311818 -0.7487597479534718 0.42609709984536936
P 6.945661992849893 3.9972044425719075 1.4738806230225796 1.3552351611820146 -0.8776584054001143 0.1665491208095648
Ni 5.2467432956871765 3.089100097148731 0.37338723626663617 1.2398556212677294 -2.37054014542473 0.33433571357065645
Ni 1.6281338269143664 1.3094155630582363 6.933218508981527 -0.5371510158011071 0.2873943118241115 -0.6118050529715722
Ni 7.134445887201731 0.6112642150862106 8.9552105530023 -0.9906103097095134 -0.5612203980454851 -0.4553835075143125
Ni 2.7620189103918062 1.7988919863615573 9.026521741985386 0.5425009672591108 -1.7709987403118594 0.43186768378055945
Ni 6.5897014516844665 2.0172733556753353 2.712154073582463 -0.4142368580726737 0.042511390999649366 -0.868142238379563
Ni 4.154518294442713 7.363971760294175 9.856339129910184 0.14631968113656735 -1.6433804922395374 1.373091729747461
Ni 8.500847497722008 7.504141620218354 13.442162304858446 -2.0629583029091507 0.7443988998816148 0.8320375222372057
Ni 7.595052046230137 4.082688058831763 8.283701477562815 0.7880143225787203 -0.5040624607772545 -0.9725778776878347
Ni 3.2901465817105366 8.546516328867213 12.227942256785292 -0.23320574159684998 0.11197411377716199 -0.12768021165850915
Ni 0.2866946322396008 4.998846262613748 10.270383806675062 -0.444989308764182 -0.6469314643610601 0.5321389072984964
Ni 8.891214194517332 2.76354605283456 5.5509118917226425 -0.24417123946941818 -1.1667761276732358 1.0367981211194852
Ni 3.5168999640586964 2.568044549761324 11.445448104318682 0.8822203137391839 0.19770523469739498 -0.8775501619570241
Ni 1.3028252162070668 3.6268269495361984 12.608034375586303 0.08375471392015253 0.46014133391427203 -0.46847685036316095
Ni 3.243177861462273 8.261440649419603 7.799397340270963 -0.940370953937987 0.9346862448483838 0.6325466563942976
Ni 5.771762141318872 8.06555736073568 3.563058753404285 -0.8921362873013152 0.9126788873393572 -1.7690763264781662
Ni 3.267939385355493 8.639026618390455 3.334836405468334 -0.4533333098535031 -0.5759163094947629 0.9039116826696884
Ni 3.44042467018437 4.095696039995933 9.022211200638042 0.1926828417821391 0.7196972833698766 0.5907957977097568
Ni 7.4118585840348095 6.2761282034390415 11.573768975111138 0.5073210769238683 -0.7806581393239652 -1.1617899873125541
Ni 8.198600555927007 9.20039690823984 2.123729728149008 0.7711021202044139 -0.27241815013025344 0.9359157463801108
Ni 4.667374541333906 0.46894908363530713 1.633718804990723 0.15752943380945772 0.13699557552216407 -0.5548088380921864
Ni 6.044066183075596 5.330972473511912 0.057909605034563466 0.3787587197707219 1.4866822960821233 0.2201316820217112
Ni 7.63460321747074 8.973698066693208 11.278798685253186 1.2261012477961142 0.28304837615059 0.20201028983065208
Ni 0.15859192465325322 5.121753958854656 5.783817476483039 1.2861815009174624 -0.5125794971093302 -0.8249487337112245
Ni 7.497460372031306 5.907741449659065 2.5901662988606415 -0.7581509593603847 2.0110166197345367 -1.6551414894302077
P 8.665106211653907 1.6910011908077267 3.698364482845621 0.5984792823969435 -0.5151436582920805 -1.7735099367694873
P 1.9713227303889072 3.315053547741162 1.4030212136788083 -0.5357867884637288 0.9269012015863264 0.3199056541882555
P 4.7546307336433875 1.1921710200425388 8.285790390261296 0.04911912612415412 -1.1853011830606168 -1.8451920357958222
P 8.534235558390069 1.6173165679448611 12.302939494938238 -1.0679082122607284 0.7604371842914001 -0.24800166895910192
P 6.647287447963303 7.762374135181132 1.5018455099921477 -0.46595922614762975 0.1682329362698909 -0.8742612067931073
P 1.8860027365336325 3.4479422106614965 5.9159298419949735 -0.10216509810654018 -0.3722558856551976 0.013707065173447362
P 7.264489338309078 4.306287164824949 5.674243188188743 -1.790993695376548 0.04565173640084396 0.34074598797237443
P 2.299840158252707 8.613119737665167 9.932692615994434 0.4992267299515079 -0.2872636997835182 0.42571117726086044
