# total energy = -340877.5439063259 ev
CRYSTAL
PRIMVEC
9.17883373908161 0.00000000000000 0.00000000000000
0.00000000000000 9.17883373908161 0.00000000000000
0.00000000000000 0.00000000000000 13.43415098787885
PRIMCOORD
 96 1
Ni 5.412088202975014 0.2776624743548974 0.5594370662263481 2.1689260625912326 1.827748643508394 0.37767294290571085
Ni 0.1785384130049799 5.294589952239747 11.677890553488222 0.9773454742798072 -1.4292505363272159 1.5502376522362655
Ni 8.179286284270638 0.32629377128838616 3.6850952237768984 -0.22833067289273581 -0.1908714996050132 -0.660779425987746
Ni 0.1819749683580995 2.9120033624142536 6.527197177826617 -1.020743381649468 -1.341723756959141 -0.6407996404317092
Ni 4.1417559707072655 1.8537664414299835 4.545377744741088 -1.0768595079167453 -1.4792276395762913 0.4449103758971305
Ni 5.066376608904778 6.027510647729187 9.995478251893116 -0.8754557413218407 0.8275162373280845 1.9899001494708957
Ni 1.1178718038080362 8.263364401350168 7.149588193157948 1.0860838547284908 0.07934192956443756 -0.9185250617074889
Ni 0.5907754403893313 6.468663755051927 5.216306432901737 -0.20307369809815995 2.0183267802427047 -0.45310165345867126
Ni 5.438504886485372 0.17640249839314517 3.39978035573104 -0.01918325779667019 -1.0748396492732393 -0.13759361411747917
Ni 3.9298717725998595 3.6506149348239236 10.169840295545347 0.3182624621578777 0.6259936857671283 -0.23922649386963318
Ni 0.8373088179905701 2.1851774125297054 3.893821903076951 0.23857780454204072 -1.3257397228260588 -0.06820288222848254
Ni 4.054153181470691 3.5133179397065017 13.413757629148401 -0.9806318583405629 0.6186372454020572 -1.15082886031536
Ni 1.1136770767878021 3.783689666419885 1.3767589737430457 0.33483913556963624 0.35049792515281575 -0.007480367537445182
Ni 7.76658756154905 1.1786173255146213 13.075956353997286 -0.6641295734069014 -2.7202626258641023 -1.8916518699202585
Ni 3.7872418750781573 5.052718504296227 4.108915939344041 -0.577931797262895 0.6580334878114925 0.5375029998238873
Ni 3.8363945297682096 1.582724659853412 1.2453171566698409 -0.5739671561881922 0.5688308634028914 1.6393384609596802
Ni 7.890712930246262 4.972688252897055 5.854630067842965 -0.9451254379038367 0.5106938500508431 1.5939008974521711
Ni 0.1591747453422099 6.140024791742381 0.7162620301305275 0.9020170367501368 -0.4794377202500388 -0.5608208486142212
Ni 8.027890600525033 2.7995810067384825 11.65573835613454 -0.1929669486814612 1.1160336070130457 -2.7585748911807397
Ni 4.490239572567678 5.415429298457214 1.2224692037184912 -0.5551664785419214 0.833289392366436 0.9498863496275899
Ni 0.6894414779355077 7.459886010883617 2.735045544579699 0.506712753915908 -0.20626418001099964 0.09485005250236568
Ni 2.231521344094612 0.31047955863376614 2.809618061435695 0.6633343311991157 0.35287850956985034 1.7346811368277482
Ni 6.2299314682482745 2.868330471468359 9.688616071637192 1.0075759910295745 1.0161495916311982 -0.42451072919485594
Ni 3.637452487237456 5.211044207517273 8.15393893489126 -0.693930715928734 0.10130429276814167 -0.46450141065518064
P 5.089562342937845 3.6464293866374318 2.4695459428167323 -0.94180460106072 -1.1114452163114148 -2.125578805953849
P 1.6613872650249795 1.3653790556693337 1.116414205009758 0.48855768027343605 1.6603297184993662 0.43264981336222263
P 7.746302338978552 0.9351671181674235 10.325595925318549 -2.6584116539955764 0.7275561172926631 0.010035786969447232
P 7.592758808137248 9.231244882975172 1.4725309250102727 -0.6636204949809668 -1.2636149284708558 0.6735742637595691
P 5.113427310667841 7.480455777300127 2.29781730656517 -0.26819074231246715 -0.31896540176217325 0.1831741309607555
P 6.871697165842868 1.7184153590659303 4.877980128460561 -0.6100993831343752 -0.46670536028503495 1.1058885481592438
P 8.471044693603597 4.4608856622597814 8.022068466282288 -1.0355663055949134 -0.6739149349284393 -0.5509375280622382
P 4.700288003926621 5.7735690334145335 12.258085552222797 0.3196454585483334 -1.1118200831523302 -0.18767484704458648
Ni 0.5888130057352261 6.900050583272853 9.996204297642132 -0.7494824850521092 1.1671401958808738 -0.5538780987478009
Ni 8.757167299018779 9.003756667505845 8.711939513636937 0.4084012252275031 -0.21932692673222873 0.419722049556961
Ni 3.8839133520521307 7.77016730670855 11.664053461621695 -2.3177510266481565 -0.25197762288771436 -0.008844594874823478
Ni 6.469609174927385 3.02762913106609 6.745999462925599 0.13821813507535552 -0.7196785143167993 0.4672751167455759
Ni 5.510549552528738 0.5425507657906267 6.1588863771994475 0.22457120585030355 -0.4124023759670962 -0.11147840508766607
Ni 6.306317722651751 2.755999904130011 0.46734307363966326 -0.2538496430994467 1.345525132983102 0.44862819106834995
Ni 4.645655585492413 1.3380444887847447 10.231234760797513 -0.009009145477145774 -0.9882238117552076 0.029309547597394684
Ni 8.67619162774415 2.3531500700139163 8.770821732093832 -0.42136729846986787 0.23624864218823186 0.6460264360482875
Ni 1.1635273228422696 4.80967216563369 6.712051546329678 2.1079328107373114 2.2317039171494018 1.2185573740105853
Ni 3.9668900090825825 3.5682440808204645 6.297674932799994 0.5393976457434388 0.7605706245454708 -0.5920718362087029
Ni 2.9099197671547503 3.0042689991919196 2.965790410260796 0.25417668742156224 0.6769213258549309 -0.6133806249888082
Ni 8.141019726398962 3.3504119984480436 4.300446073627882 0.09729697138096147 0.17625966322910935 -0.0019612374914288805
Ni 0.4095549721648494 0.3841865114678624 11.109948379916252 0.333427085713458 0.5140339701676695 0.6822005719759993
Ni 3.5344200784800646 0.4900037783826698 7.790746251958801 0.8131643394817866 -0.9299762409672241 0.8399099830067471
Ni 6.076975382766477 5.523675284780236 3.1102478135805915 -1.2169794880005043 1.0554630445188404 0.6169603719202664
Ni 5.9599085372171 8.887681136000635 11.630414871722891 0.9960042270315751 0.9650915966131186 -0.954039195453699
Ni 5.5379850865844915 3.639031246641133 4.467540316722953 2.611368693674161 -0.40708019242323445 1.8825565924872094
Ni 2.240874575678022 8.625212385139378 9.647346199365034 0.16026483046274978 -0.028076703631558095 0.3270777464566625
Ni 5.130380616589882 7.422638303557337 5.021443464086065 0.08359504841383668 -0.05024192687468766 -1.27900246667052
Ni 3.1198764101762713 7.26375269147801 3.423613197542939 0.15637552271067262 -0.1105378955512677 -0.4884275824534749
Ni 8.577647668686746 0.7271931032342405 6.242863527107811 -0.9381826880374164 -0.8061699104418244 -0.680952301391195
Ni 2.4003476331168567 1.806871779840539 10.524004677608874 -1.5534764708885374 -0.06822293683314057 -0.9243378117345242
Ni 6.77086767718363 2.0761512253385876 2.789373225733663 -1.4624684178400815 0.5226890747395062 -1.0922318766077577
Ni 2.54174756691709 5.769025510712091 10.45687435915114 0.8288377843529855 -0.21151668665919057 0.0651224435309459
P 1.970144874448689 6.566455049742462 8.211584764443067 -0.42016942150702474 -0.08532051574537565 -0.09932377200300313
P 8.178019605214201 5.6047152078910605 3.8372637653236055 1.4533435727206776 0.5792700564583444 0.07850452126480674
P 5.008329664318431 5.609956321957918 6.135981515478896 -0.3042059840648116 -2.5729073043741693 -0.6188591316048762
P 2.258800837976747 5.75879111108942 1.7539356098819083 -0.7575812028998438 0.48434801306746256 0.5016831619118006
P 2.079125167471095 3.7276620652568453 11.400865090195042 -0.27411559243733435 1.250964329586381 0.47263895216065055
P 4.4872748092689125 8.39696232646944 9.7494855075993 0.9727473133861634 -0.7780638962342278 -1.5955734000585875
P 1.3623683982018573 1.2547098572383433 8.374205243972138 -0.0895270976275555 -1.4746420770881377 0.13702000100219627
P 8.283365080074653 3.8824263809858772 13.505352293179506 0.6449931096877666 0.5874564489238786 -0.21653393736812385
Ni 2.5157622885926205 3.046840430088738 8.021222177811248 -0.8311103824372461 -0.6008058736475911 0.3775569861531369
Ni 1.001796272302827 4.167006942332351 9.395657070850742 -0.04520102201667054 0.6996977003194982 0.5906227624670022
Ni 7.594254958037244 6.979162951297793 2.174505182537526 -0.24732469749673536 1.9990450491949572 0.16880963470896734
Ni 7.681821031938848 4.938625600879355 10.06420752318876 0.5169110346051485 0.13179500515783107 -1.7208812548301784
Ni 1.9808290369247337 1.1621596766146658 6.193842129740273 -0.47650511998427614 0.6066553904498326 -1.702801514510332
Ni 6.875644064352059 5.632389391624114 0.41689253185844927 -0.42794572301833395 -0.9089042507882734 -1.3690910932285003
Ni 7.563817945347754 7.4431071028026805 4.820214056186729 -0.35424993599608023 0.49166871509859195 0.6932524589147867
Ni 6.305142831932735 4.356136811592578 11.688571044430772 -2.1977802678187635 -0.06542969035871958 1.2258024856087726
Ni 6.64317174216066 0.9098078363041788 8.315859987289167 -0.7663283529648544 -0.23457022604454442 0.10914590029974751
Ni 5.060153359627495 7.187173681565946 7.4410152465928086 0.2623548523569804 2.506821211378373 1.7668188979025572
Ni 5.1799096034633685 7.441436555061581 0.07808158499567958 0.47308221034565623 -2.1827701675631768 0.47129066566287214
Ni 0.8378549585982373 2.5084284004325172 12.78036486369354 0.7422713120156507 -0.11988951196949674 -0.08138287125386628
Ni 0.57926977229335 8.975100348562364 13.568492572609458 -0.7943425787895932 -0.7286287815315516 0.7509359296691841
Ni 7.902223187759114 4.336512465051527 2.154420976425985 0.5301928393157191 -1.0113344296307423 -0.41523290343735586
Ni 2.6794759672204007 0.8359824765148067 12.70115703579768 0.8380613598337824 0.07395058334553715 -1.5168706467400457
Ni 2.8477882415530766 6.682989522934786 5.983812973932188 0.7085836899552185 0.27987666329082767 0.5363660580059665
Ni 5.998569784939695 5.070139930739124 8.261264284189927 1.8344759349298987 -1.213014332705169 -1.9218119384434065
Ni 2.9398703016558967 8.28597186885747 0.8629544794665747 0.23246217856260612 -1.3203630318951778 0.3534428667137526
Ni 8.60162278242165 6.633185171049031 7.619918059297358 -0.09922915540666781 -0.24769647901385727 0.34670117711454485
Ni 6.743239387619287 7.545552066200565 9.392768491872038 0.09920318726473884 0.472064053493787 -0.572439406689756
Ni 2.626413129356126 5.579932356786833 12.951878715235534 -0.8018075197080707 0.08128439800278904 0.05770789623442965
Ni 1.3925208670453346 4.887040555247593 3.6549620304842803 -0.9343082926836748 -0.1547097049724755 -0.40541848845009537
Ni 8.727565560199839 1.8147839345264074 1.5431134028384876 1.8834253682454078 1.7809440244500296 1.2048459379617638
Ni 7.599597039275266 7.779437928788279 13.122317725346301 0.3519449420119874 0.019479448880850323 -0.06136863291546851
P 0.8541813501756781 8.796370097932169 4.465888126649338 0.015962951087159605 0.0976111601872706 1.3975454919144512
P 1.6337222601256673 8.02521038107228 11.988031413156898 1.1828313813638855 -1.4247541911187591 -0.6152392754641017
P 3.5528052824659047 8.913758202662528 5.355389629065412 0.17932261842514924 0.11072944273678349 0.01582179752360501
P 7.924839834100157 6.832356684423342 11.094163539529609 -0.9567208560509199 0.7171264373189069 0.8763797957980067
P 5.009155759355239 1.9706221738032887 12.32970248461377 0.09464025048440475 -1.318548090173626 -0.40228045704174586
P 2.0909566841649285 3.360857511246789 5.200641835237117 0.06131952484508794 0.12072692026912756 -0.27284546747565913
P 7.18082192861627 8.250807756790692 7.071307427470061 -0.12973040931931853 -0.025950401317174663 0.12295272427585277
P 4.529965565004381 2.3784377569739714 8.041709334724077 2.772900563774792 0.22949358285258542 0.9119515222550293
