# total energy = -340881.94935304584 ev
CRYSTAL
PRIMVEC
9.18064916044810 0.00000000000000 0.00000000000000
0.00000000000000 9.18064916044810 0.00000000000000
0.00000000000000 0.00000000000000 13.43680804055067
PRIMCOORD
 96 1
Ni 0.264557854234087 3.1134427944803282 3.0403602353351578 -0.2331682034906952 -0.9008803520425324 -0.6393742208390923
Ni 2.8452301237402815 5.498015475820359 5.8692781813115875 1.178655652719641 1.1587362880878946 -0.21788402363811507
Ni 2.585270856765263 8.711325373922465 2.1800553557854863 -1.0194336616991089 0.10119990597979345 -1.8283536240822447
Ni 5.215499353394089 2.2591741918778263 8.864249286263764 0.39829421870048826 0.29649293169127 -1.696149556411453
Ni 7.448398526834195 7.923506311310257 7.654398527258653 -0.6907631168340297 -0.12304991197534937 -1.052275133709162
Ni 2.03436763126131 8.701189937040828 6.201476305756575 2.2900322205766495 0.5390217504612588 -0.19823385350735537
Ni 1.1262728815238128 4.558724879593911 9.410656747781362 1.0640212185014963 -0.7282130341503718 -0.2706281481093662
Ni 2.7402310371322405 3.788156257109055 3.3530081669907923 -0.20572836211218762 -0.40136745830917325 0.6377125168659533
Ni 7.241934903617597 3.386530390024858 8.765958500135264 -1.1105810685389068 1.6011462661606748 -1.8515979393221662
Ni 8.786735227677683 5.551244880747649 13.181132910373519 -0.021107728512892682 0.306648274957717 -1.413369089210269
Ni 4.887043261623881 7.753453143413017 2.5805657739737424 -1.2910259734939573 0.4585611339113458 0.2248457996679289
Ni 6.173344041955489 0.29416269419080204 1.192142204475231 -0.029922755701361367 -0.2227863460357389 -0.4125067627554444
Ni 4.024420268113508 1.48900033731499 1.6990040189206814 -1.0422396038500308 0.8715234961469701 1.6257887472997032
Ni 1.2751921946189453 8.986496976869287 -0.10489442720545876 -0.20039666548662907 0.13377244059917606 -0.2901502773026938
Ni 6.153018084296121 6.971270999501285 0.5773673653182695 0.01859576072431636 0.9848924333891297 -1.2117966582479842
Ni 4.921020844865671 7.374090351000892 7.384668295181165 0.123908917541535 0.18443422862010173 1.445702768345968
Ni 5.532718330360745 -0.20346430507417892 5.548918504202534 1.6115054979078118 0.9132126483556401 -0.43254002725723567
Ni 6.599381255659498 4.62538557451924 0.4665624360617259 0.3299756368297478 -0.12417888337347 -0.174829358540486
Ni 3.3925804379460516 5.400590424925497 10.686213414179473 -0.1892337068912741 -0.12946198614928026 -0.32483085940401474
Ni 0.4165471764716283 2.8223244036137567 7.113177214558481 -0.3865031396028311 1.2626281390775544 1.3640411895094187
Ni 7.855973454696744 4.57612221011085 6.1790773574741324 1.850688283023703 -1.4066554246355194 0.4411640214808209
Ni 5.414324676352063 2.552422493393437 4.773708145406667 0.3151434569129218 -1.717321819613694 -1.7786066345661047
Ni 0.6811123752251949 7.020571086507071 6.159796157710715 -2.432841060346481 -1.24795922421147 -0.7116119352585808
Ni 1.826921678564336 1.9784207541266243 5.307566577328695 0.013556398528196007 0.46812820877449063 -0.1374239213088343
P 8.340124178781874 8.217360535682923 0.1343578851621944 0.5759690171095694 0.4078062719559815 1.220020845929989
P 1.2696287211132644 5.718103182671331 3.086838190730967 -0.6956055325279956 -1.3505886635489386 0.022026640782736258
P 8.039788415968598 7.875500695862723 9.67739133397617 -0.42853836229701037 0.5565582166831253 0.834810971217285
P 3.6601688245303454 7.046570685464312 9.260634838699378 1.8461780538581756 1.4425601089519287 2.2186347426702695
P 1.2769365179953138 5.060153585754441 7.105921747377722 -2.519928181073976 -1.346416791559436 1.2850278469289933
P 5.71372401293171 0.6614979178903974 12.263627076988044 -0.13614454037577842 -0.6652747427549381 -0.2821855139296624
P 3.6211510647957845 3.2120613297905996 9.737426354266102 -0.9259732904554181 1.9070556060698383 1.309910469103286
P 7.789074062888334 8.301225767488855 5.42165817905229 0.5101845145145923 -1.6050592280618357 -1.0939300902457871
Ni 6.943820857946852 4.329383078198837 4.021126251126976 0.6740365481079682 0.22826485265180688 0.43284238898900296
Ni 2.0036583591878734 6.804706478356781 8.092962736999793 -0.28337953423776363 0.4806026870924175 0.329841939465361
Ni 1.7433226855895332 1.9142755571230061 9.951300597637463 -0.05198204949424596 0.5118536746868991 -0.5950964819676396
Ni 6.625812345136157 1.8132975949299621 10.593687157777403 0.811019268114326 -0.11659695726115402 1.6657748007743378
Ni 7.143619329735852 8.159605070626423 3.0484089106196968 0.7422404587777153 -1.4633544199894604 -0.17834431367227996
Ni 8.515098174730346 5.742055496823676 8.352884363312478 0.40584863400897847 0.5036361718731133 0.08923296342590438
Ni 5.208255821057485 3.9460817872158587 2.6501688670155246 -1.9190672858187334 0.07329752314257054 -1.2069634985253987
Ni 5.499567005560392 2.588346374297281 0.151077683757155 -0.9692213025107761 -0.17301313126735363 0.07695671716171262
Ni 3.8529440995671247 1.3655481455148393 6.576323136753774 0.9562074067496112 0.6019831817851439 -0.8680774465798986
Ni 7.751745542634045 0.949784078432707 8.717169775298235 -0.5162656877116657 -0.9927281273834646 -0.9228895093237719
Ni 0.22463121021394453 7.307402114127516 1.9250646562383131 0.43514918274530867 0.7341224576562712 -0.48417394938344355
Ni 9.037936155173462 0.4862650276302768 6.554918452795862 -0.6138904747456911 0.4854870117679123 -1.2805052764682914
Ni 0.33625413532751147 2.5631271305347307 12.129514315163478 -0.19831818569104556 0.8298317728351388 -0.13461704798765847
Ni 4.1121505532955 1.361940150320561 10.967256960450115 0.14703856158046288 -0.3857202386902196 0.5992878943411679
Ni 1.9500250056892132 4.845381474876718 0.5316045825067716 -1.3754232060941152 -0.4146760024926213 0.5768712172088646
Ni 4.734286437100736 5.683207534494609 4.31253016018831 0.3890948115894073 -0.08453195840580927 0.15481640575366884
Ni 4.259711130286934 5.184129074567502 13.281370912229008 0.43092331758941915 0.35964488175940645 -0.8281875523634964
Ni 7.03292824053124 2.7299028066142683 2.1296131960006455 1.5275610365743564 -1.4235010354379483 -0.49567423671355926
Ni 6.58926418007656 6.314606693493299 5.7082918227117245 -0.7654240959830302 1.8610822246635175 0.277257994721058
Ni 0.6561263199561169 7.151358617137319 10.4859504015334 -0.01578168831428895 -1.4919304318549402 0.11094875783644118
Ni 0.7535431082665639 9.15931352022067 3.7859281135119778 0.0019928620603126964 -0.4815784207421255 0.5406734271320689
Ni 6.332692572711436 6.142028847024998 9.705634683634383 0.06276577037331126 0.597024552228288 0.5895511266693783
Ni 2.979818443201143 3.4835423116990003 7.650247037622895 -1.858864648186908 -1.2688527798310276 -0.6577612079867123
Ni 2.5164802511908944 7.211124644401318 3.953579623539439 -0.38680370156238547 0.6669657573041158 1.4353003420657218
P 3.6689179833602363 7.25861614348529 0.5364418666489221 0.23215416040388404 -1.5663885509645155 1.504216705421461
P 6.192311263511161 5.985296801333605 2.410899111414108 0.820567316814077 -1.3522997327027741 1.5792551225145384
P 1.9645855155572163 1.7009815307905225 3.170052514498034 0.15813132905951477 -1.477387501043759 -1.7913238250224568
P 1.1100047708768381 5.064688826532999 11.585982233022083 -0.24546501858017725 0.1252649173487972 0.23352301572695267
P 5.641738541383782 0.44530739668820696 7.742114123401685 0.1223487721432667 -0.12399144995301228 -0.4836561292067606
P 3.6369417816765948 3.5370195941587217 5.482500178420028 0.04219488820049508 -0.7421088182958574 -0.7611141557537666
P 2.3389723960220157 1.4472742860223833 12.14745238592709 -1.533491286015862 -2.4710790207817572 0.6922445864755628
P 5.4390573456991 0.7861830708981603 3.1831661540285863 1.2102539963512122 -0.16185634331958576 0.9417817182425845
Ni 3.8599397543712977 0.0015882523374303639 13.383114540577784 0.2043667058779706 1.354321134008177 -1.6164854676209064
Ni 0.8373936510335378 4.246995930938143 5.011808286280982 -0.1991216554289474 1.2486472514174303 0.21999207112005334
Ni 4.629792286206909 7.440512349043138 11.505750702228607 -0.4437243260088294 -0.4449291449502079 0.5427969012329747
Ni 5.770001393442971 8.618022434585443 9.733530086682256 0.27947865652146064 0.3991401116405513 -0.35009786150091965
Ni 2.331701321737363 8.728456465608273 10.645432051704912 0.6943510912956041 -0.03432731252696024 0.9244126308365177
Ni 7.0935847907821215 7.899792694040993 11.91253701231205 0.002913316992053047 -0.007415318627464649 -1.2565539078590167
Ni 3.4754817015703074 0.40649436543413553 4.18224664720734 0.9723043123114739 -0.08309805417276012 0.7376536107379812
Ni 1.613104355218942 2.2995415070667358 0.7385437633596637 1.5393978813082843 -1.0952989455688555 0.9632967094962248
Ni 8.20544405282752 4.4020938210453595 10.634898174641515 -0.09577796363327375 0.9798862384237899 1.681629251308091
Ni 8.975213958818987 0.6001968860551948 10.87748581691777 -0.13144687778979297 -1.3132431330209449 0.14830045901202202
Ni 4.295203520671361 5.139327505742877 8.285915198569013 0.552074726990475 1.1160852861865875 0.9602581797802172
Ni 7.670753854074446 0.9056976821923928 4.074752260106157 -0.892855939076159 0.8545794120934637 0.4342215287247167
Ni 5.504230775429841 3.8158450955465693 6.648277394093914 -1.2193978676340096 -0.062118366597299475 0.02373436750246235
Ni 7.158767401162211 2.2102505114953614 6.646060267276056 -0.41532931980590404 -1.4324284198345654 -0.4347881998614641
Ni 0.767069877017835 8.92711653687796 8.591051522927044 0.15526506325531325 -0.776728722362572 0.9382510793815069
Ni 8.388313407216396 5.130064230549425 2.006236285525159 -0.08584836322438764 -0.48241402926954335 0.6393209990036537
Ni 3.545116926884812 0.5840591406289803 8.8038507122596 -0.28387729980978854 -1.5924150569352638 -0.4209006432460944
Ni 2.1908517994202725 6.729250721354815 12.535454169376914 -0.2195138459320542 0.9665095600065676 -0.7530473195852321
Ni 7.514884789421886 1.408072913300836 13.072361494947845 1.6097813161278534 0.4572989793694705 -0.4454536499951102
Ni 8.71469467223366 0.6876168652891799 1.6379600452672596 0.30921269325078354 -0.06364380210289039 0.24908898848600974
Ni 8.446601349935154 6.142405253648319 4.19532080994569 0.7387453011402633 1.3057992751483898 -0.07658210743111327
Ni 3.4483345214444023 5.773535943442455 2.3561310296558733 -0.25753043438514356 0.2540496749253947 -2.0677837493222517
Ni 2.6976236435020997 3.490363534165536 11.933135635257093 -0.03625101191223434 0.6859736658651864 -0.011426239559070645
Ni 5.135710329899249 3.5735769398676682 11.464459813715157 0.26769966160866154 0.505454970249407 -0.9044968657491972
P 6.481134492040405 5.231895993131954 7.75427481152978 0.05420708217002277 1.7651924180427279 0.13382077733860823
P 8.923334109346044 3.2386943935529433 0.8195804371010745 -1.9546963478762531 0.6017785219735056 -0.3127330476992162
P 6.230970977921098 5.395862390510604 11.79962696015971 0.25974055466258494 0.8791722709414794 1.0302166112472257
P 8.798119232870826 2.5169209223596614 9.687374372078608 1.9436958830006912 -0.28646871468604856 1.9004270450097274
P 8.624393805233861 2.4568427530177868 5.074814164700352 0.5167611392908456 1.4492634891140332 0.6727239999441317
P 4.077943453819977 7.487296938127216 5.467477881889754 -1.5652755204059947 -0.6541179548071703 -0.9449531739920306
P 3.582261834152114 3.54978987740361 1.1647884597389666 0.35340635704886236 0.4259253501541955 -0.35449264813450565
P 1.8770572046609095 1.2905055177335918 7.550894968429614 0.34352123672466645 -0.41306289236923055 -0.003750982401999992
