# total energy = -340873.3684577056 ev
CRYSTAL
PRIMVEC
9.20787472331012 0.00000000000000 0.00000000000000
0.00000000000000 9.20787472331012 0.00000000000000
0.00000000000000 0.00000000000000 13.47665540380528
PRIMCOORD
 96 1
Ni 3.393442429247291 3.360938632409408 8.991004153569271 -0.8433915137974443 -0.5789530394385577 -0.8326062502564822
Ni 4.802679991470379 1.267160059331151 7.407982693544454 0.4726062991505022 0.18917020064319034 -0.6056169218829892
Ni 2.8872211151520215 6.937102122407676 0.9982026503407411 -0.16084744243909718 -0.4327976517939966 -0.21852602809748817
Ni 2.1277556298294718 9.257412822909616 11.357369879749408 0.23227140270803873 0.6436733624350787 1.153878188664645
Ni 2.7624544162417335 5.098888104920198 2.4112025500675003 0.2152221605352358 0.3650567968035971 0.7918159557129976
Ni 1.2033218657115918 9.165149920837212 9.284620250359072 0.10229545303681738 -0.2545808648385164 -0.49933317362238516
Ni 5.698596968390829 7.95984836211708 3.717926083583731 1.7095393474547977 0.268424455589828 0.012101668359540449
Ni 5.633976105442313 3.9839802497574315 8.619992188807474 -1.1095482563990182 -0.5535597961764337 0.46307547684193145
Ni 1.1088214501458145 8.478141199627213 0.38639187746953474 -0.11602720080061309 0.4486546734309112 0.4491637518568458
Ni 3.891837050052985 6.818486283635549 6.579411189624738 0.025434895133336844 -0.35795695253402227 1.4368095796213964
Ni 8.676930001307966 3.232507199464707 6.693638555430028 0.1836418146257934 -0.09094917478606272 0.19469473000584533
Ni 6.841561217028109 3.479204571952119 10.924783016909908 0.4288870038856807 1.4785079878014473 0.21327994920720042
Ni 1.5088483481132353 6.753055127734701 6.609315603503036 -0.8017039042506708 0.603625088263941 0.09358815507080656
Ni 5.661157750843285 6.292578533948383 8.065360474747568 -0.685456874129768 0.20515732010006602 0.13037112822711094
Ni 1.2016552404346355 2.0963291543032123 8.145047261884793 0.8756105217321501 0.8822439678882675 -0.3466317573291901
Ni 8.32614681594366 4.8454321525803765 0.42108254449126975 -5.181493807317501 -0.37445957817473574 1.3978992757094442
Ni 7.062421293785464 0.8103288630428849 2.798696610109696 -0.4479972423525704 -0.1505882266049342 0.16445624283627808
Ni 7.75648324683054 4.84656472113875 8.67571824502925 1.1522861615871767 -0.05685300443330208 0.3097585384519246
Ni 4.324736059836622 3.339843392025388 2.7761778323344193 1.0900009303947098 -0.4799288009538444 0.6901457949650049
Ni 3.4471427530882357 1.046797207794545 9.358782312821303 -1.2266915730819454 -0.6020060646032794 -0.17108326123449244
Ni 7.291393507940604 5.8973305228248325 2.686652431338474 -0.05237979915329689 0.24045908072515365 1.390383169838057
Ni 1.9334418551354637 2.653018828304555 10.54476851329021 -1.647388584957666 -1.176662276438696 0.4087534663605992
Ni 0.8091567006243402 8.45623566629086 4.794023668692109 0.6501489428570932 0.013311115286609335 -0.8894937074721456
Ni 1.0277921549125646 4.754246571819595 8.337683361852495 0.21215586290508623 -0.5985060218698208 0.2944028819314607
P 4.84189632878838 6.104001265041911 3.1448178486357516 0.285253868442341 -0.8827363341436538 -0.2652905379465367
P 5.7157144070088535 8.366357603703161 6.1964179386177705 -0.770982306797098 0.6079810512397916 0.6422924229271518
P 3.59274687189771 4.143607961366934 0.5344581819091653 -0.1020545406706049 0.6406278907405355 0.6482157303901224
P 6.8782361809956125 -0.19602367698091863 10.552678998237356 -0.31807811406121345 2.1786309485838222 1.2282776866221428
P 0.7904637946864971 1.839079557686561 0.789958282378735 -0.06876441115890738 0.7201719090134501 -0.9021952141992139
P 8.257354785865523 8.210311755257946 3.3320222234604873 -0.7227460974985295 -0.5574881846965624 0.5783498586369201
P 0.13710064674721273 3.995351974713462 10.281879093567834 0.2704885372077084 0.59546106439591 -0.4822605344108147
P 4.4255991166531015 7.436942379503328 12.74149020202508 -0.7544760816119587 -0.350870478000886 -0.7837846007680889
Ni 7.724393804343282 6.8474818803048105 7.238109380025175 0.2544667078581553 3.380884186117745 0.5988513210243817
Ni 4.828738276187436 2.2641979135529144 0.45716083819387426 1.7035597328325953 0.03469857982344992 0.8240159374843099
Ni 1.632298320975983 3.415845187804393 3.6750431706564255 -0.3619809860917508 -0.3464741487054033 0.6992840098208473
Ni 3.4631092073989693 7.848838227647528 4.653610028714791 -1.0285258538083641 -0.1176120287892297 -1.8205192156394905
Ni 3.8898297334210703 4.701006641701568 4.815195334434133 0.5592653312016432 1.8903084685184866 -0.4169300886341207
Ni 7.7888949649238395 8.691809926432617 5.550118151175466 -0.003269157669575015 -1.9596799171337733 -1.5827086282807774
Ni 4.761244556407921 0.2547119064159372 11.32962195006925 -1.9472326925093562 -1.3803545819574614 2.4408999260952156
Ni 7.84492488100274 0.2574650608789761 8.483002036553762 -0.8121307560109498 -0.7368169737692988 0.472421951053838
Ni 1.816732046376209 4.645391079973291 11.820656716820407 0.019408486433598833 0.5625275468926828 -0.016089192252378745
Ni 5.748273451093486 1.5853289533640729 9.946041209236835 2.1907171903243947 1.8624361675882506 -2.8364708323272696
Ni 8.9577793801613 6.1419561235591225 4.628867549257829 -0.41947599498442595 1.271998781659177 0.7024181845744547
Ni 8.2226503070321 0.5059552065234239 0.42816524152461244 0.031720213921416336 0.12729017530894207 0.02481191683735727
Ni 4.4546591684435715 0.5010280729007748 2.4864428546288018 0.005110838864004101 0.24151323302128083 0.05411272268400358
Ni 2.6450816405214796 1.9182488622792295 1.8370031819962092 -0.5030790138180626 0.9223657756098179 -1.9323256934905366
Ni 8.836548505043009 1.8021743968575992 9.92031440800028 -0.7573883701627473 0.8071297032519326 1.334955842107688
Ni 0.46168190455291125 0.18511418732269655 6.958320748309439 -0.6714379341428566 -0.23966152452452275 -0.4305618204849424
Ni 7.108727694436375 1.2954098181692886 6.4684305203534525 -1.0387519024117466 2.1250319323114435 0.5160278606692469
Ni 2.01482104959813 7.043664853513858 12.106807068999398 0.8944178842466401 -0.688058316308357 0.2946268250168087
Ni 5.229943782085521 7.68616270959232 1.3188521457527351 0.5946881907856274 -0.8807558133785155 -0.2457455259350736
Ni 4.823305630257024 0.6666906254302621 4.869721604613988 0.7745345429247307 0.7861531010002655 0.35785565106946754
Ni 4.227371995314305 4.498635976856526 11.100828368678602 0.09615308758450537 1.1771893525867598 0.2562055449261329
Ni 5.736570242656957 4.864363542466689 1.1837164594149288 -1.1389619336744448 -0.13863516800811607 0.43226800454277164
Ni 3.3618133804829484 -0.02609603700233558 0.2544393533319708 0.79862706509756 0.9787765502993789 -0.34389456090368514
Ni 8.9986531348818 3.213133831604394 12.385720031854149 -0.007247939811664938 -1.8406517247233072 -0.6366000005280649
P 7.164683947519609 2.593572790801616 8.422761359485069 1.2191065616458359 -1.3924351672710795 -0.7811065397152935
P 3.9884368609952605 4.398555589369004 7.263108759179524 -0.15082014011008218 0.8677372896316604 -2.4479689171268553
P 2.4067173944188505 8.523121666356124 2.4715776621032837 0.5977040947938157 0.3071918061660129 -0.0490173104389672
P 7.949397424606883 5.262291045057613 6.159073562177147 -0.5316966775547552 -4.116568074723864 0.1547708972277141
P 6.177157827613295 2.7354016810831783 4.0401123732428195 -0.6755465569945913 -0.8549249683583405 0.34820758645674227
P 6.045162947253222 0.5682234575478388 0.8464117606827184 0.08939545714569766 -1.2883957349599617 0.13885422599745764
P 5.971785395694839 5.695503122572832 10.121156565685238 -0.3050091966923973 -0.8670479768741195 1.0706274109641045
P 9.19669609873143 4.397892622408005 2.5427480861540057 -0.023427892005637073 0.9881587628452271 0.7351989785499016
Ni 6.247045594751972 3.694226856302897 6.071314231502308 -1.1240225387557934 0.0927430334616919 0.3122995597062234
Ni 6.081764248225059 6.346352520784995 5.502922269851881 0.053562506607488396 -0.9576001733320799 -0.8845088526630445
Ni 8.611627755649533 5.595993623301727 11.68411130490303 -1.6829731669304953 -1.0483729704412783 0.19716118926846687
Ni 8.969961398069662 7.868497039616049 11.947323921018892 -0.5918088123553032 1.7570877866577221 -0.7403841222952668
Ni 2.413089243544011 1.121491485400468 3.8659537149506367 0.32855304545060837 -0.8099980259386631 2.2196194751810414
Ni 2.9039978624150873 2.4958956585477168 12.809884451926619 -1.892485164454831 -0.3523658315994899 -0.6309471731176618
Ni 0.7656679095576767 6.284880750901225 10.118770805413085 1.3832280468505145 1.0896880271399816 -0.9421558137525516
Ni 7.35271795183304 7.332626369764977 9.649109356854591 1.0842874249497003 -2.6053960210304936 -0.28115784399609645
Ni 7.436463570031495 3.2129404662407692 2.251747025710369 -1.1890519083523003 -0.6462490935820547 -1.8442378994126691
Ni 8.56638026056133 1.7975704596284374 4.402257154901251 1.035141816462985 -0.975933938644261 0.7385501544103216
Ni 7.7132246526253345 7.1666452247792325 0.8264721085432183 -0.05209055004765222 1.1494700322946203 0.5130993741685421
Ni 6.064794135598369 5.544208537348114 12.420638133375004 0.39901901268165474 0.8334485436521194 -0.6863547033536889
Ni 3.3701372989932734 5.661857549302118 9.038832615868142 -0.40900697713230205 1.291173040594783 -0.5699171544885346
Ni 7.964222102484785 4.02425549263814 4.321127493836404 0.2755361269339448 0.46452069392889034 0.9067920895412769
Ni 0.7448222025714775 6.846487429863312 2.766622821009017 0.9697450362247299 0.39425732962695326 -2.373491000522938
Ni 6.637855410386611 1.363971651385968 12.26972659572775 0.8000784528321059 1.3296259452543424 0.326550927418915
Ni 2.6508826014302236 0.2569798058950224 6.202671006162418 0.7745527977571757 0.14784305975962925 0.9488753918645724
Ni 1.7899739632003202 4.30859465591118 6.114035085839147 0.2888138178794574 -0.026616574146263842 0.2599480426877007
Ni 1.1142633039506837 4.311550383612302 0.6923271894971273 4.539211154582364 -1.0694503599368679 0.625163219446033
Ni 5.20424460447234 8.6512492394437 8.979589151603285 1.4947969547694577 -0.7678285916594647 -1.0844542895448677
Ni 3.588842733127381 2.5887202409620795 5.6058036927496255 0.35159527198205254 -0.36541340881206746 0.5777446209527534
Ni 3.816654755100771 7.521443043407366 10.503880025970576 -0.6717302685722948 -1.2174705687043097 0.5487420630728163
Ni 0.5098050188344491 0.4677333196469216 2.4541259776424225 -0.5850851204782246 0.0058520879054028245 0.5175244998194314
Ni 6.552562869279157 8.187153950995263 12.576239241483881 -0.5550739188281151 -0.07198291809620506 -0.07887990232635447
P 1.4589877079214115 2.165701280472224 5.812750671200453 -0.9859758962612954 -0.9329795465699223 -0.2036380552420622
P 6.8089745493201015 3.4148415294884353 13.304665902794866 -0.6549965007573817 -0.10269474535776507 -0.8737984082240756
P 1.8620347887111626 5.7753353941265 4.467982962784766 1.1437999784930364 0.41277030082947624 0.261440310962511
P 3.1511372128764994 8.23654498958971 8.47587237936068 -0.6576318814976997 -0.8970861751074228 -1.1152951861851244
P 0.2913905535332244 1.0065035491649201 12.020880105341767 0.2500441533104274 -0.6679934272376817 -0.2020033478521166
P 0.07323390871683277 7.515752576992122 8.484295742915156 0.9477497629005615 0.32940690881047135 -0.3104421947825105
P 0.3295120745781309 6.452316740051385 0.14224232384474075 2.8468891994471166 0.8942939570742663 -1.3513265701562274
P 4.1003769907851035 2.435022400503738 10.962611727547042 -0.26337969407706896 -0.7423281333955151 0.6081134630525978
