# total energy = -340866.9340006784 ev
CRYSTAL
PRIMVEC
9.28208624530605 0.00000000000000 0.00000000000000

0.00000000000000 9.28208624530605 0.00000000000000

0.00000000000000 0.00000000000000 13.58527146766011

PRIMCOORD
 96 1
Ni 0.5384064858840765 4.424538472763373 9.236204917590609 -0.10482644698878721 -0.17893695295095635 0.20963515336576152
Ni 1.2081470668199672 7.608312627553917 5.556199292301094 -0.6155935734797269 -0.4754221713327425 1.0761164591031338
Ni 3.065204784777266 7.376297599148414 4.093541132791595 0.30529870290835803 -0.6243651490247698 -1.2462964917970665
Ni 4.205871084414163 2.0344476686637147 1.1624262944797132 0.0449811926963806 -1.1214552922492491 -0.8875754074035102
Ni 1.028278799079455 7.968336907709312 13.587716576624572 0.5366766472678499 -0.8418884468893566 -1.6866372460456436
Ni 2.802020510677024 0.5058950505146927 2.7382340138294237 0.16518797879598002 -2.3656995295029772 -2.4804139250294375
Ni 8.286239080371342 3.5259118547036037 11.335523230778263 0.5832920331335438 1.2941858592791777 0.2581827232571618
Ni 1.3875790765057885 5.301983369954949 4.5794453541065385 -0.7004021825856906 2.113509276383825 1.2622278183153421
Ni 5.776353670870761 5.307979597685384 0.5495394201563425 -0.18990013683067938 -0.27614804948633087 -0.35556685503529084
Ni 2.5674621906335346 6.334736134616556 10.412132006550072 -0.015500409628444272 -1.2652113264236984 -0.7266572596274776
Ni 7.52605477902897 0.1021902005811949 7.524555722096362 -0.852752386187054 -0.03759004243863204 0.21512985793174563
Ni 3.9218949370690694 6.564180025125262 8.148269221845087 0.503199855666643 0.7072767982183367 0.06679546035799463
Ni 0.007021898263272653 3.7968373887530453 6.373584450282484 -1.202008982733601 2.1474735491444115 1.0469601492541518
Ni 6.978467381615213 3.7591985289281005 9.271635569091915 -0.9153980860427331 0.7609683742045217 0.47296291115897254
Ni 1.5977812021767368 2.7328875321378905 1.1087758358389783 0.14086611422116382 1.657613605119784 0.016194093261359208
Ni 8.749378056900426 2.1570640282907227 9.484014343993184 -0.9168705568232015 -0.5073249335786102 -1.2752126606107843
Ni 1.8463276262291517 8.427920845196978 11.272772614758397 -1.2186157380523464 -1.0748100815868844 -0.11896854281712416
Ni 4.202882252635216 4.768978130071399 4.3614156450840795 0.45116689832980367 -0.6467424882787055 0.9776604344170646
Ni 2.5813853200385695 4.887120524116256 2.7425130555999044 0.5584631470153221 -0.9749528056779146 -1.6226064929169797
Ni 6.744698038904676 4.386658278695408 6.765193813597515 -0.23493789379660832 0.1682319078286264 -0.981473894625884
Ni 3.4455475517777416 0.5898570900788159 11.223363141334435 2.080081335742682 -0.05529491591756284 -1.393815592558374
Ni 2.532607956689597 0.8969159295602038 13.492918629548827 -0.4498044707646383 -1.613095468102751 -0.5670069228202751
Ni 2.5821278869401714 0.39884196493663265 4.93745820616722 -0.6616628570339638 0.8378829252743892 0.010892478542787694
Ni 8.884571643423316 6.466643862599857 3.5388956369781126 -0.953407732517287 -0.03079950187935986 -1.0192050906280705
P 2.8873321655848083 9.022911857191744 9.154570825263008 0.5042498941977122 -1.486569167543027 2.309165856082307
P 7.380585923005165 4.716784958975057 12.816372422959754 1.8518175115321398 0.06829955570734689 1.2361375489861937
P 5.097461881081255 8.512025828889659 4.057839444371204 -1.1119450387659688 0.1992710365226181 -2.300724153072857
P 2.1182741897682953 6.094822050795263 12.474213374248274 -2.30688040248224 1.6706892073568194 0.5714603306059385
P 6.3208501335566005 1.6997634840254832 1.302738023371894 1.1845079977353599 -1.5824443188757973 0.7281803811402233
P 0.39517182802546547 1.5035030519321098 12.61141096319686 0.26400035838020336 -0.4100377323896615 0.5321854442657157
P 8.597523125522844 9.226412316575736 5.248058161560621 -0.14885324619169849 -1.183280295975846 -0.14200871246603933
P 5.583082070556335 2.1593474215131487 11.14371263084274 -1.2771831540735938 -0.534787143554621 -2.341613435088051
Ni 3.642485576168827 2.5463640085417714 12.248046060192884 0.6771247001149886 1.4076560979858916 0.22626376306137808
Ni 7.271660640626441 8.481042224920321 3.2105668968089662 0.40376963999276266 -0.0908491588730887 0.0825295832637998
Ni 3.1362870014331046 2.6362331678081374 3.0182262897474237 -1.2568776097470225 2.324815903914738 1.6569435756359527
Ni 6.014986826786791 5.708993570809202 11.623137027732579 -0.4831894739829872 1.0859406442824073 -0.479656006908432
Ni 6.064283986966886 6.115595359867575 9.216832275336444 0.513059264959226 -0.7630658801634987 -0.40102395892682546
Ni 1.619649797428912 2.428017408598974 7.685554436658544 0.6896228325819995 0.18019987882377997 -0.5870319597919503
Ni 1.6857939441890981 7.111758140452749 8.218410234953145 -1.158143134588586 1.5368918270569791 0.3504400753316868
Ni 0.3776463209390344 1.8119467786849852 5.665900557091992 2.1813830574076625 -2.512576625804911 -0.6808931660184854
Ni 8.180516117755776 1.9426385533669137 2.4709981090723168 -1.3083878618111726 -0.685900903645722 0.17843353095197656
Ni 5.722127722881285 6.552818751530754 4.709687875812999 1.3441454790267562 -0.8985375628419687 -1.2834173079087638
Ni 5.710562243388836 3.4217946930127523 2.525949916208109 0.4146608329839698 0.8787891765704479 0.5451790283119062
Ni 0.45779342304617787 9.17705946387802 7.1912415733915855 1.316107084832301 -0.13409845648002713 0.13344128251200246
Ni 5.192241263984463 0.5205477519005517 13.19158405267016 -0.1328571278737583 -1.0906285366763795 -0.4665050713487708
Ni 7.256939251802184 8.320879826331069 9.914992748013892 -1.8519797481416167 -1.8778661289900755 -0.05301460452381838
Ni 7.709543060414791 1.3085142656577293 11.471987534911518 -0.4702915349743965 -0.3832751195838367 0.2975098029915586
Ni 7.944481945995353 4.801641791655611 1.5822764052712897 -2.740035951836288 -0.48058597492186916 -0.9800926980076412
Ni 4.250174482180985 7.3152029073191205 13.006049999470427 -0.32150230925141404 -0.19967418549830773 -0.08620883188759992
Ni 1.473029962707623 4.149853693774572 11.489716319687265 1.234756352367951 -0.7910603084938957 -0.22246958612626846
Ni 6.4288379252220516 1.0466573298941013 9.367411848060524 -1.554159612998491 1.7184050253755438 -0.013677754597408704
Ni 3.714885849075009 4.863367665351266 12.757113727794671 1.2506097744604396 -0.4127625875199924 -0.8223997420371257
Ni 6.374482028024795 0.03727685846041371 5.446213067461707 0.4369175874996411 -0.8273280325766785 0.9139130168567744
Ni 2.0200697170314483 6.851933981582255 1.939202325029751 -0.8744756367967584 1.8445978538552492 -0.4222111345274019
Ni 0.6193518474104419 0.6668092980918173 1.286046047632511 0.3186725531121028 -0.15452329999328224 1.2852785294872189
Ni -0.11858514955993711 6.104326907135766 11.357857786761194 0.18156359194052601 -0.17710041396284984 0.7359070603605197
P 0.4190796976311646 4.758675014311674 2.393086133338995 4.546675581280208 0.29773143208406144 -0.3423220742102427
P 3.958299279420101 4.0926203498336085 1.1188515404850887 -0.7983892380551412 1.2217126318101152 1.3517119785201044
P 7.7598890963433975 2.645700895803561 7.611121386859226 1.1274598465721164 -0.39646230769807206 -0.06285370210142725
P 3.7791178860635704 8.559819291094009 1.134047243917744 -0.2695063758000971 -0.1454496198267882 0.3347005531092429
P 9.15264757698786 8.871901595664735 9.281104225295966 1.0716987896514125 0.6084343367271264 0.2165676188195367
P 3.6008739834203127 1.6840396298840636 6.384995847142851 0.1810383155646753 2.4095527792425018 0.07279230137137786
P 2.514220143788681 3.352745253250049 9.612775444730948 -1.3749043574761675 0.9267759888623716 0.6062694678653237
P 6.274096265014493 8.113332377333347 12.198269944361257 0.6917779312517892 -0.365150642068984 -0.3183161982139486
Ni 2.8944051153225665 9.189636690773902 7.117568726457783 -1.0707284553183432 -0.5634292327713458 1.4577985231682378
Ni 4.093706353927201 2.4816771493259786 8.623889819781471 0.6447629959548316 -1.997502387298186 -0.5346303062617825
Ni 6.15791239117261 7.888817274634023 1.012825053648493 -2.0016354356299524 0.5481229414315785 0.9801464340637119
Ni 8.219064622035182 2.7589794766429256 0.2778174831049334 2.5571063327861703 -0.738592834722799 0.010074867737498779
Ni 4.2600784682311 4.365513686172295 7.265553027860765 1.0015866062153589 -0.09198275825689965 -1.0098298200607576
Ni 8.711080168950309 8.49631125683451 11.610190373803151 0.977866894000916 -0.25030177784718827 0.8668528301441781
Ni 2.180222833534431 3.3903469847299132 5.170921240030847 1.1943728063445818 -2.506445573206509 1.087375834067037
Ni 2.0072604379788164 4.887593910516027 7.476980388919357 -0.06644656165900814 0.1826290570905629 -0.8291476022839204
Ni 4.337184758876184 7.9357660669878 5.952264057025737 1.3740042142594013 0.2973629930010492 2.0975157291690456
Ni 6.243762407084057 2.6812327220452103 13.021889879690221 -1.9914263563074346 1.9600000194773533 -0.54957330072486
Ni 4.434748767660399 6.497516081533955 2.0750957808574007 -0.46954977171236556 0.3664390218631044 0.7204308191017915
Ni 5.860235884492963 1.9680529055742375 6.962166181707798 -1.0050326557824305 0.3063878222074788 -0.8082077668074598
Ni 7.927245111791919 0.15539047803783365 0.24098894941136184 -1.286510859232423 0.6866277545094175 -0.12442236684284377
Ni 0.409339076299402 4.626163950720819 13.575952460485947 0.3800350153799842 1.4447398902120667 -0.21487197628466867
Ni 7.539439547430344 1.9234246347879653 4.985672146879601 -1.2580148086752592 1.304471814586218 -0.5961784021779087
Ni 4.568113783188094 7.5379358494546 10.583293677369303 0.6471525792329306 0.9204459328792858 -0.6746808665601864
Ni 6.7913776507566235 6.868483941401707 6.782990357603031 -0.5943503478302344 0.5564592292114159 0.2539092926927885
Ni 8.93385023943087 6.07413228049938 7.278363235122025 0.8017072466847806 -0.19720541224284102 0.48550912325509926
Ni 9.050275447515771 3.5046373129727106 3.927705523074104 -0.2499842466067695 1.3741163143572335 1.1920001923473473
Ni 7.914519371515717 7.018556712215445 13.653877431140046 1.3906683051786437 -2.043160808567249 -1.516655445405446
Ni 0.7674280414674973 8.499949834652359 3.417605687479091 0.6162628316326096 1.8873432152425753 1.6828944911737598
Ni 1.4128634795053319 1.2074230640909054 9.702275176963768 1.5367378179776177 -0.7075961292309686 1.2136694497906646
Ni 4.8940449604736935 1.4543915334774162 3.901146689629686 0.26645036258259275 -1.7184201948841953 -0.2524969857262942
Ni 4.589787454628598 4.078316654891503 10.290883826439266 -0.04539102654028957 0.613038411158041 0.5111101116526553
P 9.074195383833622 7.902916763678188 1.7457757138746157 -1.1950960576638514 -0.055597020539013935 -1.2905516049606998
P 6.553496343828465 5.94254942553553 2.6385991715983663 -1.4313837806201348 1.1801180961977806 0.3748958943812059
P 8.225812698753488 5.857980337529346 9.454764633739087 -1.0475692435930604 -0.22028826220423353 -0.547032022360245
P 3.23008248319169 6.151257135317004 6.006102942017752 -0.968413719007816 -1.6440168402719557 -0.018336079305026485
P 0.9214781862479395 1.8197344490655347 3.4004746690591356 2.013334983455068 -1.2339343706872878 -0.5791445866240735
P 5.700918155754282 3.0924755542385944 4.857196006190328 0.023944426630739406 1.9571910892736488 0.7321311382578553
P 5.670704964945355 8.081160666321447 8.229414148226258 0.007213229918987578 0.4716236235222588 0.3503660275606417
P 8.062438698314809 5.566931240446495 5.266724437049638 -0.035262679857036044 -0.4817977358417831 1.9191858136744688
