# total energy = -381172.5497912484 ev
CRYSTAL
PRIMVEC
9.21196626280684 0.00000000000000 0.00000000000000

0.00000000000000 9.21196626280684 0.00000000000000

0.00000000000000 0.00000000000000 13.48264378543679

PRIMCOORD
 96 1
Ni 6.065508506308974 6.201338945812049 12.337104353644122 -0.6174900191714914 0.12573182968288668 0.4935877864981758
Ni 1.2744939278487255 5.738400803608757 0.2722135969695403 -1.7561771019179948 -0.6226332539353278 -0.6539531470945318
Ni 7.644706635408511 2.147318499735933 12.891294389209879 -0.16457657046422625 0.18386138683576722 -0.09116386190003009
Ni 2.040689992631959 3.591496842345367 10.119910327779827 0.21756777794927695 -0.006944292528317073 0.6661075230688785
Ni 8.93053128150673 7.827822096679594 0.4304401683491754 0.4025033716858294 1.5053361637378848 -3.3679867613297865
Ni 8.077890127249312 7.073693707430375 11.509054542774528 0.7131911068202428 0.39639417346429795 2.334527474775547
Ni 8.658225564876624 7.856019924778537 5.69029591686172 0.7566833736759226 0.055286688387446714 -0.047456907930382784
Ni 8.864757843863329 0.3614425425859992 11.545673029045714 0.4770242257125398 -0.30443224114300477 0.8112977185866931
Ni 2.6180131173587964 5.267669338121667 2.1721484330446197 -2.175084368883144 1.8324879579655926 0.24853260176190745
Ni 3.4288687935839364 6.266310942408535 13.319206794073152 0.6944621629521718 -0.43413231144502007 1.1999891240900946
Ni 0.18495509089256648 1.0451712448382438 4.923052451537863 0.4047070642053675 0.46415251195619417 -0.1574978092405739
Ni 7.395955915984874 2.5689041263116015 3.9972940802968018 1.74430683284297 -0.281602901953315 0.5659748820113348
Ni 2.1402529217705983 0.16971942023172307 3.6463135675611684 0.12993944000633106 0.7562493714622975 -1.1321194568313147
Ni 1.2134370168262514 2.787089542359776 7.9690645662408635 0.14120627116940196 -0.10438138903156861 0.5567757320105702
Ni 4.073641933776458 3.7362352530250758 8.99792510397947 -1.3034685701326842 -0.0107747220180008 0.1316685068822958
Ni 8.108133011812797 8.360467186032412 9.648800250487817 0.4019513558371013 1.0074538636294132 -1.2400618237412644
Ni 6.115658449520553 3.360866060154862 9.906386166556244 0.7609416347316443 -0.33939950124680907 0.13241335546812033
Ni 5.299782251794622 2.0693299951016138 3.2559233428392274 0.9169271210927499 -0.8581218780290836 0.6135045521611822
Ni 4.0976206814215255 2.9315147461935647 11.497148997843107 0.4805942024519852 -0.8041325682968216 0.17724696684304314
Ni 6.762826700887765 8.990666995923554 12.713309993032267 0.460621101764168 -0.34447665865940025 1.0498531545312306
Ni 3.828437821284573 5.195318556713925 11.378016168014042 0.3848177814806082 0.020312486305106955 -0.21871474706952654
Ni 5.694772932365178 0.5532200155400087 9.100083043956225 -1.2255170931578698 0.979408784566739 -0.8535692256613946
Ni 6.744734399552802 3.3850658949852845 2.016153921040474 -0.8682561382496079 0.5756597133992667 -1.5136508542511673
Ni 3.428408195281112 1.4448508161315583 9.743016554527266 -0.15774617780595415 0.6610553053569519 -1.2029605480135928
P 2.8807476012562 0.9529778885448035 0.47526743757330997 0.029333458856794645 0.11149665992011121 -0.39822222781197225
Ni 3.2562918214814873 3.5910915158388805 0.21147541997262095 -1.2966698020432958 -0.538584405813524 -1.7267300003014712
P 4.433571871535981 0.7579771486676251 11.449393244609613 2.2681606173145386 -1.6496308440246235 0.6863518751402116
Ni 3.2828683435544868 2.1698141208459027 2.3309470675163633 -3.080938519991184 1.6047890051195846 0.46768957857517524
P 8.273653617915969 6.736719989083648 1.8793460919388045 -1.1729927980069088 -2.5470476629985876 1.6319074586029314
P 0.7843445591111416 5.242935209259968 7.482732636237092 -0.16213556512290142 -1.6756424375970367 -0.06666047744202713
P 6.790582354615997 0.05526442676614775 3.278668608229329 -0.4194199449355099 0.6121755489371135 -0.751141360811771
Ni 3.6582928082210393 7.755296287916779 11.009157992752563 -0.15772123810528965 0.5634230621237587 0.5632163454295913
Ni 6.033625891787431 7.993176887393749 10.683592373170205 -0.5051901466237945 0.2266705115814935 0.7977616317734711
Ni 7.283413326672627 9.21021578294809 7.61017005346609 -1.4678926741794462 -0.8203094351670002 -1.9934883810427861
Ni 0.8219570165198263 2.7383213940566713 12.381380747298078 -0.04882499192250301 -0.3309004626368624 -0.06264492852473082
Ni 1.4258649540891142 5.7042796813354855 5.123067264539593 -1.628651670669795 0.6075722458371472 2.6017926199499515
Ni 6.4218642012385745 8.044966560563385 1.505809159117228 0.9637764773461208 1.1139078189192946 -0.3230621975393662
Ni 6.777252639732243 5.6668146153837045 9.94495943202462 0.44287509063465663 -0.43789126426682 0.1829188204168398
Ni 5.129093732733755 1.8207358791009363 0.7001038931142768 0.35001687175133916 -0.12226032619451847 -0.9200859784367057
Ni 0.7158959665249327 0.8438409630836449 0.28647279922839486 0.20615927900201916 -0.25809787685283936 0.8235798783881558
Ni 2.453708490775084 6.012613397212558 9.58657710456259 -0.23856983412224075 0.1616892216141022 -0.8217952756839072
Ni 3.793920584470872 8.206120694755775 8.439716808819867 -0.6931095055790192 -0.1435655154301979 0.8651119361936713
Ni 8.531920298275969 3.707475494996687 10.41051561498117 0.10924334510956024 -0.3264745656550248 1.2225078740179012
Ni 8.66207616668824 4.607797785562543 2.5554601830487473 -0.057382651684526984 0.20109292022270528 1.1513240547842236
Ni 5.459886221856571 4.13099563444422 -0.025539254695037344 0.9414253633444303 -0.10249497064213316 -0.9471560951806203
Ni 6.440619764129606 7.484059159349228 5.886293391466212 -0.8640423572785765 0.3018691084015188 1.5431907726918135
Ni 4.685841561993201 0.4776017497720268 6.742279410598744 1.6375374031951992 0.6331089566556709 1.5772702308740254
Ni 4.080560120284889 0.0960522488745076 2.0115700467307605 0.8714638465536282 -1.8218914133966688 1.1560302020106414
Ni 2.516699914669423 0.7921434095745736 6.0463724892198085 -1.4647219897609483 -0.4033932304899504 0.06328539032220713
Ni 8.295900515942414 4.190228576187508 0.41745590219254036 -0.3371389873474065 0.6600831712516696 -2.0946746601758246
Ni 3.415566714598352 2.919336527066873 6.754049539629134 -0.5309945092814081 -1.336203855582176 0.5262770492010808
Ni 0.18232323219022475 0.30980118206987245 7.634128534785834 1.673971220542201 0.8221778558343066 -0.4720414277859677
Ni 7.162764207230661 0.47015663880516445 5.245341374793925 -1.266404061180219 -0.17923700068987844 0.2345838528912992
Ni 6.715394287662853 1.2232293367443094 10.952949339465624 -0.2880026348320717 0.6161026519056615 0.38310388411329505
Ni 7.871892142293885 4.493901037239992 5.19497034439699 1.1569077195195883 -0.49342940654344053 1.4631304769041125
Ni -0.028107550831589216 6.294702221794664 9.75836000519097 1.3587236339512472 -1.263860983043391 -0.8173290123824375
P 1.4435611408836486 8.200096068954824 5.255534415235441 0.3868715786858434 -0.7326181051966028 -0.2627960536594571
Ni 7.933428075551297 1.8822441764601792 8.902373986058436 -0.5466553557471167 -0.74494911595813 -0.16598039279028834
P 0.8966550068787641 4.613656595974476 11.538675619629199 0.6046630426101522 3.175238356417035 0.598510135634879
Ni 9.076384340079276 8.718204675870489 2.6942909598964238 -0.2904521248138288 0.856639379946286 0.5545005628231483
P 7.0355285320583 4.223732496734994 11.980245685367837 -0.2329974822407858 -0.09093297683614662 -0.5893009583317851
P 4.864507643658996 6.085452412821294 5.590686006696193 -0.65710454823932 -1.4380287967404783 -0.04424302897877542
P 3.6622447416592774 2.0782656021764176 4.648019992955034 -0.37231502102790714 0.6067494928255357 0.1884765170102754
Ni 3.2981509952422177 4.537584180279909 4.516361652878947 1.6900946084666246 -0.8717782924702534 0.03935510475885481
Ni 5.504177354656218 4.847401022692077 7.676032847180241 1.3643690051624826 1.0905377767347866 -0.7347973722361087
Ni 7.646088430316985 2.419347857384343 6.390746179899722 0.8909371247868914 -0.19301502831057726 1.1039620205604923
Ni 1.0841931330535728 3.465633750115423 5.848109792162024 -0.8120955318976402 -0.019398716241585946 1.139618079201205
Ni 4.364859816720556 4.251368394904491 1.9985461691200823 2.9275945850179834 -1.7772123253217393 1.8621818854855994
Ni 3.278501871643706 7.412215036074594 6.307261816316095 0.4287011131271197 1.111117143548035 -0.5644497036160602
Ni 1.1519102955348954 7.300777882689127 7.48955409710193 0.5249408468881605 0.3794673158019723 0.26381446762164246
Ni 1.2759033586553696 3.733140032430093 3.7441566226370595 -0.3511851810278274 -0.818279549221165 -2.119434383619008
Ni 7.903627365358523 1.3413912253510198 1.6190905481072055 -0.6923700563098334 -0.21465111852311416 0.4544843927388108
Ni 2.9899554588559933 6.930484483116044 3.892668254613511 1.9529595676908047 1.2364694784043158 -0.5265346737378416
Ni 0.802303286938286 1.582523648845933 9.9152978225193 -0.22155735872464424 -0.3919939875140733 0.03384625912548365
Ni 7.822294917045696 6.283739982187431 3.959758082206386 -0.7879981246288041 1.7588528489779451 0.20351721339348178
Ni 6.034298365309556 7.380654840365028 8.430939647561235 0.07780492409462085 0.1001023020402405 -1.2653977314028917
Ni 8.17548169565186 4.070841496095283 8.22950895537662 -0.10047022690262052 1.2693950254877429 -1.54261253159084
Ni 0.8523776920282023 6.62625930410017 3.1867304233956535 -0.582396517902468 0.04124512269271607 -1.179522885815943
Ni 6.054371239346666 5.714698414945386 1.7288520448669944 1.5922998715136383 0.07227139587090134 -0.04773098752737586
Ni 5.811599085893696 4.703169270145475 4.1551079555971056 0.1726981711300961 1.1317566741752572 -2.0571226700639795
Ni 1.2133725330638558 3.541402170930126 1.270532782444431 -0.5423621276884014 -1.3855507814464203 0.39326899757175493
Ni 1.955249007457932 7.987539164167171 1.4607230336469057 0.9888095090553487 -0.10485909999893554 -0.5841163288070521
Ni 8.006976412546383 6.424185616684812 7.4914149142453414 0.17653939925305723 -0.29993666726549634 0.1733283485149273
Ni 1.6219324396356352 8.507213805312439 9.708285600101052 -0.9591957999539739 -1.1110932322886349 0.7714962703190391
Ni 4.424571780698781 9.202330340003728 4.564993464084416 0.3279537213037126 -0.01575186351761803 -0.7851100044477317
Ni 5.379465758183336 3.2999749645214047 5.737255756227934 0.7850657814733576 -1.2140396886458897 -0.2621337374851099
Ni 1.5512674480162327 7.387379575586273 12.069864297148486 -0.7921784812587389 0.29714727744581726 -0.4227901469593235
Ni 5.596545738304732 7.279350849641711 3.7595673206529763 -0.2631436668068629 -0.2732951534185681 -0.9233111702422228
P 4.394623679049103 7.086636519739756 1.898410255692729 -1.6179643661592777 -0.43176586809537254 -0.2361720233140255
Ni 2.2236027906497995 0.8545415828548739 11.662162945813172 -0.10646861057790051 -0.6372648878055734 1.8328054892060113
P 5.8352001429304465 2.401283191947549 7.653665272398455 -0.14605871416569685 -0.2581156174646522 1.1973758548369637
Ni 4.594477282644846 8.21781989164753 13.422240792021881 -0.34733341138190504 1.163953570622776 -1.3257173542285556
P 2.2296826882470886 0.6287774823320177 8.22303754922193 0.13673100900686774 0.6254100453495164 -1.124256252033154
P 0.5979800374119308 1.8781356395989806 2.6481795426040136 -0.1868592931218266 -0.7240470756981401 0.6676414432149018
P 4.698084264882287 6.2724737477003325 9.672084415892224 -0.7227432692850521 -0.2784620423314882 -0.2383312357488734
Ni 3.1119679492743204 5.1218991872436295 6.990926034805944 -0.8450480755642609 0.8730869839793479 0.47533218272209754
