# total energy = -340887.8898278077 ev
CRYSTAL
PRIMVEC
9.11453062886114 0.00000000000000 0.00000000000000

0.00000000000000 9.11453062886114 0.00000000000000

0.00000000000000 0.00000000000000 13.34003688621756

PRIMCOORD
 96 1
Ni 6.734845277685647 2.2204546435290005 11.445592071209145 -1.8035219097505455 0.6215274224656586 1.3910439433505075
Ni 4.680894882333037 0.5559316900192016 5.845417463917263 -0.006467095781582411 0.1759560159457615 0.5132806369414128
Ni 2.6737476025040627 1.5932382083276468 4.570096823340162 1.1930150067651069 0.8752276844714346 0.617971329683284
Ni 3.424866969044909 4.476692934876071 4.648122675482641 0.4031232646580154 0.519237625855796 0.26198435639143913
Ni 4.091348802819938 3.1366746205070672 2.7110688716636786 -1.6738128405874657 -0.6245726370498856 -0.8726743219219616
Ni 5.7836346170668325 4.747148406528033 2.630108140612025 -0.8669500178436746 0.7304108131326389 -0.0803523731068229
Ni 5.215407425033731 2.9315429909111694 0.4740157561424503 2.252101249858831 0.058880062165659885 0.6313562356306223
Ni 6.109825444400787 8.018043607210572 12.231879854740827 -0.7524886188682847 0.12026103637630256 0.9326959538912324
Ni 1.9804325901308684 6.726669543581518 0.3669027019414361 0.7979639775922645 0.6883257110371307 -0.6766721859586023
Ni 0.8150313677800445 0.24788971636210497 0.3749207546631775 0.1456121135465815 -0.8959155518380894 -0.08759208538837172
Ni 7.927563660218727 0.10938257236369867 7.2403581178232335 0.19463276641965835 -1.0303539081560384 -0.6253956471718132
Ni 9.169947120938428 2.7258280313457472 1.346209815123669 -0.9043698532530295 -0.3232514307320369 -0.765025832103347
Ni 6.88167125392133 1.1283697952698157 4.829133610838665 1.2896689452454304 -0.6625632573610459 -0.6546406600798597
Ni 1.2773376862373507 7.672238309651329 2.8240462149645773 0.05880858549777614 0.18044439073441826 -0.5497795031983951
Ni 8.0483038493797 4.085761595455577 3.3451075331492466 -0.18742596425857397 0.35591189707953547 1.1453776073928017
Ni 8.181786152562491 4.05288548295436 12.337333152887926 -1.4753167345576592 -0.41217894710238046 2.3015484487463653
Ni 8.58775646775981 7.435151135162371 9.06304734675752 -1.590849255110041 -0.17182168206241377 0.5223432613643133
Ni 7.341499331461232 0.8369426997603403 0.17441292652884605 -0.8680201109794019 0.10211419026394672 0.6142365452312002
Ni 2.0504504155354573 6.611106407900083 9.15754862472678 0.24545936215322245 0.7202189602013015 -0.10404920250313049
Ni 0.23005895980925445 5.187735709604372 1.2415440124354291 0.6280752508865054 -0.6822501942670121 -0.2822749883196752
Ni 6.710591511296475 2.149680312070183 7.177553532073056 0.16080039125124562 1.3570796705899209 -2.4206535171413535
Ni 3.6695830057915653 4.592110238065125 0.42844492517943744 0.8272439575033044 2.064586582541193 -0.5707748745031396
Ni 6.5661717711850835 6.058018451482317 4.724347496344211 -0.3730166750806221 -0.6554803823723356 -1.4659638325878495
Ni 5.6832927477777 3.2590098525534605 8.977324273376539 -1.1779959076484552 1.576265443758595 0.9571224623647128
P 0.49013571526905225 5.752681670558895 12.279637261636482 0.33705851181845825 1.5361634335313867 0.275888368067041
P 4.239651333040983 6.483612351435699 12.507191548389088 -0.12977900316906682 -0.10321616507887385 0.33162114285297084
P 2.6723804228879877 8.597627504587871 1.3903915915967497 0.538260189704886 0.907579875549895 -0.29261159435899287
P 6.636235169243542 8.208993026922386 5.514037734213765 -0.5879485580689486 0.012961702366990579 1.0367580119101694
P 4.917006802029194 1.2578508194428946 12.538140849084716 0.12302702915721395 -0.29213336917099364 -0.6886877223622397
P 4.2444273471664715 6.270414362104959 8.233337938619293 -0.06125113350099774 -0.7147540804319884 -0.9761077452179641
P 5.012663802500577 1.3356706831898852 3.5073489152827153 -0.350456530391919 -0.8212232052305211 0.631773525673699
P 0.3495176459434261 5.8429793269352635 3.5463955651178183 0.5210636233209414 -0.4199213100519607 0.3617848109205447
Ni 0.6841102477446998 0.3014394075645317 4.63064738562997 0.36109421261142327 0.23580846932701968 0.10509564148977384
Ni 1.9921994493598874 6.8112888472857875 5.158752413196658 -0.07672840320099043 -0.6104310554421809 -2.0026355947596928
Ni 6.3193685068912195 5.77454742988532 8.903927691414088 -0.39071743479449483 0.253310482766525 0.9752672515945396
Ni 8.894414855645438 2.6207557205849947 10.137601306526312 0.4193947481245293 0.054077755681010094 1.4784431960017828
Ni 2.6580250369192 5.405782629306791 7.015325821735749 -0.6760926593060486 -0.22840266378125176 -0.11611487541841292
Ni 0.6047245076107646 9.430804991685541 9.273220223324424 -0.6714854995513403 -1.1969631927795774 -2.03273729924108
Ni 1.4177652618698038 0.9236118614356457 11.14141192424092 1.8053731040266716 2.781501418069926 2.83928207652382
Ni 4.681797220879647 6.914210128783917 1.5656530809406395 -0.01918840000299276 0.6288206136929622 -1.3678142833986056
Ni 5.829389561551477 7.778039782873988 7.629113818748013 -0.504243466439809 1.381431617071724 0.833933453708338
Ni 5.721701380458634 3.138333465107905 4.464723733063873 0.0846232325680349 1.5044581320083057 1.5479604261663147
Ni 0.7130288309839188 7.674963554352704 6.933364315205128 0.4278791314464566 0.1998755028758364 0.17793242294584194
Ni 5.114673630921322 5.193805987099744 6.45445679039636 0.6004641740374562 -1.6010783890372169 1.1197740478920846
Ni 0.9188449618409308 7.802102144116908 11.238514489293033 -0.11658178775250244 -1.7268498137087873 0.2965065585380248
Ni 4.880147639579812 0.35901772136899274 10.404308883124074 -0.8812924026082758 1.626042772292038 -0.24327778112087134
Ni 8.490504424403007 7.674945325291158 4.492577739108707 -0.7512367487390547 -1.8495377143590277 0.31741142701149205
Ni 7.533806816258345 6.638750779737119 6.777686306681897 1.6656339043210993 -1.4853833747650418 0.5859708655172876
Ni 2.737503745267028 5.536886039957611 2.40835707560312 -0.8527618992687508 -0.02048243622406795 1.2202615011858857
Ni 2.4843932256776715 5.495761277106076 11.318674964542744 0.7893073303585311 1.1480818936978419 1.4496740942888904
Ni 1.25515291833384 3.567646093617011 3.495610311099095 0.742565703327618 0.7290890089974218 0.4442722280924994
Ni 1.7926276835360286 1.4718144293586366 2.3584249416648277 0.1929245254793 -1.4133649754452111 0.5871178346375372
Ni 1.1351783497578694 3.5735249659661337 8.284229832648071 1.0840094886979654 -0.3411483656171157 -1.0432652169010677
Ni 3.4304906345323642 3.0188328521321734 7.242293132706518 0.8928659663784881 -0.2181722443024952 -0.2219759343193016
Ni 4.412863875866915 7.186105696298144 5.601467959208687 -0.43106472826328984 1.1278761081739286 0.0076449181397674785
Ni 8.411417640878453 7.264691180630137 -0.07819264805564037 0.8474111764797985 0.8531665909063372 0.08435069563293861
P 0.36841389114373774 5.778566937956581 8.019110007311111 0.7491765237759163 0.08009294879784916 -0.8649180750153103
P 8.790290456085165 1.8520726532429708 8.166823738844167 -1.3254468741759884 1.1857830077930418 -1.1614122922581611
P 2.1214981829174895 3.166233043806609 10.341116929816009 -1.4826358939268918 -0.5797678220303694 1.47376661646172
P 4.46696773054039 6.358333125949358 3.6372947805252602 -0.2760405773741891 -0.8977497768333507 0.2299550958700362
P 7.230411430389749 4.126594693322351 10.530678206490967 -1.7312127186631732 1.0841511564821522 -2.9339781199468247
P 6.66383396842671 8.250792265051185 10.155730108235467 0.8208159424897735 -1.0192655115523606 -1.1894152052289904
P 2.4700287251781097 8.786106886459976 5.756172535845273 1.413768381531217 -0.060262801445799444 0.0726578326760426
P 7.228296859250219 3.989548608606991 1.261646110057119 0.2967572410962502 0.75461877783741 -1.4730119976838827
Ni 2.977297935395814 1.8399503273137723 13.688745542177298 -0.2697647716678064 -1.044642813974885 -0.7306463261822127
Ni 1.2226869597174448 1.0906629814584665 6.882965517291215 1.055904502931633 0.7016720504370496 0.2231910376733253
Ni 6.8535529264840545 1.322773622144911 9.340493663513012 0.8273375456583751 -2.0358629893542552 -0.38200396618089694
Ni 2.761493190263758 1.5497892401287823 9.069357336412246 0.8020363478894251 -0.4601490472237559 -0.3106946771129488
Ni 6.8348316802746 2.172840334766494 2.3910950657705565 -0.22506177233347693 -1.0908586504093147 -0.14519430928287252
Ni 4.652694524118796 7.148061644848163 10.158691419283887 -0.6318527156510666 -0.44657002298774057 0.7352799682994821
Ni 7.7193604337520485 6.242533012467804 11.179978238304242 -1.4963920671707196 0.7580666271766945 -0.3097724224089955
Ni 7.929423024496589 4.3253917240304345 8.197425775917312 -0.2825943193323069 -1.4842055524068567 -0.6829621327323722
Ni 3.3806432657302685 8.622938556546808 12.20521347205582 0.1419562619615491 -0.3186936361580253 0.7813088855340867
Ni 0.3364300912052785 5.03228738725664 10.149193166764475 0.35316235935885626 -0.42150845203342246 -0.13390510952229845
Ni 8.945757007494443 2.596264976395704 5.506099889362834 -0.906568403566245 0.3459445014541784 0.4213169048479067
Ni 3.7948075440932643 3.2414279226907357 11.92942144263578 -0.7248888548731451 -1.1842534585223927 -2.005735059620623
Ni 1.2523729864478208 3.780096691424297 12.488315355156477 2.782388191550253 -2.197163460170371 0.3861172170183221
Ni 3.454808202636952 8.33651442697909 7.836738272510554 -0.46158680811154695 0.8826075218752735 0.04380928387546649
Ni 5.885234291602755 8.19842928575551 3.3280588033367913 2.0484901911999622 0.038672219759217266 0.21230987198444728
Ni 3.6680882227446565 8.612074035864397 3.5036939884424085 -2.0304369332426773 0.03937413092224831 0.18161167156964206
Ni 3.371820399941198 4.4967813607016005 9.466984210139197 2.0016506051386047 0.3864224069635667 -1.9663964099220006
Ni 5.1616499225296595 4.931088752074767 11.257350578590236 0.8740598894155786 0.08510197197666633 -0.9541404969182535
Ni 8.304103155547338 -0.1028173758473064 2.437478001425518 0.3196475154308624 0.4254669224605382 0.108473042602439
Ni 4.803849902472051 0.5079190762618788 1.3886580078435664 0.2870466986767057 -0.4660085913283265 -0.3337708422061219
Ni 6.281041904987249 5.685471120632646 13.317225418945839 0.15851545187181088 -0.21755697931599952 0.8797445985051817
Ni 8.125713559241868 9.482484381173178 11.251374180761834 0.7128787177861464 -1.618673476411161 -0.10218540982151432
Ni 0.2959497256794517 5.048739115303411 5.860651490652649 -0.31095487275287087 -0.06521937412012638 -0.2988107811911692
Ni 7.633847906031942 6.386952752579195 2.3077599994523195 -0.5217225970611788 0.20564428703881357 0.5798490688902659
P 8.8445127996587 1.778208495851824 3.4585916443611704 -0.6361140620305819 0.9937565686479788 -0.6702539411370844
P 2.133948631954546 3.5715197691958904 1.3522928529621254 -0.8437290996425211 -0.1754597930356333 1.2906104832230936
P 4.867934168342875 1.3372839551368538 8.14038430797543 -0.44342839203496537 -0.2328056779449539 -0.3582138057398347
P 9.079859098769855 1.851471094211898 12.592141709560448 -0.47883325389682047 0.7138328541692996 -0.48429247723917884
P 6.883220724152882 8.014926437685922 1.137833412572287 -2.185714852013797 0.37988897672042315 0.40488344188223174
P 1.917496755137548 3.3176162854292097 5.738990733883519 -0.13819036716121363 0.5356178669860323 0.5583335634159934
P 7.167584969765714 4.248045815883684 5.987515733040561 0.022934497308986307 -0.29210611547748405 -0.18680144330069764
P 2.6578154027114014 8.584384091373492 9.97107700638222 0.2862442573800683 0.0868256395359924 0.6386892789569258
