# total energy = -340871.2074795337 ev
CRYSTAL
PRIMVEC
9.23184735539858 0.00000000000000 0.00000000000000
0.00000000000000 9.23184735539858 0.00000000000000
0.00000000000000 0.00000000000000 13.51174177405771
PRIMCOORD
 96 1
Ni 4.190381623386166 6.763195900029665 4.943878533166059 0.3993504278791445 -1.0660176801062349 -0.9131712535947435
Ni 6.512403537793275 5.663655197701727 5.910049507910972 -1.097263268384078 1.6300747762695666 0.7865971305162196
Ni 7.547469018967603 2.091687325663903 11.157037281646398 0.39184563486166707 -0.06629538079312454 -0.5363544880417408
Ni 2.7188251726580295 5.550241954306525 9.190767370349352 -0.8633309330338487 -0.3959815114069116 -0.6266300337995466
Ni 8.414228693032618 2.2174250851301336 0.05956757115858362 0.3787718323968445 -0.5511720126705475 -0.09773508735964458
Ni 9.04159733620785 0.12593162825835955 11.953148398305595 -0.5753681503007769 -1.081153507306409 -1.9687625961613322
Ni 6.064012717141671 3.550097625916275 0.6978381027445111 0.8906334775035436 -0.2006162376966029 -0.18997007083666637
Ni 6.939311849907586 8.009282945512297 11.306638443054204 0.2628060809617861 0.5714670154741577 0.4489398087714978
Ni 1.2212072171594692 6.019986037634002 12.001939634176003 2.2990303103102017 -1.495271066192399 0.6961292662419495
Ni 3.1157669086176134 3.0514486288671563 6.312888547890162 -1.2783362938414307 -1.222235851303437 0.6543966623898536
Ni 0.8884720555986876 1.9484552156698811 11.11194801652092 0.05110247510277006 0.9329980585126836 -0.19085273055193583
Ni 0.4006012402071915 6.36778665071262 4.60849013870729 -0.22177770226556642 1.058349622038016 1.2555717464514053
Ni 0.28348141014343675 6.087433913600249 8.383995316492532 -0.14550746964791716 0.009163668777139056 0.8316852811041096
Ni 6.179687763111706 5.959535901878872 12.708049472051332 0.349352755804779 -0.4972564935990145 0.6140712232979296
Ni 5.593280826159063 5.147262590249224 2.926440185333218 2.5041804313214167 -0.3010766944072105 1.1818091107469584
Ni 0.6883920766442285 7.495521414524395 1.2252433807746408 -0.6246860226992983 -1.143415084349792 -0.23627846698490274
Ni 7.967499604884972 3.150266321769251 2.3273708467004077 0.9045698850789776 0.5778690623457596 0.6305699922839011
Ni 8.537224593867316 6.247763404690559 10.701609947025252 -1.6907232431895591 -0.47672392086330156 -1.4925765500793713
Ni 7.474371252487896 8.174754575517637 5.504291357833162 0.12772366330193485 -1.2227385019714685 -0.7866369826152194
Ni 2.8868817198917496 3.0623329767680874 8.849096703840893 -0.22304525612408038 -0.270927681627656 0.7110331799369755
Ni 7.64826232717996 8.439597809259725 3.066976595931928 1.6856080334501808 0.007919769067708941 0.5198233231559369
Ni 0.21666406934396978 0.14445902249277798 9.512225830501322 -1.0419269577056185 -0.12280488584407884 0.1686096028830193
Ni 8.91954308379206 2.3010102300792714 6.39228335737515 0.7155788903261289 1.5167505762224136 -0.28214360494813345
Ni 5.399292020016339 1.1190199000132348 11.533379073665236 -0.24268822716598848 -0.6357749335236083 -0.12757171110510288
P 4.068964368430229 0.7091406533256055 2.440639150093875 -0.505472967971536 0.9546035525976011 -0.9150916105459079
P 5.493881526880583 6.484421808796054 10.746064061060329 -0.025328194352143476 0.021454827439666275 1.7777602274054092
P 4.800505175909201 3.119450415668056 7.475613859126967 1.0502434479911138 -0.35179993179369085 1.4334486335689636
P 9.122052884941198 4.1903262323027 0.617137910059191 1.0423807574135855 0.7375217131458073 1.7020224702524624
P 2.8736617146380317 7.424325408576998 13.271786684911078 0.7304051567056841 -4.257571742964158 -0.05189386065581385
P 0.846559469109944 8.014452779969059 3.2269285044699507 -0.16979205322689467 0.6643082650766108 1.5504052881623815
P 7.652296644425683 6.109867302403695 0.7941502723045258 -0.20512209598675643 -0.07907376350471543 1.3192574575358247
P 2.5701647364844082 0.9895709379548286 5.399318792373347 -0.5083029812211632 2.2259811557330114 2.8991219314995873
Ni 1.1695919592170536 4.075685153224018 7.535754727999417 0.4176140020750227 -0.3010126739384945 -0.4423611271127156
Ni 2.750444249469471 6.857563842560047 2.529276885039773 -0.24642455427996915 0.9270135587944744 0.6417807733980561
Ni 4.732955749623269 1.7619534376422161 4.8396759037664125 -0.5822324815207779 0.4697816852175135 -0.014831151475561554
Ni 0.36812083204786394 0.399752833445448 4.912585340562338 0.7510068921164356 -0.5531677029443377 -0.4570722080706451
Ni 8.223886466551358 8.96020013905559 0.4747643618588817 -0.9417120413469138 -0.4907675434405612 1.3365041604314145
Ni 1.9104753961071737 5.409050082553476 0.7982058227989103 0.11243202725018701 -0.5960449619238379 -0.9237325740503575
Ni 3.2373411049767027 2.2006600505346365 11.376373047582842 1.0817723718373304 0.38282234831713424 -0.8812515220680113
Ni 5.334521379750914 8.656721624596457 9.65001853609905 -0.11749890025013314 1.6164723549947841 -0.36191825117461535
Ni 2.194770131992826 5.147391836110643 5.251540920796273 -0.303675051262006 0.0839812281086618 2.1949618245333617
Ni 4.742270683492682 4.3424578430401475 9.817198981029295 0.24180068235471258 0.6641632548583142 -0.5979293234307445
Ni 3.9214025220786692 8.37130060334701 6.506416684855401 -0.24976056063173757 -0.046250032106475186 0.8296047444259971
Ni 7.680675342854406 4.228786107922107 4.682305219717873 0.5139506664252439 -0.6954227270932282 -0.9938239315508046
Ni 5.256226083272713 6.528540806776165 8.747987666452783 -1.474132741551887 -0.8474083482663212 -1.6027956288386396
Ni 3.827228448340415 5.347852167171563 12.35405521265657 -0.6834753249233648 0.749511795628148 -0.7070351145211758
Ni 5.6587346231205595 2.143127178508678 9.358543269426846 0.24454893452381107 -0.4766899823015726 0.223240402854022
Ni 2.205940667158328 8.38938579209843 8.672889358675254 0.6552770081122778 -0.4213932666117968 0.16084898510099396
Ni 5.930289409809192 7.563846315978843 1.7076406339350405 0.590688325597615 -0.39275811937360744 -0.04742502625118284
Ni 2.319224664692111 2.862528106861506 4.180438000719421 -0.9841596689881632 -0.3684282843789913 -1.321950945207588
Ni 6.9709955496497376 2.7971943239141845 7.391476649712625 -0.8957985666442507 0.08135278934687924 -0.07805432110126558
Ni 0.2153272978630072 4.028039589596616 9.95328933399519 1.4048322553838515 0.9666095759195417 -0.4582340895892302
Ni 8.355874186601923 0.1775708890036099 7.228268668651568 1.723643648066664 0.3232475740772949 -1.628321798134202
Ni 3.482945169061843 7.245495295609276 10.49512398926803 -0.7035379000011948 1.098756822210469 1.4518513044458674
Ni 8.114285976068018 6.153607794646794 3.0131050745230263 -1.231077360854467 -0.8118690177091309 -1.4521071292104153
Ni 2.9616689144171486 9.171794077893038 12.206494289489735 -0.3452862990448892 0.8029562886005333 0.14136773644793074
P 3.869159498523647 3.6943637028016485 0.2652891319639834 0.2300150025736942 0.7554320177673247 -0.3995376041892861
P 2.99589137215146 4.990699692834553 3.3737194915766175 1.2482608146122889 -1.1742032733752423 -1.63661154894682
P 6.147976367827822 2.9626382583777917 3.5205926421237583 -0.20365631007450732 0.09019969821454787 0.30376401143138654
P 3.342565699866284 0.3808183147475596 10.191190344739757 1.1603447702255951 0.06425623887590869 -1.7990286498658825
P 8.554081946935256 4.802979310970652 6.685244951453672 -0.29868582557753076 -0.22646430910795837 -0.5295680612475266
P 1.1757126739399693 0.8378206025085684 13.291905649610399 0.5466198745234908 1.4196310109595809 1.5748531367921006
P 6.086113759444325 7.56924694661671 7.1367127467917735 0.07781392295568534 0.17221274685324534 -0.9911988352231318
P 2.4109984581468686 6.600281491710973 7.242077665759467 0.6978066539443725 -0.6719534403266945 -0.6090729987523897
Ni 4.494247875429558 4.351597371811922 4.776549455495183 0.7765258623231466 -1.3874533977857717 0.07053101614102691
Ni 2.247050082936825 1.8302229480131984 1.6656191116488153 -0.38218934271882565 0.9976805862927335 0.7494315772095158
Ni 5.4538522372296585 9.085420915076146 3.701244198552763 0.46646804746324827 -1.2454462279816294 0.7142689132654537
Ni 5.212854864919383 8.394915668597717 13.065975575187409 -0.4209073281143138 -0.3772571955245309 -0.008537605157365942
Ni 5.550740474057713 3.5339141976971633 11.830854117861458 0.5256530424638367 0.040361948756814356 0.4688779424563216
Ni 3.900252360042169 0.9743568536963596 8.01785379249383 -0.22907654991982482 0.4205491734439467 0.3734018263341827
Ni 4.476227309608847 5.743039852154746 1.2385898623356046 -1.505358275225072 -0.06911176719599711 -2.478502566939338
Ni 2.5605451516559348 8.839493736337458 1.2205249836481213 0.5461809872138594 0.9472085456851105 0.31007709813360795
Ni 3.0328002974338384 8.739143556792822 4.210718459680451 -0.5047851978758919 -1.4194746878873747 -2.426323056722305
Ni 7.115187771757157 5.118893123667746 8.309477691906665 0.10401577816203376 0.3290258713219688 -0.4368468821627058
Ni 1.462961600943771 1.090733520056955 7.359643394045117 0.7538682728246306 -0.2464314962585046 -0.23575936125663915
Ni 0.6961726775016545 7.738337460741783 6.875449623410993 -0.3846015517047441 0.7877014193239917 -1.436902396445519
Ni 4.350397231670174 3.108926109809649 2.2888888146476147 -1.2876660558827888 -0.6323383970382336 1.4658437620702174
Ni 0.09632417096143227 0.7467142716095674 2.3353554713819307 0.8009906802337302 0.6484494436674832 0.38411664164852555
Ni 7.281554890945186 1.341488954904368 4.731906088591601 -0.10491129339310963 0.4189016105381947 -0.7924337918026546
Ni 7.560153577081157 7.671794305805469 8.845069772072964 0.20088620352853787 -0.3246606523747376 -0.13229585605364957
Ni 8.505965559098398 4.161836751707049 12.053068373768651 -0.2466631526533365 0.46241676021201 1.1741194554121843
Ni 4.17206563845364 1.5310464743698688 0.13639961984857682 0.9824072050734305 0.00337945799519418 1.0221605737119688
Ni 4.14914296174625 5.158756240068273 6.942643623578023 -0.19249695102357817 0.5066801009057597 0.95618889480685
Ni 8.65596461312243 7.092939019898595 12.774636016669696 -0.7918519511572557 0.16075616827687153 -0.10413944822409163
Ni 6.848415081941028 1.0333483575869042 1.9260042863566709 -1.587398063336647 1.4314346884627283 0.3946730770081332
Ni 6.015656301276464 0.4822338494641774 6.606876723382242 -0.6184505833125479 0.5924713856399667 0.6596977628877929
Ni 0.9601767363292428 4.575561985956618 2.8536793812779244 -1.1533115175278976 -0.9682543106118164 0.2659060600433485
Ni 1.8353466232337388 3.1257280717941236 13.207862605037949 -0.9990260445770341 0.2726564913933046 -0.7252884043044089
P 6.142132608522233 6.970533957287526 3.9771001028724773 0.6096481545295694 0.14094993218422178 0.17608971331014836
P 9.061990486770323 2.6239864059181914 4.2607652267760745 2.1470462317990058 -0.5763816791669557 -1.6222827910289739
P 0.3251336585398935 2.31970472074881 8.816303336059985 0.7362713856784738 -1.338554872312856 -0.972816476061202
P 7.31510342383067 4.349261714459135 10.228078036773473 -1.6075958784407602 -1.3935448553954903 1.0626580196053825
P 1.1063261100524369 7.2996862389328285 10.365856894600336 0.15915488522802268 1.4260240589701183 -1.6946092085075266
P 6.623453428293957 0.9353522990895443 13.285447049278346 -1.1240467071255091 0.34287383294865464 -1.0195506468929474
P 2.380662608102373 4.127780467223133 11.05610457254065 -0.35408409984217726 0.48515611079105475 -0.8014696767526777
P 7.1383689401873855 0.5646050065007006 8.708425508272416 -2.116922415830431 1.4991092089915667 2.9492162770528174
