# total energy = -381163.4242504001 ev
CRYSTAL
PRIMVEC
9.30395722981260 0.00000000000000 0.00000000000000

0.00000000000000 9.30395722981260 0.00000000000000

0.00000000000000 0.00000000000000 13.61728186424514

PRIMCOORD
 96 1
Ni 5.291234870849469 5.007110626973876 5.161113447536007 1.218918871115062 -0.5713479733977902 0.40782915477411696
Ni 6.064942644654253 4.044969808725697 7.842410628289137 0.5406114635458819 1.7006448731786454 -1.7546699212448489
Ni 7.136497999151597 7.119053079469013 5.132925248516102 -0.4357803885714044 -0.18746890168136746 -1.385910221668368
Ni 7.888062354905954 4.212264262492383 9.944401568201611 -0.11879756445689864 0.4377100014939494 -0.019716504592320883
Ni 6.078210087570182 2.675297058778037 9.529046869318604 0.6282631985275954 -0.41476110600725985 2.330425793902348
Ni 7.630296221676099 1.7327968941031562 0.21853785863909414 -0.4858654781532536 1.698732486647281 -2.5136158657027035
Ni 3.8066768578401873 3.188112569745847 7.863898117359498 0.07787691498313684 0.10804572525703328 1.516954978923736
Ni 2.051773761515261 4.591679635642121 1.4135827757833683 -1.9256863337971482 -3.2569860672094877 1.1430548727968959
Ni 1.0033852603563886 3.9490646182787255 4.034433077237416 -2.0113488062629745 1.1772022081025661 -0.4689964703120568
Ni 2.3663963769745924 8.892489658464717 4.347412613861578 -0.9917107418625437 -0.3186746099946318 1.1149015502911317
Ni 0.2363781965011496 6.177101848266811 10.306457618074676 0.5712538710220871 -0.8306666100316082 -1.0512469495549637
Ni 2.2742778970933872 0.35647739715750276 11.136703678773925 -2.4263281989286276 -0.26985424605781916 -1.3272685007657594
Ni 6.902028974660509 4.624308613416425 1.58759840820536 -2.371125328504239 -1.714414159048596 -1.7274995314776445
Ni 4.364998023297338 8.945652469700068 9.801542097134856 0.45215214506120843 -0.13246323486944928 -0.7520355904912661
Ni 3.908955258944529 3.4300805837111543 11.749249236978846 1.0084601934067405 -0.3768309066203897 1.1544651715163665
Ni 0.7851535019079915 1.0668289442580088 13.548364737747313 -3.1754910958577893 0.8693077194425738 -0.4630273972128155
Ni 5.985626409830773 7.582678568910519 11.63429233344706 2.6614550688075904 0.9660261926122459 -0.7467231771394173
Ni 4.512344792904313 4.4654807606690206 9.792894999346593 -0.9573713451507254 -2.1115192425369895 -0.17186307682331048
Ni 6.753751809337131 1.127388401438775 4.190527427370025 1.9456522353961136 -2.7384009873360258 0.718876073020162
Ni 6.670453480847439 0.8746054676659819 11.183519330431965 -1.4559077339034279 0.09526322878038432 0.17045616917345482
Ni 2.227125442186009 7.484624164358653 10.193120533485152 0.4868988045137743 -0.14631659581277384 -1.040358327666918
Ni 2.556280838735579 6.598608323626688 0.9848517776856118 -0.7474186605445451 2.8663902455945216 -0.3812400914316789
Ni 6.110960016787618 5.980611576919354 3.237372370950881 -4.057689555220102 0.4021205344251139 0.9239058664034283
Ni 6.792158544510307 2.224715717280522 2.248717135576608 -0.42560216248682187 2.7931950523577704 -0.22345123331324743
P 1.0436341790480457 3.4692874592004386 13.401216142427932 -0.8627480639471851 0.031919474416415995 -0.1573977933275999
Ni 5.004384567524811 2.1960874410867564 0.2760018892713827 1.5735706705352512 -0.8889627746693399 0.4569174276603357
P 0.8920261970599389 1.454655094684043 9.547525458642111 -0.5219768791638301 0.27930433572712543 0.751013576984655
Ni 2.696342609883106 2.2108621250632594 0.4024929084994345 1.0517472862301498 0.7768241102898558 -0.28480289694785144
P 1.2888399701064408 9.242048633075035 6.294942978519451 -0.7553700541811379 0.3692582364794544 -0.1756135450046782
P 6.753277307521764 5.510231414576752 13.122946878795672 0.29719072908924304 0.11799769426342258 0.5834254733876145
P 3.0104628116555796 1.0830085257662823 2.227923721710684 1.1517164051266358 -0.7506927033101265 0.7313657208467405
Ni 3.86400784188503 8.085343462612355 11.977461350277114 -0.6098458723626723 -1.5584011618836644 0.2175675208389608
Ni 8.876179821556146 3.756435489154346 1.740438234121986 1.2350980519780856 -2.5552811066519734 0.2734401636368645
Ni 4.84844094149826 4.371882951598732 0.13993709812152902 -0.028222742291119134 0.6944991868376942 0.5820705020216169
Ni 0.9094553000153436 4.183161484483251 8.994487080062704 0.6731140362936988 -0.31710366596308615 -0.07851711967029704
Ni 8.39405806527252 0.618568009677206 1.880273919110427 0.8291041506404947 -1.4704367807575385 1.0861339912401358
Ni 8.133789167565537 5.488757881442136 3.269904587570679 3.3254213771637504 -0.5689946426742652 1.032442672364267
Ni 3.970807966171098 2.9611146228574867 5.595708729834262 0.8920594113167927 -0.3624548404043758 -0.2320412889751036
Ni 2.4031190959010766 8.988004082710798 13.533630991182331 1.7092112746914174 0.0600807673419804 1.933589390694309
Ni 4.492201725644156 0.5398974694809106 4.0927419071802005 -1.0126351507200368 -0.21048978805657295 0.4828752851766781
Ni 0.6132461461793725 4.933907092007174 6.205817581657918 -0.538026476427525 0.020829792261157675 0.4804975289731209
Ni 0.40391362275838416 6.624491932457059 4.687109393878011 -0.8681419812692468 1.1775151113572946 -0.754508734622107
Ni 4.890085453764523 6.795256762245933 0.5248697178695458 0.05768809874008774 0.6188467903097019 -0.10469532072756163
Ni 1.0726160056140444 1.9511793766576109 2.416700082173432 -0.5527252160902804 1.148943727477505 0.603662883480412
Ni 8.711518387666885 2.2322426186262336 11.577821035044176 -0.10885999362821253 -1.4019657324693338 -0.7960981280281193
Ni 1.3311264554170232 8.971731461630885 2.234950070160971 0.413483781956733 -1.7218477325085055 -0.4133382575178043
Ni 3.0245862186305987 3.2039199929675584 3.5466070648165147 1.1532269282338912 -0.9503856578615117 -1.8225503871369062
Ni 7.159674156447232 8.580146512510575 9.261916303203137 -2.2833522374533124 -1.58893198348267 0.4449366011493756
Ni 3.778699858647905 7.655444817890512 2.746578396194648 0.3414306727442249 0.3174481937866984 -0.7485036660786076
Ni 4.018034852735788 4.997257736337152 2.2901271881223373 2.696962260575265 0.2387834927949436 0.14935049754309118
Ni 8.481524566571702 3.416608453737618 7.253435715163607 -0.7458232910329672 -0.07659522005723583 0.5702205446615664
Ni 7.669391449679415 1.275991205262895 8.522103775742684 0.5937348257334226 1.263490744188166 1.2574013434609763
Ni 8.522648057236779 8.030915313202696 6.6797127790170965 -0.05068287106684819 -0.030945283428604774 -0.46674984036972517
Ni 8.366536959981275 6.040947739128183 7.95961443747604 0.8391219398878129 -1.5603050637745965 0.5203300875890265
Ni 4.423687385088132 7.411802091635677 5.060045491258708 0.4387705815479799 -0.06398987258839947 -0.13380612205058892
Ni 5.810302641031517 8.903012434017251 6.381507926369438 0.24422317575327618 1.3137776653681763 0.41987605863632205
P 5.869699103566778 8.09367980823134 3.2542720787436514 0.5178620856645081 0.5012147069158142 0.9611488099152866
Ni 5.345923531059724 0.5050169340729075 1.8919578285170342 -0.5182986589812945 -1.6882400717563892 -0.7701402705117769
P 2.232921807499209 3.7013560627432023 6.566743200735551 -0.14946285475123938 0.8528282337303119 -0.49853767430428336
Ni 8.12119160956542 0.897737896362946 6.458486076757594 0.8307959365206208 0.9675660262955401 -2.118512128915055
P 7.0574236672143815 6.391930219184601 9.894371399343395 1.0436328846531315 -0.2826249154599262 0.05944750463335567
P 5.339420065002057 8.957375455726764 13.417897207227348 0.4612677342092314 0.37243766264870054 -0.5756967372847891
P 5.223241551894632 2.5679945208051107 3.8413396806505515 -0.24237815212473743 1.5829729376857578 -0.04176962773761839
Ni 5.0257557571306215 6.42509882647442 9.198787093053662 1.779999144038257 3.0564495337108846 0.6402072582633491
Ni 1.1633481958778074 2.057421263513836 7.275114865751547 -0.8612298275304457 -1.012317619479618 5.542503687745235
Ni 1.592716515041301 7.332392817240556 12.38058785825942 -1.4217714543413513 -1.2456627148678097 -0.3098382426499245
Ni 5.122042409821319 5.526531947528158 11.754028679774017 -0.5525542377300549 -0.1510127157368625 -0.448006498323951
Ni 1.3397698316224207 1.9654702548615832 5.2469294268342885 0.4289065442697065 -0.8008729237089433 -4.447690423563547
Ni 4.0294601121332345 1.0913448713852663 12.146234202837167 1.6000139523284442 -0.06757141929207072 1.1906534485114655
Ni 6.33448758765379 6.779207436137956 7.327677571749819 -1.123043976892608 -0.09709436845185213 -0.3948998483069586
Ni 1.374473591844307 7.13008757266557 6.647248481284596 1.048838083003155 0.37535895006055353 1.6130463600323706
Ni 7.115889734033238 6.810878106324365 1.4818738213674558 1.2857613826609082 2.859418185152063 -1.9357606873140147
Ni 3.3497967373426136 5.631201465623659 6.207968656554246 -1.0094631807499583 -0.7919959329342876 -0.11750249979455893
Ni 8.504635596167189 4.28108563363482 12.48155998377793 0.21173625886916436 0.200114615469836 -0.20375658309779748
Ni 8.920755080329084 8.944256876125461 4.039961488584292 0.19831278637440686 0.06987564194521514 0.8993757424725479
Ni 3.901409749684489 1.9448526857860604 10.07435086830754 -0.6431388300878472 0.023601441469023866 -1.7078365058310778
Ni 9.262870889208168 7.88372671086751 0.6549697420815305 1.1734124020428307 0.30196835298354446 0.23257839242549622
Ni 3.0469994514387824 5.9764527080670256 8.496094563490598 -2.626398848534406 -1.774124687535351 -0.1008882882766456
Ni 3.6448996506717797 7.763138122064328 7.313311331492817 1.486876928591433 0.3207042388301509 0.041928779023301985
Ni 6.64069012187966 2.7535247306133237 5.722063911287718 -0.15567258310637705 1.4355998755840114 0.3916576872205771
Ni 8.589757500261033 9.04758662438934 11.120920445840841 2.4564517577868856 -0.4023326504359199 -1.4265243956453044
Ni 2.533197721011584 5.815159306671148 3.8057855387438715 0.3859801772198256 0.33983710300485986 0.7763695392509403
Ni -0.035625782376843135 8.052081815750896 8.8231137714753 1.9681704711032877 0.626082903046825 0.6494560305551266
Ni 9.296113928155298 5.597604876304294 0.5959389250628168 0.5772933923479477 1.4544702301259531 0.39855338589914585
Ni 2.699515259276045 5.103676398379494 12.767945089244385 -0.6083813720020038 0.19935125494125022 -0.43015712884735596
Ni 7.645340720410359 8.850686978926664 13.078460007615792 -1.7160730348082576 0.22310259172457705 1.2473357316948583
Ni 3.436239803353752 0.6902345309204087 6.50799894559749 0.604356567113327 0.5836509591348593 -0.30998145309600805
Ni 2.1673289094926944 9.282111472623411 8.418489326389585 -0.4264485696475172 0.011400271417141656 0.8407124243033843
P 2.552168489669071 5.292221090308859 10.583255926079302 -0.8785348944677968 -0.1991795052500763 -0.42737853766095424
Ni 8.502784108691545 6.6803435873128185 12.149720395586533 -1.600580880575508 0.9949626731409381 1.2852777581562704
P 5.0825564156171135 1.4172252750130918 8.215142969007942 -0.28938845943600483 -2.125900708069642 -1.0966546882658017
Ni 6.5168544520262275 3.111773601214861 12.087761623248294 -1.2712415917781783 0.63697023938329 -0.47757855555411305
P 0.8866010596375845 6.545910710249538 2.6114132977025575 -0.27507898479186815 0.5602994288931125 -1.3003066274649349
P 8.49640159407701 2.6942957393070164 3.7013402460160236 0.3327822530406075 -0.8567239692402923 0.05471281816184771
P 7.472240597373309 4.9896377954198 5.971545801058708 -0.5798665523917627 0.22047826672785253 0.6386782232133323
Ni 1.7108116433245188 2.7494216855039806 11.314286448372611 -0.027328255501307776 0.32826791011002177 -0.18596634899391198
