# total energy = -340857.1786399693 ev
CRYSTAL
PRIMVEC
9.35270151413147 0.00000000000000 0.00000000000000
0.00000000000000 9.35270151413147 0.00000000000000
0.00000000000000 0.00000000000000 13.68862405149061
PRIMCOORD
 96 1
Ni 5.643934341410534 5.022260288376658 12.885635532756856 -0.8019304184391802 -2.1188098626611316 -0.5933512171417588
Ni 1.5698883180073475 6.202290606885523 12.209390338386404 -0.6541704053116605 -0.8696543041487153 -0.03878072031262353
Ni 9.145707279857547 7.365261598288418 10.904768009985998 -0.8336431761614287 0.28169777565996645 1.6195170553583784
Ni 7.887086212625293 2.838441953982222 10.140833759102307 -0.7998714790276225 0.2508252544508261 0.7514900024004413
Ni 7.014871998125018 9.292058349240339 6.964922026483104 2.052193608193478 0.6341391976923982 1.82680916241326
Ni 0.43095096304316344 1.4601624267753113 0.7380852551295901 1.059355694705027 -1.4169912593438885 -0.5419612927055569
Ni 3.07143644787691 3.8100940883238716 9.799945568153248 0.3913026178740035 0.05221679121287136 -0.2904703796462739
Ni 8.347276525630845 0.8629288526851402 11.28405278070526 1.8931693350060492 -0.5193810934121958 1.0607273782415731
Ni 2.6365077809860664 2.994566596186141 1.397992215661544 2.4285987401303593 -1.676193167894184 2.2492491251220166
Ni 3.77349696827691 8.239374411145334 1.8679084027117745 0.5606940932283698 0.3489992291201022 0.060340191650954146
Ni 4.7114980834698335 6.074139894162937 8.469151575805123 1.0615550163491911 -0.6568024436178689 0.8920455273597218
Ni 5.8699143093570445 6.441626232237365 11.08115995582952 0.7752624222296907 1.996603015412368 -0.6872371059586423
Ni 7.865864933456739 4.607842095358286 5.56895654118552 -0.7001661553154844 -2.887715746545175 -1.4197209995702258
Ni 4.492831927911957 3.19608925032667 7.857174403442008 0.23036467260362908 -0.49499340859645075 -0.3033176679225873
Ni 8.612968063145306 7.603138202243038 8.660203880880339 1.68316677099854 -0.3009589378824236 -2.160853827106059
Ni 2.1873162446672603 6.484181022989645 1.033018948416819 -0.15209823549155743 -0.9931947826072378 0.42395717068423117
Ni 1.1998019289814634 3.0388516366723066 6.1373763132208285 -0.4574786994804444 -0.33033919081675367 -0.3227531509393796
Ni 5.168227897007614 2.601154570207248 13.395002349009767 -1.6575066472282745 0.3733735441994086 -1.5217716835860888
Ni 3.5437572144221763 5.964002484075276 10.615445937457311 -0.7062642977934224 0.3343244007167468 0.38723976065853954
Ni 0.039225229102212725 3.9266755095825943 8.816637162225978 1.5341374042402933 2.7310921123794385 0.03616282307380223
Ni -0.22556470801037806 6.297239230120063 4.6482326710380235 2.552711546152584 0.5295415788849654 1.261167238261312
Ni 4.983530752441449 1.1985767251158481 10.007438051510738 -0.9564781439124945 0.8481012605682877 -3.1277961037746715
Ni 0.8040872679513154 9.050646424207835 9.74077009198429 0.30174415278788036 1.0869726850913475 0.51042774087365
Ni 7.54355214248858 6.301288949767478 6.953629574976664 0.3679652286996437 0.5796917173767951 1.0967624174882595
P 5.929902535265865 4.852761283364879 6.805450052496714 -1.3626468802650533 0.3761652480119328 0.1523797712877182
P 2.1444621674745235 5.428148817842043 4.7497337967782896 -1.3806343179814093 0.7066648756659507 -1.137590507248215
P 6.857325745328935 8.059755783365649 12.584430853271956 0.4106262579032799 0.1504714985214118 -1.2622391311692518
P 1.9536390035802826 2.696383774479716 8.063803632472812 0.7731073235599009 0.7934025834738271 0.9528706290668945
P 7.088290703049283 2.8396390997440446 4.120152970095626 1.8644290296485633 -2.273165526728298 1.4412025664827695
P 6.269405591157692 6.587996007022683 2.872584925217448 -0.16527642474472826 0.6677617708428499 -0.8614511995126325
P 5.484143440311033 4.563313884639252 10.329722784375104 -0.253658353024247 -1.3292284527056075 -0.9215828746972065
P 7.764500357154931 0.5678838622528669 9.265117893248702 -0.44445529063758293 -0.37406439961884613 -0.07609308360983669
Ni 9.050908299843234 6.976984205303592 2.293939844889949 0.16481054085190325 0.45290702094936197 -0.20303693132295356
Ni 5.719363877106611 7.611864272522572 6.852046145465273 -1.6122308061096107 -0.1348528181475484 -0.35584376284576136
Ni 5.2597066680731235 -0.1341298946408115 0.029356258728189154 0.5520937531538685 1.4312215440106575 2.1239556685281293
Ni 7.375268988641152 5.243563905691049 0.9200523461967245 1.1386924820631423 -2.9577672519466223 1.4882298430749015
Ni 6.4211251110661545 2.0623360976732528 1.3166321320938146 1.9223451852390574 -0.5353594711183233 2.228451471650375
Ni 6.938638130120218 4.476558227712183 8.511504348210098 -0.24443709153629514 -0.7642334181090387 1.1867356015142982
Ni 4.1131403146877 6.1482226408769645 6.203191272017269 -2.3269018399094894 1.2238983266075245 0.41525167249043327
Ni 6.511696670109033 4.481505806680965 3.055505991813534 -1.1693495448273667 -0.7264685406554392 -1.4815454890761903
Ni 0.34908022198640626 5.322481998958685 6.846077251518436 0.028261565948854553 -0.5416399048103961 0.1603198520704013
Ni 4.173858051295131 5.063468290146888 3.4731050385318722 -2.4135413315766048 -0.6092264936111185 -1.8762455626675172
Ni 9.252010082426873 1.8071569963797927 8.361873286493939 1.7400614273030548 -1.630185076595186 -0.8076122993153059
Ni 7.702847350421076 5.9547807206287375 12.496754890540487 1.7702608337045704 1.4288759265966167 -0.09117054676824943
Ni 8.537622701760608 1.6126301627849136 5.680532396727623 0.7959567173542486 0.42934800268249923 -0.47307295437427554
Ni 7.40890130238735 7.6866484718314165 4.3960333403673495 -2.552746513155578 1.0181915617618915 -0.5388610565136784
Ni 7.933260498766835 5.562116910750984 10.211822632238125 0.8043218014894922 -0.6063967374718073 -0.44554209594385846
Ni 0.16064480272492523 8.286025685051351 13.017100842807485 -2.310273487324189 -0.43618508020899077 1.1948106652129487
Ni 3.256414173481003 4.175101960563275 5.915429230059457 -0.9930793400752962 -1.4556457384912929 1.3983690162570113
Ni 3.697394038089808 1.787778199360292 5.590447178150486 -1.3698369702555893 -0.22112052829754178 0.19317649358910602
Ni 4.913993418541843 6.176954139160703 1.0058240989507952 -0.8418303399579115 -0.41145852399658817 2.143766018385837
Ni 6.63546096593869 8.041321609173837 9.417252673093296 -1.981081779848317 0.8096211022152187 0.2638157531732231
Ni 4.502250098085044 9.173250985080728 4.449774897101785 -1.4818110840327512 -1.5551551441425409 -0.5894786215602299
Ni 3.8936698268210996 0.847605386933813 11.991344266922349 0.916093569447861 -2.1250604715565333 0.32240425224039315
Ni 6.931352375835376 7.376007852041027 0.8782036843898932 0.12593700371515731 1.603113931410007 -0.1628423613819389
Ni 0.9310286764004337 9.234361535141256 7.4149768171286 -0.8097272887757797 0.3572190459267332 -1.4099168689956105
P 8.631776345387689 7.968744647363352 6.194991758818912 1.1904755281727046 0.5101426055330633 1.2601886763981265
P 1.1972299361337981 1.4088441549384392 4.506062259120347 -0.40749902512820785 0.38117144297727257 0.2440524545033668
P 1.4317208622307644 8.284332846122524 1.9950069365421323 -0.31154057005301183 0.9322097582834333 -1.1579035077739541
P 1.3808702254571044 0.3088205841243688 11.876879361959721 -1.0871783733442502 0.2096996880551098 -1.234646052042332
P 1.0535163285075222 6.480692465418085 9.523052300334607 0.8173889190860955 -0.9788943068241658 -0.1885942735350623
P 3.9834370535552526 2.911140500909141 11.591663125286036 0.26702731813198527 0.7910302265869087 -1.6474754882445175
P 4.709767833735949 3.7445971213704157 1.6432368776721313 0.3053763502238289 0.03659579684616278 0.24329140796762616
P 3.620533539100303 8.297361158983607 6.381814772382437 -0.3515009124960333 0.3763863628838034 -0.3256872938670391
Ni 7.588538635569564 3.3639515326172074 12.52292748975833 0.5115037475466482 -0.017358545883105585 0.6896192330375737
Ni 2.4478170329800717 5.411052079931017 7.926520942235825 -0.4119308356473164 -1.3248935727756794 0.8383971459066464
Ni 5.690950370665857 5.808859875504101 4.793030256740824 3.1947995663784137 2.9194102494349785 0.6073557589509668
Ni 1.7641626286680918 4.69454163607777 2.5603477993212533 -0.420329858344289 1.3218519577358783 0.8535391437544074
Ni 7.732149363481933 9.06114015502631 2.2252087138393195 1.8425551123936073 0.7318904830019589 0.41540156780473614
Ni 0.07392375079253442 8.79885300077203 4.401303587529748 0.9850377007177423 1.7895531062752794 -0.6665338119730198
Ni 2.3973217988544526 8.232621760832554 13.158353754731142 1.1795239142572074 1.4281431621956502 1.3896663462766905
Ni 6.378691905430308 0.9060261001107474 5.0744549083219885 0.05422276589930662 1.1730465340629799 -0.9503535190719956
Ni 6.15072916481578 0.4913142322726796 11.599972065089185 1.4858747125791636 -0.6871612584153843 1.4187336959562922
Ni 5.342749302598289 3.660338635680899 5.240292330788819 0.443097748168424 -2.5540117530212467 -0.6306270707740816
Ni 4.861290946917863 2.0256548033149127 3.398050546156491 0.23407991667168715 1.0244776518809195 -0.9337094827574113
Ni 2.044874604412921 7.531253340326108 3.892072385445168 1.1746172209842094 -0.7155130700852 -0.27604340558766655
Ni 8.914162454658817 1.8705121947437384 2.901645638585687 -0.39192353928745405 0.5284971967808512 1.251128108857755
Ni 1.5397445618327095 7.255573117861439 6.229555601611027 0.44336951377257183 -0.017868138529672454 -0.7993881116333008
Ni 2.4750614517627962 7.696571687872773 8.292404227313561 1.3138563411249113 1.078196481560614 1.5906481948428282
Ni 2.319713083763809 2.0197438961159144 12.821559241125438 -2.3046594835715215 1.0180223831738788 -0.010590116811020471
Ni 2.4416629555482032 0.7151140855544962 2.709540219348119 -0.6990407834617897 0.5474387708803604 0.8519756559220295
Ni 1.251728126400511 3.788115240352913 0.04972924789207804 -3.3303257564439033 3.140577828920372 -1.5331814680849272
Ni 4.481748976913835 7.434518351150098 12.631779838692285 0.2987932976896725 -0.47452357077787305 -0.447658628066229
Ni 2.430233954603305 1.5460015189784844 9.850402456203684 -0.04662129940296487 -0.7599838988040654 0.4588352135083388
Ni 2.670523555484099 2.977198629938452 4.007810193049855 -1.1182226442445644 0.3841230694064288 -1.7501404088056118
Ni 3.0083150670445704 8.394114853562145 10.88470085415345 -2.036362811808809 0.014013026449640382 -0.07911053027992182
Ni 8.828949993440347 4.772056824155772 3.1457417888810255 -0.304200841858489 -2.4045774375150972 -1.253779687547989
Ni 7.096259204526415 2.1885695066366684 7.878227333987808 -1.7007698287922839 0.05726335249784332 -0.5527763810431899
P 3.475033565532558 5.573330799566805 13.112921137799853 -0.40338088919477627 -0.036203446503750555 -0.8951041116803875
P 4.9625432908045 0.9694729549470826 6.90287152994552 2.001559073866063 0.020630274655841892 1.4425922477414446
P 0.3258069601604773 3.6147161589139474 11.48040245577654 -1.0104011191831954 -0.02275400586706404 -0.13197883903386304
P 4.432899818210721 7.939292991082268 9.588798984411817 1.7981169366848904 -0.4522524180844985 -0.8972936631325386
P 3.4207504873949226 1.1147578163857503 0.7559545261650427 1.0716375973961738 -1.6075184882356055 -0.21158482089296463
P 0.14530076103081693 5.809795145630525 0.47884334040694515 -0.40438361942767775 -0.19768852252684663 -0.9723588196984931
P 5.832288392171017 0.19716055427088833 2.66588648619729 -1.646015358759223 0.04270499506769419 -0.17001111121623624
P 8.46912351770133 3.022942691821838 0.9668373637308205 -0.6927181836778714 1.2499328029980732 0.021609864960291818
