# total energy = -340856.4605254266 ev
CRYSTAL
PRIMVEC
9.39964957527173 0.00000000000000 0.00000000000000
0.00000000000000 9.39964957527173 0.00000000000000
0.00000000000000 0.00000000000000 13.75733728455241
PRIMCOORD
 96 1
Ni 3.03549455793811 2.0672836779819113 10.84009389980726 0.3304124672568503 1.757434885584496 0.4537439150283605
Ni 5.415551567608216 0.9833161164407348 3.5951637789362367 -0.5861220463831712 0.3863514445163153 0.18335642217489068
Ni 9.390099293259196 8.256868169542878 2.1358400204212153 0.3770129407242087 0.08708892049970808 -0.8577475254088002
Ni 7.189143202056014 6.5447878403563156 13.373919772981113 -1.2997427845416647 -1.94315338023366 -2.0066827682458728
Ni 0.42956961448984293 6.565034685028182 5.071862789250676 -1.1842187486297153 -0.2170710408185165 0.18437972123308244
Ni 5.2159030156906425 4.011789136324117 10.70888983450188 1.2971362001567532 -0.8333870942865648 1.6758797504188234
Ni 6.776226006331575 3.022382047113015 4.329117538081015 -0.4979136675670393 1.0548858318591317 1.3492707160684634
Ni 0.558501784550473 2.014156859929269 10.017198778706057 -0.21052809749367613 0.5070377413554945 1.3546872590983443
Ni 1.0133667953710777 5.048673854336332 7.032915390285711 0.910479051474561 -0.23950931521737462 -1.8043858004127373
Ni 7.531384434415658 7.327054857128266 4.039993724124676 1.5113594871138294 -2.4107822807742285 1.9029312994888197
Ni 6.3930587007586945 0.5741597204160235 10.483613138667016 -0.4900962284051495 2.1573946649128652 -0.23443755712142206
Ni 1.3854989126223367 9.03686047117528 12.330783348194867 3.5844523073538204 2.6604731645102953 -1.053924753497443
Ni 3.797430133194161 7.649415831140186 8.818287605247551 -3.71870734401637 -1.823441017271976 -0.9644146251507522
Ni 1.0274474700778822 1.0278798539473835 1.1159592680596067 -1.0316867680348492 -1.6171953492037374 0.06520086217736513
Ni 1.7092510347361307 6.4540530253063935 8.851662940148387 1.4829891635012522 1.4437258471252556 0.2846272906019356
Ni 4.304663410365913 3.5005704078334823 3.6795651102628977 -0.34444014899451003 0.4467741685787467 -0.5395593681322837
Ni 7.5490087769225065 1.775603159405912 2.64107869200366 1.1249594487477659 -0.7821308672147498 -0.5764629260268523
Ni 8.84795571844988 2.397878744813031 5.512482631501079 -1.0502467904252235 1.360579456213063 -0.6589467436543813
Ni 2.9818977574186185 1.6740963462158047 13.452529040386324 0.5444580909854816 -0.6851313724695491 0.5294929850352171
Ni 0.36366491312850224 2.315763408205125 3.2358631229948966 0.9397849995275298 -0.24399254779970883 0.4680204795520327
Ni 5.970187276386387 6.000472946550155 5.655407119564745 -0.31476267653473533 0.15725432577120016 -0.7242589345986301
Ni 7.140998198151973 7.014131131050679 10.482499280220582 -0.8710686679977386 -1.2057170277128073 1.1585141447747598
Ni 8.786322217747264 0.13602702538018674 11.169444453066163 -1.1803695500869542 0.6929467547489099 0.4815547665930416
Ni 9.331812067720548 4.743984221077945 11.124540448253516 -0.12900561533815202 -0.04202699516406311 2.412308230500452
P 7.7761325038520885 7.86702711294074 6.304932288399787 0.15843909010792068 -2.5030041516251282 1.2090987997008467
P 3.616374087665145 3.4395008860910874 1.2125773236295476 2.90660512725051 -1.1512824029130109 0.5546517436890319
P 4.7865364336264795 6.416313433218397 -0.04881707883163458 1.0381340663220895 -0.617873113542523 -0.4596258277304342
P 1.2651646018102471 7.587519140256136 6.918193610092736 0.24779572359588295 -0.5235779051023628 0.22856130084630316
P 8.751590513447104 3.5144066916575256 1.708220833168797 -0.1755297270416203 0.034385933679037556 0.8698767045721664
P 8.589568757825484 4.596447325084619 4.35853092078631 0.12824585435399205 -0.34331272025828613 -0.022597682794857857
P 7.258324621176227 9.108025216305597 3.2265903689239606 -0.9482547275614379 2.1514204496073015 -1.4087071649582255
P 2.25176119586959 1.1119879162147304 8.426066557433288 1.9875221361570223 1.9032156634984576 -1.077410495324209
Ni 0.28074308660748293 4.86507990348633 9.023629524768538 -1.146075919011407 -1.8785883518680808 0.191482907936767
Ni 1.6274176876083344 3.17824703241891 1.135992740691524 -2.1083686127231496 1.5595147066628174 -0.10665758666025502
Ni 8.599833174901471 3.791310961475783 13.408533041699627 -0.3483022030530775 0.875408175913357 0.3955662782463639
Ni 7.513825889454169 2.9548925648734587 7.387992783779943 -1.0950994279635398 -1.0577906642107524 0.5051258690447624
Ni 1.842096278815748 6.575223904909475 3.1630590790202087 -0.4087766062890509 0.16463879116072935 0.3775335891143692
Ni 0.6504999124712855 9.307626769976485 8.946135055774695 -1.1899512802381185 -1.391215178821049 -0.7821311243250658
Ni 5.3300899558363435 7.815658029314113 4.034738380180367 0.547405860759896 2.665099093318081 2.8012433765835434
Ni 5.88439667688772 7.258587811357662 7.770336680070903 3.9036030856539217 2.4914128472431027 0.258167039527878
Ni 3.6298249858663714 4.953850191824822 9.562986103549438 -1.6037885888795282 0.5574424190602916 -0.09394965217528335
Ni 0.04990085840018901 7.682934980675876 13.100891918549427 -2.4230988933580524 -3.178056285481804 2.1639298949282213
Ni 2.6612381199366926 -0.009834853101288007 10.19858945175147 0.2753998584663967 -1.6535975419818554 0.2043998731087512
Ni 6.817170878843483 9.424370414741846 5.372308480833414 -0.8851734828302369 1.427462848299174 -0.04974261864076595
Ni 8.098841264889478 2.435693534095724 11.710176200545064 -0.7700693080645253 -0.804177562602144 -0.9024299559178394
Ni 5.730656012331983 2.9606921485143793 2.009217344202683 -0.5662638740066636 -0.6316105177332735 -1.3103925509460272
Ni 1.285561840871506 1.1991602641659345 5.659314553794131 0.9647630096291062 -0.0745049131871104 0.11434364245060306
Ni 1.3023120159900143 4.825873966101764 13.106766699385044 -1.7665453325261962 1.9555741224955163 0.9684803105796934
Ni 3.0484942729711615 3.389128165294182 7.858039168244713 -1.2527363338851392 0.5932306324034945 -1.8886922730713023
Ni 1.2006642080598522 2.139623379279352 12.313683506121023 -2.6378266307553733 1.0502766152218943 0.24979347075220207
Ni 7.383292959111451 1.7303062492509784 0.2480558060381156 1.1300396914841504 0.010899677631639293 -0.005854144787931854
Ni 2.0624992564693856 4.094440252944231 3.505919748271161 -0.6251943297942847 0.2988555183861756 0.2757731826454154
Ni 5.919983749277547 3.7524434114673477 13.413898361541179 -0.8466506441646904 -0.48948636273529256 0.2389678408916078
Ni 3.6355399726632585 1.121970343810609 5.8911945032882285 0.9161784158521834 0.6220794383143867 -0.15993212971367943
Ni 5.933162057648 5.246856060957337 1.8776147337654152 1.5179751926581342 0.515026673098242 -2.015253797744336
Ni 9.171143861603454 9.267621862398274 4.327686911451926 -0.0726838008179716 0.39601879240275023 0.7725468230707405
P 7.8311016531747795 1.735128269360852 9.115817525605957 1.008362748596928 -1.8856362598537977 0.7881385068614104
P 4.880589324892356 5.966765804027724 3.4168956694005703 -1.1729935693378573 -2.3904579673945796 1.6912516048892035
P 2.1433926386634834 7.33711248191884 11.051833220666998 1.3480432714192654 0.31949607745466263 -0.3667305849615942
P 6.921826574561481 4.825855166803089 11.963214760696717 1.5211247940307093 0.3651879230648227 -2.2680724284761067
P 5.26131272163762 8.327224544830216 9.82990606584195 3.686431771812116 0.227289376112415 2.194189208033395
P 6.80813781583064 4.924269495361328 8.340303216917697 -1.6231338261753594 1.8829502283812025 -1.6473790718759693
P 8.970621142297542 0.35924613797518534 13.463177903120195 -0.24649294562405935 0.6141771527481745 -0.9096087330544657
P 2.134500570390695 4.200985278178963 10.968009027809627 -1.270103107298361 -0.6723794721205194 -0.30491715119922325
Ni 5.191689518998569 1.3384724669893977 0.000785810684571994 0.45161221339733837 0.5184372414416878 0.451009546816333
Ni 7.68766300429238 3.825356491374345 9.794150739728991 -0.5770835903299868 -0.55758331551353 0.7736205157508934
Ni 7.5195220769523825 8.670424541422234 8.951266324347754 -0.07509858090705131 1.6368743156899035 -0.2852962916445022
Ni 4.603948245255534 0.28956277758037646 7.947847177870009 0.11076132441598342 -0.3034325962338968 -0.5350699649023622
Ni 4.660797324445623 6.529908195455867 11.307526241791415 -0.2648966449422277 0.47973365422390274 0.39273935032053003
Ni 4.879461366971918 3.758515584939041 5.863831184103329 0.495925690602733 0.2640528088846936 1.6597321941246834
Ni 6.518149234135298 8.969079599806275 12.511610042280061 0.6932863974765157 -0.6236899773346162 1.3294670510789748
Ni 3.0060360569159976 1.4540411555876354 2.3580073122554053 0.6942053097463593 1.3334391483528454 1.1464209610556513
Ni 2.73277885104049 5.735421634545835 5.55244712058714 1.0514737208537892 -0.37094822258736765 -0.33506539264782936
Ni 3.8464587041358778 7.613208381894118 2.522379920176206 -1.6687102292535778 1.7246306945702816 -1.9960522851152203
Ni 4.558519740009882 2.315688211010429 9.038638884829837 1.080923393573474 -0.1357341923112372 0.8132720687042445
Ni 8.7169246066923 5.991778270913443 2.534954771059225 0.29124248192560814 -1.7604569602402713 -0.5226139985271967
Ni 8.06365837742114 4.957854442442378 6.482209674895334 0.375565666754721 1.0818183945839177 -0.6131101449362408
Ni 8.643475746773095 0.27799368917641465 7.012169424234051 0.5158072600180085 1.2905441487615321 -0.21225716436964093
Ni 3.2729672987877136 4.05639987207745 12.84634001485452 3.1249727753932635 -0.24981943889413105 -0.4422359143887609
Ni 4.547023968870749 5.691873059167581 7.611590702243223 -1.7981642449830582 -3.8825125835322103 -0.8622032471873087
Ni 2.386862355790084 8.358910762745195 4.987708668701578 0.7221102636867434 -0.6932473167084641 1.1578443724012446
Ni 0.11423205846251828 7.503890460104976 10.535285830967226 -0.09671950161093666 -1.3032315144212137 -0.2002064038526939
Ni 5.826598233114596 8.978357053701881 1.4052710750026858 -1.1617082262320253 1.116584337310193 1.390028614712116
Ni 0.6876868051782679 2.569065158538212 7.905942601160794 -0.44621083987610893 0.35699047485569485 -2.230000304194734
Ni 2.808812614527366 6.905903568584627 13.116299823742615 -1.1543594991764377 -0.17103441027442803 0.09242575933158921
Ni 3.4160393613459714 5.542089646982716 1.528701630306378 -0.5598250603598552 -0.4253453092810094 -0.5977449753340802
Ni 3.9611908239431233 9.029209156614973 12.305098806381555 0.3301152477314057 0.1868595502321427 0.17674148796153433
Ni 8.866322633254349 7.016772432514371 8.215826480642798 -0.33061455596532735 -0.47799661692813805 -1.4747096971012796
P 5.790710371945985 1.8252051089571846 6.229542400892494 0.3632894204905292 -0.4863033370216206 0.02479674732870568
P 2.8501240733634177 3.192026918346931 5.403152490167798 -1.215385918261139 0.1635401587799119 0.23284064494794737
P 4.98750093645123 1.8483752445728543 11.73144478709986 0.36952023189158945 0.28908558348360536 -0.6567816176822624
P 4.105879626187343 7.592181366327281 6.518350386631109 -0.33577398867907976 0.28334970944109267 -0.8110313522991838
P 1.7009417447222355 0.047031145457607317 3.333210591353388 -1.1341164326566855 0.3458606834911205 -0.6114756946566114
P 7.394591337614507 7.81389089523876 1.1088747523543208 3.118255254163772 -0.781451324649222 0.9701312159195549
P 1.2305174943541184 6.448460233950887 1.1346175719935232 -0.2126960516792724 -0.13722543214478303 -0.9934611488947471
P 3.6775940037969317 9.35519839527097 1.0673696607419272 -0.05479380791142822 -0.8147080298198228 -1.5879387663314652
