# total energy = -340885.65055268834 ev
CRYSTAL
PRIMVEC
9.16145345605146 0.00000000000000 0.00000000000000
0.00000000000000 9.16145345605146 0.00000000000000
0.00000000000000 0.00000000000000 13.40871318683815
PRIMCOORD
 96 1
Ni 5.275906971979368 3.242980452295229 9.52140695197174 0.7710424706110721 0.5711934500977969 1.3588300776221243
Ni 4.690499258228594 0.7016299121676872 6.609973086872569 -0.1652748820828315 0.6729767393848861 0.3412594372736833
Ni 4.3350623488812055 2.562770018284466 2.2173181770479546 -1.020531522748978 -0.668449540938494 0.147718618366623
Ni 4.935842981514494 4.697736806450994 3.2608516995324885 1.223545571253796 -0.6301807272652825 0.25033957306365917
Ni 5.181571485845129 4.5836858725008 11.868105923021204 -0.014139781835491777 1.3162904044877006 -1.907810996178624
Ni 6.1412520572284235 6.098257356205991 5.119969872873718 -0.8995104682781992 -0.6303753597745918 1.1004498936421758
Ni 3.8042843820293784 2.8501739743412986 7.74809037087973 -1.0965708703027437 0.5056809702172839 -0.9460798313973062
Ni 5.429168926678764 7.900122858526663 13.023145327688612 -0.24271419530791746 1.0102049440119893 -0.23117019922405993
Ni 2.239801299949969 5.7098666988130695 11.84767038496439 -0.07801266923005275 -0.6702254018919941 1.1566783771176015
Ni 8.221002765475454 7.701410933281286 9.746994917046523 -0.19569000403957912 -0.04271450814939095 0.24524724614241633
Ni 8.034035823547947 9.164751569316023 7.661644728453251 -0.2907218335354477 0.5758497179228856 -0.7537757131108245
Ni 8.357884041413268 2.512281248343144 2.2460933861767334 2.477772887862165 0.9079701690097782 -1.6166145369996028
Ni 1.3546491523504982 1.1295339182735327 3.2919997251038 -0.07388142067049856 0.948910615977882 -1.0117460632468642
Ni 2.0514326556452116 6.939782662495251 0.618517206504891 -0.48269376529349134 -0.3888708685040593 0.4817882227600864
Ni 7.43822069868243 3.9575921439960053 4.29423433159877 -0.05034734210430038 0.2727120272215884 0.3133930498807183
Ni 7.574460672879019 4.059302600154335 13.25071857972516 -0.27589428160431195 0.1647416352871808 -0.3297817756513869
Ni 4.724213406910151 0.8160280652034866 10.922469859770745 -0.7307016049001802 -1.37986787212903 0.5202568111489297
Ni 0.7836707277772929 0.13164275685734717 0.5824384866889013 -0.8739472750971142 0.3705283614411296 0.8534614964389367
Ni 3.194928628970563 4.763094615335295 9.881738825895367 1.3435654381535698 -0.33836463222439145 -0.37751559139224017
Ni 8.95438627528724 5.1236436157055945 1.6303383578858341 -0.20708487614008209 -1.4331269885634867 -0.16263847290124891
Ni 6.5026439113157615 2.200975060245501 7.472890386958414 -0.10192187174748253 -0.7359147736700036 0.46530462328276645
Ni 2.9273042509038074 4.673477277725786 1.1134894648534208 -1.6608480528966816 -2.323331863170044 0.5606228736708022
Ni 0.5883934314288503 0.3088866482425348 5.32000104741533 0.707351360210014 -0.47198640617831616 1.45148055137001
Ni 6.721904976640685 1.005579453148132 1.140479106705559 -0.8327376336280239 -0.31446931366403263 -1.6966015563472072
P 0.18887435653498041 5.917511041168369 13.044385241357995 -0.5220540122586687 0.7231657015344514 -0.1598477975299892
P 4.004929373951876 6.009033961094663 13.35426041042736 1.4116181679574333 1.2013443525664083 -1.7928369192328737
P 2.0843497578769608 8.418422925784935 2.2341596769178755 0.15679152720216866 0.4123262713135221 -0.5580867375125098
P 6.529496131366208 8.039001331315719 6.486626026110643 -0.7294497347709502 1.1195146235831108 -1.684683978974015
P 4.621211185815925 1.4093247065166765 13.447062269254726 -0.48661006962876197 0.1982063427035296 0.3973750493203285
P 4.086365533634042 6.237007568646804 8.509384248614982 0.7723635034153409 1.2293454657650247 1.1256119947301002
P 4.786685357958939 1.102022073574968 4.189217506891752 -1.5362809329458573 -0.6004374345645788 -0.08986931145832264
P 9.18976233722381 5.984563718940195 4.282997808947158 -1.027071894970657 -1.0806724539049324 -0.16125290540763196
Ni 2.6960783273783098 1.7478129269888256 5.448402482043456 0.20719260536253994 0.032895465176440125 -0.02831530200492543
Ni 1.6937878360173186 6.805145942651726 5.586700118684032 0.8830690348927244 0.3638519778622185 -0.5853273183960177
Ni 7.041456472839795 1.0209157262168622 9.759558934302472 -0.6406062934739806 0.3323366808627567 -0.040341894152156325
Ni 8.70087053552744 2.547094771438231 11.281192982469241 -0.38418143344819 0.8254308155539655 -0.46286516060333827
Ni 3.149029747205725 4.100419203220321 4.9101368592901515 -0.6987361077371773 0.41572064170705175 -0.20200617606559407
Ni 1.769608024737039 6.9482478454794245 9.84491894449559 -0.10820410521176847 0.11765856575644898 0.0177210714288469
Ni 1.6921937431177017 1.3983676081951701 12.066165552781221 -1.2534755260440091 0.4614765077859278 1.523277321597338
Ni 4.066567632737073 6.4977883409893415 2.1328706476180654 -0.36632023689705295 2.174445192637249 0.6117819130431207
Ni 5.885427631200213 8.138274840857393 8.622218541547538 -0.6691015727001961 0.06455525817356625 -0.0393497054422161
Ni 6.680770050667806 0.7332204359404446 5.295770835341149 1.3550626401598922 -0.5419916317228601 0.12967590193229922
Ni 8.503459536671405 7.527187573097269 5.529096563996487 -1.5112191048812231 -0.06356769744931633 0.44849912168965334
Ni 4.594624647915414 4.998745520875248 6.838376366591331 0.07464889496414241 -0.21156399495735823 -0.4042103270746071
Ni 0.8275183601155545 7.993441423328386 7.900588260361723 1.0897785299712586 -0.033186256943981564 -0.8031280382917072
Ni 6.20379729990478 2.2113641484533506 12.074278019807721 0.86237782509196 0.4068408227189187 0.550637223213
Ni 0.19554297849837873 7.22320138630304 2.2771213967079014 0.15900627546530036 1.8288246501813925 -0.3076137241947799
Ni 6.774482557967711 6.207709240526255 7.4008722014188155 1.080597634802939 -1.4029129268739517 1.3833954256663143
Ni 1.75781723415194 5.835690100441469 3.10195819939979 2.0252990977954797 -1.509083546595459 0.7049810602056247
Ni 1.774573532504812 1.386943275747914 7.787740225248999 -0.8592405650145589 -0.29962093579729043 -0.42871165465008104
Ni 0.6271509602324724 3.660816021063838 4.711325990347557 1.2883008612533104 -0.13960781633403052 -1.4576943934902058
Ni 0.8127803299568529 7.811788124399603 12.06843209636378 -0.4353294170769148 -0.273715014564806 -0.3604828042796695
Ni 2.142460857085417 5.800125338163805 7.654364121399655 -0.2735502068521676 -0.80088243679064 0.15674550445558166
Ni 6.4375059773141645 1.9757224043668442 3.178387624773674 -0.9986303518005123 0.5721208470080728 1.453946239301683
Ni 4.225940276885001 7.665791202282945 6.502823475803304 1.1477965012469393 -3.9211845461811112 -0.41283869217356645
Ni 7.89555129325707 7.965462344504072 0.4272178132427344 0.5228184012285189 -0.8690503520161291 -0.24829965981549496
P -0.20222625878729072 6.102993827637612 8.562267822487108 0.7207537496588491 -0.7171719458448617 -0.042087930308985576
P 8.764735027500032 1.8755602338409014 8.585866810418855 -0.0915389858512617 -0.12176281773280964 1.5105742722083726
P 1.6223101762310381 3.656162002713231 10.890878419852644 0.00651800362417587 -0.6129846751019701 1.924566618370408
P 3.7097015366520956 6.225280908235828 4.4473881811475025 0.6735439247422659 0.4935456204063306 0.252528610295178
P 7.040622780576203 4.065559872858004 10.827843955562267 -0.9964521132022711 -0.3399587161843887 0.09170765021864206
P 6.226728417880307 8.07023272611339 10.75388170960141 0.5029509728806306 0.2882121797397165 1.6441101713167106
P 2.574276803812737 8.821526877412253 6.554165177060455 -2.6640523972211216 1.530619878005338 0.25046221468445257
P 6.849597314772084 4.191190883964037 1.9921992783896108 -0.2461725861701631 0.1863674410870726 0.8752217709341636
Ni 2.1158101890107837 2.084597117120005 1.0259261251065208 0.586285568544229 0.25264508126838425 -0.3518130444198135
Ni 1.0984032994637682 3.790862852730878 8.847618696826677 -0.8276571337813231 -0.2839060961651949 -0.481561451461261
Ni 0.42506670397359586 0.6040109611183752 10.274064327543377 0.4868332413831616 -0.8762892929667295 -2.5746245441755917
Ni 2.551254071302749 1.7834326579871669 9.970960388716007 1.3373369407453548 0.8420293433425949 -0.8516375558563204
Ni 5.147142743794778 4.024965472638444 0.5644398952487414 0.16332675721752518 -1.2103444991824897 0.8826646003654539
Ni 4.211932414565951 7.03369672177097 11.055282534233157 -0.3022465463455956 0.13390819484609195 -0.5548186082841993
Ni 7.203623360288777 6.417744722230981 11.948625021213418 -0.44936455501374223 0.6231479887882171 0.638237793241804
Ni 7.752632619498293 4.031497588945496 8.529980112107106 0.04594124261680475 0.07663198683244221 1.4444894647641575
Ni 3.1096171744807086 8.923090750315446 13.181810707630504 0.4328719566753577 0.3721499562049526 -0.33701428884408413
Ni -0.33578284326952307 5.290116386274231 10.816393054900017 1.8536969879430396 -0.9294591921214896 -0.984053482427602
Ni 8.860811189789025 2.3480621953222425 6.53902679138616 -0.14578617723060056 0.40174566758419844 -0.8531444794191501
Ni 3.4323935022928382 2.9665061101995644 12.134536563703938 0.5225859735027387 0.35456412480238936 0.5894598525071526
Ni 0.8487491123314896 3.8508886957095645 13.040818687531438 0.5689123673731041 -0.8944027147379887 -0.1528240579139884
Ni 3.5044025263789917 8.726568412443681 8.918725317748391 -0.9840277713959892 -0.5249673292507216 -0.39499626467550686
Ni 5.541094403429468 7.930025842574652 3.832531891439663 -0.7172187399223969 0.645039903765302 0.7640454704679486
Ni 2.9835555750627107 8.619773349622779 4.200494339938526 0.8332428553992165 -0.25673904883209975 0.4521146069550536
Ni 5.243915176545673 2.8949093515184847 5.43164160296386 -0.2290395260343023 0.45836932961551385 -0.31432018968067804
Ni 6.083919681562883 5.753301149600913 9.706191635688391 -0.49704643447073754 0.5375307677380291 0.04275641713091991
Ni 8.196422585879635 -0.187852854475743 3.1379205687570146 -0.8716229978393117 0.6066595042148907 0.2722181183043054
Ni 4.386595524515379 -0.012178320065868078 2.02275822250434 -0.3114235848591734 0.4198518902666059 -0.2884636336288903
Ni 6.1302308287327945 6.1150319774657556 0.9359432455045126 1.008868484588753 0.0159071581485597 -0.0034398789194843983
Ni 8.05020578888027 0.05068574119041235 11.788055891245433 -1.8128771257132001 0.4613898616093925 1.3783077267307617
Ni 8.87218971496905 4.974522637963824 6.603683749081838 0.7473317572576936 0.8977790874093893 -0.590412446228409
Ni 7.263301068036513 6.217402058272203 3.1434586673651665 0.5727044874256847 0.3363226620936982 -0.5478092668459018
P 8.469910294151878 1.6868159699448555 4.2788009471235116 -0.0797749033367981 0.9776167256633228 0.3099403154454275
P 2.1875718538538926 3.3121860716268827 2.7844396297203624 0.13761315450150494 0.36387486068035396 1.1014690789353097
P 4.884218191345859 1.2594433281388824 8.792790146387947 0.34329060877109907 -0.07488312246213555 -0.06297068729526574
P 8.356610599384263 1.9501344648919554 13.390115590779265 0.9233458801349 -0.7977600891115745 -0.2905891646123253
P 6.452448307884715 8.152136119921305 1.9311629270958226 -0.3829689011973275 -0.9181723063537607 -0.0784268739493359
P 1.6879245058118304 3.7247996119312283 6.747465431755235 1.2463558842800924 -0.8035646116084936 -1.3819293826437489
P 6.806941587527157 4.123652649159569 6.546670191996221 -0.9306781521302552 0.4827567573209428 -1.205076308805015
P 2.4100302664314963 8.842011887317678 10.95465038114543 1.058925549146144 -0.41806445934888 -0.5718416252047571
