# total energy = -381170.6501020907 ev
CRYSTAL
PRIMVEC
9.20770916307453 0.00000000000000 0.00000000000000
0.00000000000000 9.20770916307453 0.00000000000000
0.00000000000000 0.00000000000000 13.47641308966172
PRIMCOORD
 96 1
Ni 0.07794786354504735 6.113384964600534 4.534759105746297 -1.297595399181359 0.24219431824870546 -1.184935572191082
Ni 8.570314882641897 7.86800605929597 6.114140917538582 -0.8235613664453946 -0.06714564460856177 0.5448897792062616
Ni 3.44343469063044 6.791928690101115 1.7071654814505226 0.16969640818929485 0.6348027994183261 0.8135875430621343
Ni 8.046064742803633 2.6972419244984174 2.5854225813199387 0.5852316733584179 0.913086664300737 2.6452033828354184
Ni 4.78398509562996 0.6738229329142552 12.882224402722963 -1.663572908027012 2.087097362049199 0.5557439483119461
Ni 3.14351197380889 8.672050863305676 11.66208413373017 -1.5918069910376198 -0.2177685811061733 -0.46652435462248043
Ni 4.1836792765191095 6.547436383596875 7.879308522529276 0.7421299013417799 -2.0293377866412277 1.2516189324512446
Ni 7.463529802748001 4.983663480703245 3.427941798869658 -0.3326737524872012 -0.16714073164697665 -1.8682322054447373
Ni 0.9043775297677789 3.4808548214493014 7.448521236499293 -1.1149180053513637 -0.46156778194815345 0.5533944742431631
Ni 5.91138623676978 4.886448485332788 0.4694587445501927 3.330469224000303 1.3728191928123648 0.6654202671938669
Ni 8.547212739870114 0.6256969984282947 7.652648786732931 -1.3824670003147739 2.087244943370657 -0.6351609540886932
Ni 7.539401327833488 7.956004137602038 10.851033183672218 1.6080676758708563 0.49673301699537675 0.7389700155565596
Ni 6.441474064339134 2.6125125830133866 13.058981116127825 1.6636896361105349 -0.9404995090960512 -1.422849775007195
Ni 0.1860482129150272 7.742643096427171 12.69465968007716 1.9708310486545864 0.2296128820392691 -0.3821024394319742
Ni 6.955982447679771 9.054723264100923 13.27554736092918 -0.34544622166152117 0.39983790903852423 -0.10072168079179428
Ni 6.347159497415513 9.03024917263524 9.111120483900512 0.43598813370683615 0.86991964199496 -1.1585812505672692
Ni 8.835911258987876 3.080936381032074 0.3249824186022123 -0.03701874331619431 1.369164369668597 -0.8166924072397032
Ni 0.2512166966462217 8.569486188799944 4.014852242410804 -0.08307568557525694 -1.0999793817636603 -0.028622805943015223
Ni 0.7459782265040501 2.1191451003519104 9.450307635724737 1.6934588969531674 2.5442341048091923 -0.9685114209279448
Ni 2.5737020880819146 1.7506617796727717 0.3494592723807013 1.8440738630309792 -1.3268954336970566 -1.3106833427135685
Ni 4.68213862245392 7.499458284651346 13.25731425486434 0.5025709638333925 1.2838646798588278 -0.4293482597928154
Ni 4.849893879193299 2.697656271419394 8.096736608926262 -0.19278465746732604 -0.6932933394550512 0.45142992218320316
Ni 1.5251465621492588 7.086335989018998 6.0850859906687695 0.943108407473808 0.001580714223558568 -0.5432576429194773
Ni 8.842108047383814 4.6064696669742435 9.359746131134228 -0.9000380586468951 0.690991687905068 -0.25417694453187833
P 4.942477396758175 8.134873099532944 3.810118824901605 0.19329167901073163 -0.1895612654340219 -0.9118283664136038
Ni 3.8725691928311927 5.3707279588608445 13.080476513617153 -0.4654540043764371 -1.6033913534411097 0.27713869553437437
P 1.5805033107917281 4.924246132235206 5.569006772112164 0.567858472187293 -1.233815071500604 0.026738701546424923
Ni 3.8392741158033865 3.986569842355879 4.46534218491869 -1.2167696859825432 1.5910264041178532 -0.2690548900849753
P 5.763980017705027 5.979919217499304 11.8811290938899 1.4143317102338546 -1.1434101992537855 1.6468422255358928
P 2.322046183699458 7.864194067622986 0.10469717999235902 -0.3211960908649049 0.07583443063181132 0.5665466953544049
P 5.107295394213297 8.977719190764768 7.206943170005922 0.22788355805298816 -0.013830735235505215 -0.29069792227604774
Ni 3.967427014606762 0.4337834746541102 9.023711698993168 -0.5505148387025229 -0.12145891333914564 0.463032539419138
Ni 4.540183367327348 3.2423383183164787 0.41781178200686686 -2.978147358264871 -1.742249693203625 0.6481653367681611
Ni 6.66384945297258 5.616076582335102 5.5128774966548075 0.40511047029137326 1.0818459053877432 0.81379503108725
Ni 9.042477010658727 0.862288169534979 12.481786647498112 -0.8290349879654562 0.1259161777795509 0.6400740751195944
Ni 2.432391372610195 6.271416880260996 3.9846251741400955 0.4744292112918539 -0.2272945183187376 -0.2754839335397707
Ni 2.810045571806949 8.937150023346485 4.311104766283437 0.09434354517959234 -9.358815507080655e-05 -0.003481016570064972
Ni 2.993684127183763 3.9525473562890254 7.1165437211000615 1.5429655440548844 0.8145954155013583 -0.038143858059573016
Ni 7.818938176142989 2.6417654756343323 8.821161429372046 -2.001506623361572 -1.4655059191148245 1.9971249493541088
Ni 1.002774795019423 0.19996382406329136 1.428432466167715 -0.2796684039347635 0.0964608486329113 -1.0182748655043175
Ni 0.12051970774805086 0.2352450039989783 10.059307374008611 -0.43402561066382667 -2.4691661200297603 1.4254339907946032
Ni 2.934110247656688 8.253348695804178 7.312841035298177 1.106884593523926 1.6914017573138227 -0.02961396621169093
Ni 4.119289764999351 6.566625249892768 10.905032715955755 -1.0137227273572604 0.6200845193715449 -2.2638072254418495
Ni 8.165967534024897 1.1529249114719757 5.1915864487330285 0.030803358534101783 2.402009162567289 -1.2485894015963013
Ni 1.8299769880570418 1.4453249297504618 11.530513333214206 0.7647859481783991 0.8937491403143897 -0.44008312971181635
Ni 8.754690054767114 2.948345366319572 11.257467920000002 -0.722005362677763 -0.11518439318434356 0.19823153951451022
Ni 4.9094217201736 5.728180443732652 3.347271215668327 1.7299600772029948 1.4947941265559805 1.0771600698762998
Ni 8.99421940592899 5.488448522964965 6.877175504851899 -0.9719672406870292 1.8904395947797121 0.24476619274093972
Ni 9.115438899588025 5.063346997461717 12.16579187399735 0.011243948344935474 0.7062717539925901 0.4337006232242402
Ni 1.597104810758856 5.623525619203326 0.843650845029453 -0.976525806591989 -0.7269598784695609 -0.4416566448465232
Ni 0.9761460995646623 7.282644352468341 2.3302069765008255 1.4493079691987234 -1.3643839175608181 0.548959321289945
Ni 1.1526578879006797 4.270848660983225 3.1633315681956025 0.5465134308526136 -0.3717357514856695 -0.7478200097480219
Ni 1.8391662819933665 1.210555964325139 7.570469980739246 0.8803722047868514 0.5307150303677763 -0.3652871676468483
Ni 8.825561793672817 3.7495357804292175 4.916693969022206 0.8823810076867643 -0.8287321120130566 -0.5208458508831805
Ni 6.2275237297655455 6.381642368950119 9.821758601129003 0.1749435155208471 0.9427150286901314 -0.9113483414533917
Ni 1.666659847226789 5.822495010656273 8.231985889329561 0.9625796288245423 0.4818545572216476 0.9678940990589201
P 8.211794303484906 5.347588985251642 1.3384464434118952 0.09314798220959443 0.5847315937935478 -0.705767817772978
Ni 3.5294254882971097 0.18647452985816532 1.8450150189756847 -0.3496893132085913 -1.7818562518516539 0.2712706667893715
P 2.4112596796403905 7.540754861108678 9.621647453716031 0.1865834137526206 0.07163941871385726 -0.4067585474177575
Ni 4.400898347913736 2.3673849445636495 5.810085780758493 -0.20245714756008362 -2.2578926597296274 0.8054939674207224
P 8.298217863491264 6.763265090878892 8.756366778640666 -0.7839969738892111 0.02461497033520277 -1.0185111498848394
P 1.279328345497894 2.5688772483798767 1.6481514306522334 -0.6579378427738928 0.9000676263332499 1.4971407724112862
P 4.859433066085116 4.701281450203037 6.281653090750988 0.7401419243774737 0.6396259318385822 0.7653235658494238
Ni 3.5451154250380896 3.2538203318822077 11.699467433711611 0.8570551273274658 -0.39593368888811165 -0.7169102075430427
Ni 2.225236327540622 6.188354134169227 11.91723252227099 -3.1386093923400913 0.7314297413154565 0.027687695723255537
Ni 6.398796331478548 4.2341375237847005 10.741280971243944 0.5041776461988801 -1.064990010172669 0.25082936821588414
Ni 8.30378852765106 7.822409482569838 1.3750931266449335 -0.27692657952356825 0.12074671776346946 0.3128603173056999
Ni 6.55931432866487 8.845487276717112 5.40204706146106 -2.638268346278482 -0.608413767901836 0.558135074251942
Ni 1.7072198069357174 4.3873906382899 10.334117905106174 0.33964067072333765 -0.6134017080347306 0.286873406323635
Ni 6.6228383155052555 1.6729395050069227 6.808404965221015 -1.6782937591769547 -0.9092480072809372 0.5767184936810842
Ni 4.131094048392506 4.381571365977518 9.631322914706303 -0.2882044664302327 0.15689180022545882 -0.027494605875842973
Ni 5.402245947983129 8.700870993586935 11.183522647711587 0.28395880378000127 -0.5306540952228538 -0.8483581137741001
Ni 6.366145794105595 3.3410910011492274 5.068101858572657 0.4882524903281914 -0.4279140984494501 -0.6286180107638529
Ni 5.428027534177226 1.3269137874447139 1.4734029186577051 1.8103584730564048 0.05232709153849053 0.10183419712968268
Ni 6.151808735739094 7.063316715631412 1.5653796481760835 -0.8435246969411988 0.2490990157883387 1.06836304040996
Ni 7.284200455349342 7.400567486178272 3.7296784344341494 -0.26972234846564513 -1.9446536189282704 0.22796429069225255
Ni 7.914376083607926 3.59943170252344 6.911849896741089 -2.2809120034429364 -0.3872654716901524 -0.33066392114602405
Ni 1.0568516720615426 1.3897195729554066 3.5059025532078025 -0.8048951574944588 1.2753088198690166 0.08380510754211373
Ni 1.9986714311506348 2.504727137303349 5.378382327647684 -0.40634897068416465 0.07138282261836093 -0.12579713570318332
Ni 5.156740793449836 1.1374375443368072 3.7490440887496588 0.14589622044590358 -0.8582627744823218 1.3131279475993192
Ni 7.413274125088221 6.793687362587926 12.938542436222098 -0.9822313416171988 -1.9503972062802668 0.3142230019811814
Ni 7.457139652455607 0.23978164239820396 3.0011976180174718 -0.36729211389201905 2.2065222756774516 -1.0475031662418153
Ni 0.7874239678529328 8.39788210955016 8.113002948272866 1.053450642074502 -3.6409723539277357 1.08852588851108
Ni 5.1074887561097535 2.03441575886688 10.47412480893322 1.3049870636597398 -0.6030352771987421 0.5081106627046991
Ni 0.3779902805882122 6.74435245586365 10.399235746435915 1.173754358763282 0.1287474765807589 0.3290988906517493
Ni 3.176475573299915 2.2848562456144723 3.0387291621195294 -0.1657831891778177 0.4584780872792362 -1.0760143863076306
Ni 1.7918478636178425 3.6752663967715065 12.914730379059042 -1.2606992974859579 1.0696228809589903 0.20636625280650264
Ni 4.1060306635281005 7.030122923406511 5.481342012884749 1.0681293271325993 -0.1653270754770056 0.405257794502515
P 3.871593175639559 4.614240973669894 1.946816374375885 -0.6615152757125059 -0.5672550342753392 -0.2462209229095953
Ni 6.093017511507197 4.725967318983885 8.28581139590629 0.5449751398312161 -0.5969798150332816 -1.6572256256527458
P 0.7732284423402757 0.46809876587845406 5.772972266661154 2.4251570614386617 -0.11168357911993669 1.1180907466523906
Ni 5.63796330747202 3.2570246147377593 2.8214889129933862 -0.2932944793586304 1.002999941623118 -0.9038625745993079
P 7.753545024303532 1.4097371330932522 1.067461715551349 -1.1293832888470743 -2.0716761423981227 -1.405140787763206
P 7.456412243416558 1.0859296182047424 10.709382703725296 -0.784582671189352 0.5102390219016116 0.2997844579583482
P 2.9138809102036767 2.353122202772701 9.595880599856901 0.6486337917641475 0.7182569513789242 0.055630444880110645
Ni 6.540374070521564 7.14089166694758 7.451674876953393 0.17246085830830943 0.4725834163323667 -0.1771135265889724
