# total energy = -340885.47294153686 ev
CRYSTAL
PRIMVEC
9.16371932528035 0.00000000000000 0.00000000000000
0.00000000000000 9.16371932528035 0.00000000000000
0.00000000000000 0.00000000000000 13.41202951549062
PRIMCOORD
 96 1
Ni 8.740245582759881 7.787786917541933 12.060284940848284 0.265145270617924 0.41242860121934133 -0.7286318668553451
Ni 4.84366715420973 5.71224113219678 11.637014575296858 0.04552523812530869 -0.2555753675413018 0.026108267051277615
Ni 2.2373312510499272 2.762174114985088 8.532559046666252 0.6317105336462475 -0.47232939134003166 -0.8036060063693902
Ni 2.1355773110224097 2.553497897198108 12.77829809300265 0.21763642640368325 1.173471280305224 -0.18118126890044278
Ni 2.894232475011795 7.039541738771502 8.486166800918477 0.656682887320869 -0.5001821518862418 0.15580319514697039
Ni 8.436055917845126 5.315241317372201 5.933522045994914 -0.8011197496124268 0.041071573229329264 2.131889578663225
Ni 5.002529393431366 5.767901563728404 7.037425835965993 -0.4416335049180717 -0.6267071668943852 1.0188369086553746
Ni 2.981736831398931 7.0369667336249115 12.932106540984627 -0.1649349822449095 0.30920446572066745 -0.19507345350150274
Ni 1.610716119648483 6.409233628458756 10.773829780678879 -1.0477831593760794 1.744406591645628 -0.9171137831822592
Ni 5.724740445435031 1.1143724229940835 1.703072665448855 -1.4581358519029985 0.9096601551176914 -0.5307373989652795
Ni 2.3987501679793866 1.7184539684330218 6.217682569454505 0.7713353192611425 -0.35113992961218876 -0.21548904104337727
Ni 3.365467580557098 4.71608068924187 0.6754174353469184 0.006963575802026716 0.2966466836603149 0.17169364112498173
Ni 0.5080430171905242 0.6311924092331935 7.11088404328305 -1.1117131252608208 1.3274464211045203 0.9782733854107151
Ni 8.58969483701852 5.088384280329583 2.1953082667039086 -0.2646847860417377 0.1176847910086941 -1.1920606132716374
Ni 5.856890442655567 8.624022129826793 3.5904946228389543 0.20274665377604437 -0.5450329896523453 1.4670334115029444
Ni 0.9558492413896146 8.701492213489676 0.5815736178907046 0.4663667459986936 0.5718868766203957 -0.11140641419915007
Ni 6.671838334813994 2.0451222369939854 3.8866724478972556 -0.9719212179404423 -0.6138711914719815 1.304770062552927
Ni 4.543078831012448 3.2636128396163695 7.025140953761302 -0.42589321136467945 -0.47989923326748957 0.7861003933854591
Ni 3.6883695604516977 0.05427945902062262 4.075097762220006 0.66550639914977 2.028631247492507 0.40142119436524415
Ni 6.841935293999042 6.163352709977277 13.065449654468813 -0.04504727004762564 -0.3635406172693868 -0.6998866764018528
Ni 6.007752754855947 4.059930890269398 0.8751352010651934 -0.29322068869790147 -0.14676011110809564 0.19312147198145452
Ni 1.0126001555278004 5.051692747920526 12.943869091184492 0.20534629618242053 0.7459788427742249 0.16492289806005145
Ni 3.97957423500091 8.698834734868639 1.535100772788697 1.2841094488797822 -2.1392784149281283 -1.3794863204198953
Ni 6.334347713661847 2.212085204150088 12.815650329579212 -0.46835832250742565 -0.7229209325134969 0.1832443220770586
P 5.166477496910501 6.372496277452783 9.30979914993606 -0.6844641711991953 0.1880988219558825 -0.09804310551836663
P 2.760698756164444 4.8998774089043255 11.582790098592533 1.1231411645921043 -1.0418842773931412 1.218623194251514
P 0.5643274980121213 1.8598043399139705 0.6335584815778535 0.1035655779984926 -1.4076789808040273 0.3342315838926244
P 7.035033188835123 4.146518874718247 7.207464147346991 -1.3037195098012258 -0.4534762631892707 -0.008116201349231184
P 3.952055585694116 2.6025971056515877 0.5630629047372837 2.0156291788058835 -0.40564088887354655 -0.14133636898936305
P 1.9881422298712275 8.819722520967613 11.886826729393594 0.4069578079127572 -0.5202719806575814 -0.5219964195478558
P 2.5396331897718083 4.798911548743736 3.0958315523193756 1.5639722282135387 1.4213713906894554 -0.6819051522227676
P 7.185391496469444 0.4393627731597032 11.641829193460623 -0.5812269230743989 -0.5323672212592186 0.5253810197493726
Ni 8.564806175174613 3.428449823875644 13.3592265850488 -0.9508746816827882 1.2383024178479962 -1.492297842496688
Ni 1.4193776589339149 6.553635518494204 1.6827539504611917 1.179353193007298 -0.7863366777659813 0.2503621987714785
Ni 4.463620220243482 3.183732697755791 2.9801395951104954 0.019758670684165973 0.32639486145702495 0.10906465343985088
Ni 0.8278348307265734 3.502428530453647 6.568380859353198 -0.6848804328010076 0.41225325198374163 -0.61362822222324
Ni 1.3493668428486993 3.5050951727940656 1.9526703885120311 -0.8539358649721938 0.5933273058823588 -2.1677125018991052
Ni 7.917224453825136 2.4355241738628903 1.94038550630734 -1.0437673533484668 1.6049404430957843 -0.7571464293552701
Ni 1.4884446119226933 8.713203446860998 4.88718290844322 -0.16242944221423639 0.037457630625825813 0.09712085081441339
Ni 3.0422631979228645 1.5152576548370051 2.140546796043746 -1.3666572869760272 -0.13405860438102718 0.08841638106187998
Ni 1.0977494360335363 8.598198768605833 9.204166207493769 0.494254216437581 0.3390873693230289 1.5066852215666116
Ni 2.7782839336601937 0.7539156883245589 10.01241542078331 0.6039765580660889 1.1174952791602366 1.3961686661715826
Ni 6.852858447503436 7.388679447259291 6.193473855588809 0.3841806621172416 -0.006657357415517567 -1.4286458128636816
Ni 6.662344721533328 2.176630773857719 8.301040425573564 -1.5584479559612 -0.7050790192360695 0.3000022303961092
Ni 1.3106134735784931 3.855039288587548 10.369939765250312 0.21095284373592058 0.10360440165622802 0.8934200391097453
Ni 3.357412671219546 4.5127011012581955 5.1605467377259 -0.19375242069723406 0.7787812340162266 0.5811919560714055
Ni 5.834842533820353 4.1270917896265376 9.471038457965616 2.114081089726895 0.33284653061963965 0.8467578591665159
Ni 8.212323709112072 0.1030973412890478 5.06945203608455 -0.9666874803453287 -0.7127031114402306 -0.7468041668889976
Ni 0.30287100569555825 1.3871030392674057 11.746952633105225 -0.2939588524155066 -1.400486576820646 0.47798093319885426
Ni 6.537635664451693 7.622638366823641 1.6380918149329033 0.7662419638986352 -0.3434885837145181 -0.4707993278487505
Ni 7.348047515515593 6.246000295091486 3.9684448978103997 -1.707705893790485 -0.32526948960333013 -0.5292515584483724
Ni 7.656205070923136 0.5453292749875313 0.4731539883840791 1.2468839888694205 -1.1194241207518334 -0.9043312867056102
Ni 5.785944927193297 0.7219672970680805 5.826494385462548 -0.5132454128281031 0.6176334867278912 -0.06303445065366564
Ni 4.170720257608437 8.197570120905633 6.139544450648612 -0.9261236999903534 -1.236832261060373 -0.1830365769416267
Ni 2.012618524342904 2.8689589369538075 4.05184115879819 0.19247072577133303 -0.575396432435551 1.3368885403540267
Ni 7.413751383490855 2.4222367807577116 10.651002035186549 0.21669308865380743 0.4301280753816334 0.028887372458311536
P 6.805207106712452 4.040192238718671 3.007929490511022 -0.9117936565209266 0.7725990164649146 -0.30030022125250216
P 4.454419845983068 2.45581264857659 9.3824527826913 -0.3247439561171633 -1.0705569627374854 -0.11077340860084149
P 9.054029661868514 7.162078994359393 4.974294141268831 -0.4384641060511545 1.2241405245253174 1.2472483141873747
P 4.805875975474726 6.53638939861562 0.6387772197664047 0.3412617512665284 0.21060908724325664 -0.06075773880434698
P 8.649689707818245 6.710976580298282 0.5567912551916395 1.3046350796369595 0.4122131427744256 1.285043273547961
P 2.358200709710135 8.80505140623562 7.302514826645931 -0.32025763821103553 -1.4255586892979255 -0.3082845250095594
P 2.255264649882226 8.503363436712393 2.696662685116867 -1.989227548883903 -0.43400658450043317 -0.1403673202078744
P 5.10280797463824 6.366237457114274 5.008494058377684 1.1025114041568949 0.5882969425473029 -0.8934935726601579
Ni 7.135586681623483 5.910360745254681 8.33886276095447 0.7611527223011859 1.079182499622967 0.6046553293006683
Ni 5.673561072681638 8.195187553866083 7.973719700192539 -0.21392761009352834 -0.00822084524789552 1.8969367724682815
Ni 8.942223121677975 7.870947670941584 2.8342165276574884 -0.058198462717603 0.5776752011673987 -0.204949317854318
Ni 0.7800130447550675 5.436138267190557 4.2162859358678775 2.0498305072779406 -0.01881404738270953 -0.9569602257552358
Ni 3.2518008053318352 6.830819702387607 4.062476571513963 -0.9692449566598599 -0.5773964935847152 -0.6691905328695765
Ni 1.7005938793557855 6.556787837961916 6.4461166826029155 0.5079093453271704 0.736291697393448 -1.854183697771471
Ni 5.129245305057853 5.576178226799755 2.584859810414082 -0.18568789852154474 0.4838898424841215 1.0943615213562508
Ni 7.790343595249757 0.21965893546736354 9.442833446077044 1.4449255238603114 -0.576302232079272 -0.08684595125096657
Ni 5.6994302524995115 4.1024688756447345 5.044049289583264 1.47505036827015 0.4957128032609786 -0.03756921650302562
Ni 4.397687259283648 3.1718198625580443 11.771349203218273 -0.32126705331215644 0.695456408544641 -0.7957957662963522
Ni 4.064027072833547 7.866704868867309 10.497917521035822 -0.680484360615841 -0.365104619322397 0.77394550319048
Ni 3.976880101502342 0.8264740183982154 7.8042183827673774 1.6853889754608395 0.9982074053304807 0.9093521369589693
Ni 8.539303544132054 3.6329107307464983 4.292265082387163 0.16457014270632303 -1.1413872552864859 -0.6098003638367175
Ni 8.968449686551782 7.675641319734228 7.605841269194819 -1.9856735129840577 -0.5091995248935036 -1.3225276436466642
Ni 7.762788291065432 2.3907227497999823 6.2488923649287225 -0.18234546441187308 -0.5825219877367387 -0.6115412577872242
Ni 3.9154281993207385 0.7744442524860903 12.54094493177888 -0.4808081182350042 0.11662138274118625 -0.07828597749609743
Ni 0.5456738308363276 1.452257084079694 2.8138840670907506 0.9464891510205828 -2.8016773787971685 1.185463419670094
Ni 5.506286539066517 0.4700035016602444 10.130843664599917 -0.5766927826494713 1.4306962676348067 0.20045245842522896
Ni 5.544719178158322 8.29824274204597 12.817099113613647 0.18696650812365218 0.1789912032276595 -0.3579248137445062
Ni 8.653987492208817 3.489351902894275 8.788581453388767 -0.3619552750601379 -0.595041203249672 -1.6775836204838077
Ni 6.654051555491821 7.3116034035298725 10.658808607728826 0.6136868433753173 0.048193528986091194 -0.17054924310789338
Ni 3.668319342441953 4.644044691173037 9.343463905832952 -2.0463394634055465 0.7683947485755799 0.049906397912139855
Ni 0.5009640439672483 5.516577395933493 8.144294089157436 0.5835959375272078 -0.549803157347479 1.5539608667241238
Ni 8.367199730402154 4.8505124525887435 10.56815651373367 -0.9773745277455296 1.7895389652078921 1.198778134501129
P 7.395075723388541 0.35737955770075286 7.237788727528823 -0.2669437572792435 -0.7905157488443353 0.22105033718123862
P 2.4614483359970625 4.669373211547322 7.27544978144859 1.399278672555474 0.5521762855653458 0.7308461008978445
P 7.561882907315136 0.4377142200427228 2.713172958329005 0.06820828154512124 -0.8163710193445424 0.26638557078292835
P 0.39961422396451596 1.7177758531986886 5.254833162828307 1.3771278474900475 1.46981637356472 -1.7439803027414866
P 8.720946789739532 7.081694847932756 9.725679892177128 -0.29572854272141974 -1.045293045964374 0.33195795736709927
P 0.5243810124782639 1.8667870940837263 9.660859406750378 0.19937696597286306 -1.0572054811312437 -0.29884754796637564
P 4.123939470158827 2.157002086939587 5.03164344628272 1.1333821255938221 0.469364652284753 -0.6293690299972645
P 6.761404528062278 4.258004684730384 12.01632016436503 -0.5330521631413851 -1.029041617102518 -0.8421067335477497
