# total energy = -340886.3834219238 ev
CRYSTAL
PRIMVEC
9.13219616754654 0.00000000000000 0.00000000000000

0.00000000000000 9.13219616754654 0.00000000000000

0.00000000000000 0.00000000000000 13.36589218774341

PRIMCOORD
 96 1
Ni 6.450179830630003 2.5677087649056913 11.481141472761845 1.036183627463938 -1.3737141938228083 0.14917926207254953
Ni 5.043091025252958 0.6779011954877255 5.772127040683754 -0.28169391900522456 -0.8258362785225004 1.0131262314238423
Ni 3.1221152698747656 1.631914346002547 4.363201750631467 -0.19872827664527062 -0.9077711656250947 0.7077748209006778
Ni 3.9695830861973884 4.7875173796968715 4.945434057716222 -0.9028179353848774 -0.09101473791667551 0.6113353124240052
Ni 3.891548468843112 2.8797924411450153 2.4587096095686016 0.37577598299331416 0.20084892253269926 -0.3101786567084787
Ni 5.367101349855616 4.977147435795355 2.8965491081296104 -0.041610733562250916 -0.28429201874970395 -0.7886167320494096
Ni 5.695750830176937 2.791228401460783 0.4457415880164395 0.24137670744341655 0.942260457651216 0.2141070730941861
Ni 5.718526527740608 8.090130509373541 12.493126718586984 -0.27040677612717945 0.664858481153126 -0.18073209717816618
Ni 1.6634934807961206 6.48879988876824 0.33950948815721343 1.7759231741966703 0.32842423318222796 0.10265129371433936
Ni 0.9208724101545326 0.2877719432585692 13.148991011191432 -1.4213603349458617 -1.4286740949984555 0.6037862964321536
Ni 8.526238543516717 0.1472584917216116 6.6775331631903985 -0.42279631760691055 0.4322564345785459 0.5835452867949305
Ni 0.08030305491434644 2.0962134701132666 0.9659754144437115 -0.4805954880035659 1.6190087482633924 -0.2151529978601972
Ni 7.264214676310846 1.3256478788041441 4.71921585715549 -0.40461527582250956 -1.629313215513194 -0.9796152441505903
Ni 0.9404427068181036 7.4965468822921375 2.3631968817223012 0.4793112219745036 -0.10946060332668892 0.5283403594880126
Ni 7.916280888475547 4.041261694929244 3.392343350827975 0.8244643378756381 0.45938362981264114 1.7732209447741591
Ni 7.76642154724867 4.164555477129371 12.58814448139401 0.15377408053208355 0.07549144547009579 -0.25710774502542816
Ni 8.636856837257191 7.325446052479415 8.978872200078186 0.3087185272231845 1.0648503992710112 1.244666412392811
Ni 7.285812320552258 0.7318743020397726 13.54379229504592 -0.5860667676652036 -0.06410814333381863 -0.13180811778395365
Ni 2.0262791108740568 6.653471652388171 9.285632719096235 0.8760833476035106 0.14187707198418145 -0.7397734852944615
Ni 0.004249210936798667 4.726404722080158 1.3028046029878788 0.7216767756937508 0.8502105936018068 0.4789821207698589
Ni 6.751277474724542 2.4391548376387346 7.022707352710381 -0.06415185208756048 -0.3593677168386198 -0.010160999693401855
Ni 4.048585716359102 4.437151536582284 0.41766830338112293 -1.251722033688012 0.7999247008630611 0.16024297608587887
Ni 6.2417191857679715 6.317607736992552 4.855027140819339 -0.26428626505173836 -0.455316401721803 0.9849991341703229
Ni 5.538256972846119 2.9078191515792193 9.408732898734874 -0.7820231379922918 -0.03311040940072362 -1.1332566557595516
P 0.21929964864644214 5.896786999449849 12.19512032293884 -1.0945368705918503 0.18580205550190582 0.7990263574185078
P 4.068028162274521 6.39502136499866 12.63850671753039 0.02462936851290597 -1.0024957482931895 -0.19013205033582736
P 2.478322827554766 8.794113257484298 1.0046858813252844 0.7890327365409057 -0.9682779647609002 1.4624506772282684
P 6.851722501790625 8.29997924807265 5.8305895349352 -0.5512545450820249 -0.46680100532263474 -0.7669271628911178
P 4.828484412283329 1.27337518720252 12.741304198362473 0.33108969582953296 -1.8874653426427366 -1.4526894840764466
P 4.160007643373674 6.228888449971277 7.980186171719754 0.6505569769287893 -0.7174534816410225 2.349786457817147
P 5.231543028029184 1.426312078581345 3.7891235816199305 0.049941622025449474 1.4734580840823657 -2.2085359636733704
P 0.43359485372235845 5.534549301149708 3.4920395377977385 0.2945288659863637 0.7013815157798242 -0.8268966014662146
Ni 0.7231932362402436 0.2952795218339876 4.608345514797231 0.4849969595053712 -0.1445052536356479 -0.5111119114248681
Ni 1.808896310230267 6.759971325598886 4.578192829065183 2.183331439383285 1.1107368773904807 0.40464792883265793
Ni 6.173656926769561 6.126790495375513 9.023273851691787 -0.09426358387127637 -0.458183695967269 0.14717585848927559
Ni 8.734790510341714 2.5300201907897057 9.947257601124564 0.293857550950952 -0.8611668355029943 1.6644005461346303
Ni 2.470788765610088 5.1311436619445825 7.043464834892507 0.7008354134683672 0.5279639499852004 -0.6395855655189501
Ni 0.9201600988433994 0.5056058743994103 9.173279308059412 -1.6854337126558456 0.023904574531739477 -1.071970041034928
Ni 1.9181539067225502 1.3130637123074567 11.381899155948021 -0.17648026388034768 1.0196876866914437 -2.3244688049879643
Ni 4.378458910984164 6.978066437553809 1.2842333685991536 0.041277518592548273 0.7609120670452896 0.9374674071379469
Ni 5.815994458814005 8.19947942782879 7.8005622631034335 0.0063238853354987854 0.36437031225953376 -0.010579575288059199
Ni 5.833519143507143 3.3476257252225117 4.898839765771811 -0.07580512005577268 -0.06848107559053368 -0.4952307214182375
Ni 1.01033140507583 7.689135769990713 6.877794008997731 0.7777561351858218 -0.8313482094796651 -0.0017519496941002083
Ni 5.881837594112348 4.9970738881144925 6.911984038712498 -0.48133313750053874 -0.4451518024839753 -0.055600620083439724
Ni 0.9256028878361611 7.965649541654859 11.257930504441577 -0.580723243965103 -1.0148465565490585 0.016683117082635784
Ni 4.862538372273275 0.5814168019554691 10.585091285361047 -0.3762117849791521 -0.36384786409716047 -0.1867399939351429
Ni 8.494960771200931 7.4153525250192445 4.522336663636781 0.6799464858344999 0.8019191055852706 1.7612244345339152
Ni 7.849405814995692 6.488261089186741 7.041419222922073 -1.023133222037883 -0.10418418541909799 -1.2014682797387826
Ni 2.643076780941366 5.405977109490157 2.4906001522558885 -0.15328891336554892 0.006726777200872286 -0.026131664090045317
Ni 2.178375840193597 5.623661272611734 11.524700222657271 3.045045662749317 0.09717304420858748 -0.48703070210594834
Ni 1.564080391911551 3.4316054023658613 3.6277567598397327 -0.6175021033563494 0.5181600765209011 0.40961504302994617
Ni 1.638452998550898 1.1823271901256176 2.4418954097473384 1.2805569556418335 -0.39066986938601106 -0.48490285712966813
Ni 1.4241660124516489 3.269928999131209 8.054848268981702 -0.9547300508731364 1.8810267861062444 0.497729319470375
Ni 4.230289026072153 3.328247204681169 7.323145652232307 -0.026099782410845374 -0.27221271898766664 -0.6987777596083902
Ni 3.932250667736969 7.198627242508809 6.291526184369519 0.14170815050648497 0.5011504293367821 -3.5133070546675618
Ni 8.583981420699994 7.271465640170331 0.37903637338770063 -1.388570027888718 0.8015156994992648 -0.13561437890392128
P 0.6181419293621654 5.6015065643962325 8.094250956342558 -1.2415060123869586 0.15637937936541457 -1.0083468077573279
P 8.867052109305083 2.0162702237330055 7.7256727741537 -1.1673322572870217 -0.8540623632477292 1.2107741305207405
P 2.133034485581077 3.497841222104956 10.35605397580356 0.27209367691129915 -0.9171513212884139 0.24585196960595077
P 4.146007986451017 6.6356456052172454 3.922755923247415 0.01558268492960542 0.07841196155100044 -1.0935768206714263
P 6.88348428051013 4.433169898996974 10.222514782578301 0.5549080826742121 -0.16814860408620075 1.2425280258935698
P 6.255052192360979 7.957028748350886 10.183500213560052 0.02880741114999555 1.5422510344863634 -0.5125861819775496
P 2.7407821491184747 8.958036181007909 5.708038200293986 -0.615366030849953 -0.8061776237513083 -1.3647096763313529
P 7.013700267503064 4.2975385196001685 1.467922931006712 -0.9531123127640554 0.4973135720891951 -0.810221711913695
Ni 2.818880691846827 1.9250121861412817 0.029495167598694038 0.2816422398316827 -0.47084483637470526 1.6089863310303836
Ni 1.7175469506755774 1.3801396941058368 6.663953587297384 -0.3802175637044355 0.24367218834581264 0.6667459279838259
Ni 7.010878418847421 0.9213290199693617 9.20836429301124 -0.25834007477063253 -0.44358702910001674 -1.0988951475605462
Ni 2.9977530207079393 1.9060811432184712 8.878281057871357 1.6555014438727875 -1.3016855100903324 1.3185347204371873
Ni 6.972514062205488 2.2004483586424306 2.307955313104659 -0.9166733532107308 -1.104921042039652 0.2214876818289734
Ni 4.217111266816189 6.920159180837196 10.495286180200107 0.0957288555628932 1.0644516211706958 -0.5140319132851405
Ni 7.584179437954119 6.552149934477614 11.073802596611783 0.27584105976887335 -1.4654084743050118 0.9164915762172281
Ni 7.934956229902053 4.062585373281759 8.42227670765682 0.1464250963661801 1.3744328171563878 -1.686195530522535
Ni 3.1651370466279536 8.362087315085692 12.275436162928 0.11956709563307148 0.5201125722615817 0.37145395857919256
Ni 9.601682508187162 4.879816487666405 10.166458622051005 -1.646070894587507 -0.2409887279763785 -0.24521305047037123
Ni -0.2571398172209509 2.6161002730812686 5.6158002780396385 1.2531903907034223 1.3792595491210697 -0.20491692195448577
Ni 3.983637536297825 2.840788830762323 11.475046644953506 -0.8442878003594686 0.009251857615571164 -0.7846451489961712
Ni 1.0211895864724638 3.8302896960856536 12.652889013477875 0.8419365265184725 -1.3833422038308756 -0.8490849646377958
Ni 3.012675029456551 8.672061453980506 7.9102828619479535 1.0159554733425213 0.2319495005922457 0.48785371222787594
Ni 5.562146798357972 8.440962094499254 3.9041901681764677 0.9870313341090033 -0.716291085901805 -1.2627420389475994
Ni 3.1970997336659837 8.484193911767264 3.1278996030090194 -0.3394226411752606 -0.3556545296530907 0.27033761345214086
Ni 3.7704464137541653 4.729409214661732 9.433726806778983 -0.1018586226097149 -0.9408640915243216 0.19965438800396582
Ni 5.145672986252442 4.803864011067749 11.5549077015671 0.8269711634578919 0.22580662091930145 -0.3896139173176709
Ni 8.245259127863545 8.925406843640229 2.470859083521572 -0.48381142383770226 0.9039224813029658 0.10752379131529224
Ni 4.7932889277563095 0.49619788577467355 1.47268080527723 0.23057601728348676 -0.006848390380401109 0.2204399572907494
Ni 6.3446755668156145 5.8661210842859335 13.371372776087972 -0.23083209915835085 0.7610740465444505 1.354164810935971
Ni 7.940490340857781 8.99853747158324 11.157940260751063 0.21786679724693447 0.8250443787488242 0.6164687769958286
Ni 0.39657201671639347 5.367119614248209 5.801198474374287 0.34548761642241793 -0.8047105522874787 -0.12118431952152034
Ni 7.405389298859676 6.489375217134924 2.848392297398855 -0.3149421395353931 -0.6521222645333801 -3.244075786905723
P 8.949634560415056 2.008818351554996 3.1691999607603023 -0.5312325934341431 -1.2345254673040673 1.6924111724149435
P 2.0616298427381183 3.4981791133679296 1.2598449251695072 0.1676942901576015 0.7604284425406517 0.9417464941292748
P 5.032360694604478 1.184318008918272 7.835754094751934 -0.31506786647998 1.1939277483873632 2.11564406333864
P 8.734525676649113 1.822768116404772 12.15674683410061 -0.5120868737436277 0.39962733568961495 -0.6071297589830899
P 6.522187198428536 8.072715411035961 1.3128938534563401 0.28788642096918166 -0.7568638651178449 0.047005936435893236
P 2.6430311199598826 3.1457767904792044 5.795838788367825 -0.48800206488028214 1.3559998072621808 0.3713984227509088
P 7.618470835047777 4.506190940584428 5.643974930053847 -1.7769930102220817 -0.4154984983939166 0.5652421176103685
P 2.5355451695491364 8.63245511864224 10.00986337283577 1.5800009995416273 0.7201670239174436 1.434115834839317
