# total energy = -340866.24417223316 ev
CRYSTAL
PRIMVEC
9.34742368711822 0.00000000000000 0.00000000000000

0.00000000000000 9.34742368711822 0.00000000000000

0.00000000000000 0.00000000000000 13.68089941816429

PRIMCOORD
 96 1
Ni 8.081502177421642 3.4855702007251392 9.52345166033542 -0.3978008240038374 -0.0319698680383772 -0.6203750540287704
Ni 4.7410881205751725 7.3573946468849085 11.259147674503284 0.3631161281374585 0.4260965856247371 -0.2176523672432832
Ni 6.80924302158174 8.014368979834122 3.680216279806694 1.6597671611276767 -1.1251360835349462 -1.2051521563482728
Ni 8.7413929065902 0.8609743790073542 9.328307363566395 -2.675438527570876 0.4141370992700158 0.44856699881311135
Ni 2.1160791427263135 5.627952993968201 8.468518237894337 0.5304671760230283 0.49609101253600363 0.2711382549765653
Ni 2.1600307293395855 3.757598927568917 5.919698241791003 0.6721802116255199 1.2193659859548096 0.08025904206206824
Ni 2.8983369965980477 1.4312027497939814 7.131511347015554 -1.5703336516551922 1.2401268726512449 0.1358887156112305
Ni 8.703619967095467 6.628716226119783 5.701364856108706 -0.6044681529905267 1.0776462654840988 0.11279146747213478
Ni 3.3889178388405727 5.483507254296807 0.3690951796017954 -0.45357370799908336 0.9591649467160384 0.15704735196671663
Ni 1.645548524491757 9.14096723091124 5.531803523482995 -1.199259959233554 -0.9522605062867214 -0.05433075223208062
Ni 0.8974125063863114 0.6366773369534559 11.057381662728549 0.10132820402754163 -0.09634720587318245 0.7615535572840304
Ni 6.3731670074000375 1.9808780051732795 2.0190136247106736 -1.2508062067419619 0.799986664449248 -0.639779169586995
Ni 4.366546197136807 3.407986583351648 2.8840298297604736 -1.9453110500066109 -0.4192463954721231 0.1659567386412045
Ni -0.19094449926469878 4.496307134049916 2.84237116620042 -0.4251679031628806 -0.6949555576488224 -0.22662011795953227
Ni 8.233210865370049 5.960422162973063 9.557271574313615 0.28611364533947503 1.1701995515324881 0.24307466397112976
Ni 3.3726813637348196 7.725757923204735 1.314115050041713 -1.3730261666168482 0.9579734975110986 0.10897852148394782
Ni 7.946497335767988 2.3713946758515605 3.7834660533951414 1.0759025433201148 -0.29681791913085653 -0.16330773105413166
Ni 3.9395839211405446 2.3240780166775106 11.709714065028647 -0.31084945752325815 -0.37297733720225446 -0.6290214168498587
Ni 4.9770544864759465 0.6292919374249263 6.535585038773119 -1.8626986772210177 -2.054091853657456 0.49155661500075987
Ni 0.42293073211997456 2.2883989001094847 6.47021756953763 -0.364620737707443 -0.8424355776420781 -0.31320510223962833
Ni 7.4363616829778305 0.6323859346960861 13.591714086715358 0.6081571718063397 0.9277918317213956 0.3294778712577229
Ni 6.076264785877843 0.7941131914518302 11.008445095013437 -0.74715666513241 0.4159116746719353 0.24787439935261824
Ni 2.450314974825583 8.42374875170032 9.38545283884505 -1.7179162586645835 -0.29724395092468164 3.8754757312900865
Ni 2.2358944207375684 3.783902578085664 13.114524363779973 -0.4580266015641144 0.1872542145674001 -2.3642350291423093
P 7.8509666647370135 5.9340437330660745 3.8322801698587377 -0.6228965348990433 1.199036273258522 -0.7389070235291081
P 0.9190330975893097 0.5794122146504171 8.051373561094143 2.5251449493882254 -0.47899934716103953 -1.3561730996152515
P 1.7224030428104133 6.80917758961528 0.04586687374578144 -1.1403629277870295 0.1834672367211421 0.07810600027480742
P 4.410871680701276 5.921789260490575 9.62250163641954 -3.4224884919220924 1.3505968910790547 1.9317255980126924
P 1.095555456703941 6.617452580464957 10.229057834984522 0.6306185861336494 0.18129619721175227 -1.3383962352478045
P 3.9220855438244993 0.18669609515671662 10.943474891288593 -0.48794010129409515 -0.5050523354943496 0.3517909329326264
P 6.167542379088944 3.31764373251854 11.204096022151333 -0.3126204333807519 -1.0960682196347122 -1.0378360754656966
P 7.783665213521454 0.34149504140677023 4.613377073697003 0.49933137385017234 0.2333175845843659 0.05145574467713074
Ni 4.7168969878326905 9.14100462060636 8.877576458382505 1.2080785859664485 0.3897108479068514 0.9698501943440264
Ni 2.3955110292038024 8.273778684574983 12.157107005180722 0.5271630513504598 -0.40492355109154776 -0.40723651549544054
Ni 6.361847277202531 4.354142165780828 3.083838490995688 1.8118643681779696 0.529140743902121 0.8212574009025662
Ni 5.525215459202895 6.909260456027084 8.186759777638022 -0.48127657323099055 1.434452906463762 -0.50700483123503
Ni 6.708253455063282 5.397828767929888 7.0054959228110665 0.7785338938921108 -0.9928697951676515 -0.5269563346562924
Ni 9.078816210198427 5.157740188142162 7.683097215815471 1.0067714928504081 -0.5649076170890852 -1.2689965044977436
Ni 0.31726464948441296 5.043449237584851 0.41116980352005567 -0.9019216488228531 0.5527203309942739 -0.20826449827048005
Ni 5.384676942671515 4.271866141669808 0.7844133697953878 1.4553829717482096 -0.8158573129329174 1.7046722491704835
Ni 5.747805661674575 2.1338766376033167 13.115632033497894 0.11335968127077894 0.8158611695876594 0.8079671115515634
Ni 5.616670653465815 6.203520613217928 4.940720115500946 0.7327001233874477 -1.3122748555704047 -0.4104681350588608
Ni 6.883526998360913 8.125603322815394 10.077227630526977 0.37067517143163903 -0.9136484503414781 -0.9208938190499818
Ni 1.6662437207405414 3.197940623592644 1.6331304720001083 0.17550710133380096 -1.0594425979918787 1.3046733890740627
Ni 5.062209517111188 2.2525421824896394 9.11392793814301 0.1352467111518574 0.24426842716891478 1.2054018104652338
Ni 5.022286670147069 0.9720572937233902 4.04834213156251 1.0931099083373368 -0.2678881234703838 -0.41962280497493537
Ni 0.09719638194855908 2.6242892262178033 13.239553634775676 0.9711056640176823 0.38916525981602657 0.7983876953932444
Ni 4.612093672412017 7.897554224856227 3.8159446120609166 -1.3328318537861499 0.31518742277697975 -0.24894783492245515
Ni 2.8278948109924293 5.938493106785326 11.468328997562644 -0.3465029450608097 0.6870666418190489 0.6260312238732831
Ni 3.66703173856509 5.90416001924161 6.5729607127572045 -0.23626663991036084 -0.3252635760660592 -0.37929016679415967
Ni 8.395930818531223 0.060101130677872164 6.9460388296316316 0.031361030809784696 0.01702070292771262 -0.4103676049252546
Ni 8.14276519287536 1.9859162665906667 11.491518086475915 -0.33190653530387354 -0.3727881040095838 -0.9626439064035742
Ni 5.564736366944476 6.745278600655619 13.781043351150883 -0.9789033056852302 -1.1928926222546297 -0.7103243267954089
Ni 6.519547663793879 8.135857446701987 5.977691528406498 1.0736122046240415 0.2550107532870834 1.181928667043958
Ni 1.1073519055142236 3.41067864140027 8.692830235826284 -0.3450003923733542 -0.9168564157558144 0.2709605917481204
Ni 4.6549235681716965 8.738261519623919 13.36845554344341 -0.25121734768292214 2.095522867108733 -1.401699880402457
P 1.4689196047460344 6.412734652260518 5.8025890429640405 1.3578142347631001 -0.15136110021521673 -0.06206540187217698
P 4.785273392782943 4.246674834582873 4.845925086721453 -0.012593006173662184 -1.0940128797675803 0.8824031191739512
P 3.218888200283487 3.3559588225925086 7.966661598346072 0.3908030525297656 1.2350769689321632 0.6381148945106946
P 5.812536571350651 9.197593924170109 1.3926063022642363 0.4914699688242245 0.2902922021971968 0.6123421564219648
P 6.550983049965812 0.9678135633272981 8.129970439205382 0.2603460494570678 -0.2972056414875785 0.10251862479121698
P 7.948852886560532 9.069580955503849 11.695308750241383 0.7141868950746088 1.1857148735592675 -0.6761492235755968
P 2.9508882130888634 8.88921306624615 3.1571409882779675 -2.538547853057693 0.8334799111106872 0.7041745051439292
P 0.16220584485327708 1.1403763537287472 1.002284992742956 0.29843591435025374 -1.62482664049675 1.0130786660153586
Ni 6.590055281365956 1.7907514054893254 5.779085880611762 4.268687136151028 0.210843828961882 -1.3526692002270508
Ni 5.244615144752913 2.920359527023583 6.942632628406221 -1.9428476760677829 3.38886000523437 0.16367437036493102
Ni 9.184769258744033 7.583368616764926 1.4788774152988031 1.7175771301576095 -0.2249069919231675 0.03660556703817566
Ni 2.9017768485490647 1.5548130818598915 4.78326650089739 -0.04698459627965457 0.6478164380691747 -1.105425492479896
Ni 0.6800166673091419 7.443615283831063 7.659101444229991 0.2679940529206288 0.842713256783497 0.27140642103628737
Ni 2.3111131398947355 0.9699728182204639 13.270486129548251 -1.0434302817240222 0.41541648020307165 0.7219218018250212
Ni 7.708904518129505 4.041611051698576 12.636677516952858 -1.1534017632488587 1.1440650592289654 0.6984298893506681
Ni 8.158496907096998 4.325305363419717 5.26785751398173 0.3423333870641524 -0.8161208510069494 -1.1447410022500673
Ni 2.7700436052183885 1.6764324126606747 9.62187255479915 -0.9667553574687866 -0.7655642211053203 0.10945057602435988
Ni 1.764559924057937 5.645142906299508 2.2038561257318285 0.09679354938198169 0.919450401735236 -0.8862276351263642
Ni 3.640017683841067 1.3149114505477635 2.1257518568537943 -0.03128132661178483 -0.4615297296213664 -1.0627289820526342
Ni 0.7694518832932179 7.388343967020285 3.6886850457513183 0.39250537993285306 -0.09924226803279038 0.6943780878787977
Ni 3.0040563595491547 8.582299753855642 7.40014882851197 0.512119526753776 -1.8226889695972994 -2.847540716988186
Ni 3.1254326573316598 5.395613428494044 3.974014221891571 -0.23727425523926882 0.21954392783904125 1.7295579566685695
Ni 7.141235471973824 6.350069523239809 1.6446904309887584 0.5761222548579821 -1.0121666957240505 1.388159679824177
Ni 0.8809255203232553 0.5275134483394412 3.13600459362677 0.06293006386531742 0.6001255597511148 -0.20977039339204517
Ni 0.623088987004559 4.850490368495576 11.546856704737909 -1.2350569143275052 -0.12552794120219674 -0.2634907657336365
Ni 4.754165166443307 4.737433277877216 12.45391481772274 0.814400782992049 -0.3614351408906098 -3.302126668301868
Ni 3.0576638349271033 4.075336556696595 10.216075198096567 0.27259941290312406 -0.6886848941487623 -0.72571006522286
Ni 4.571030439746746 6.130451801530148 2.2553099546708792 1.555763210040185 -1.69603154277635 0.9301348780322755
Ni 7.8161755534280815 0.17361063660718035 2.2313272694786903 1.357911422462597 0.182751184490724 0.10801847156352365
Ni 5.734345371431464 4.579284214944432 9.132438641454424 2.1598050741265706 -2.033986598267149 -0.08207886887962638
Ni 7.684161887384006 7.69898690149899 13.469844244957272 -0.6841610381364798 -0.7000964784198137 -0.619912512570055
Ni 0.033924605124531694 7.478499869377794 11.88146456430362 0.5723640733671305 -0.7170999549563456 -0.14465412050868634
P 3.6181634070435704 2.534198755826754 0.26489664249968414 2.043228942801023 0.1359769044496626 1.3109013722616456
P 4.41794768050269 7.872736814720491 5.94641691792358 -0.39940724925900895 -0.3737563814601241 0.3165033133749259
P 7.760277959224047 7.338120259050674 7.713578230019474 -0.33884568562586803 -0.5466810667787294 0.4538436738310184
P 7.988476615963692 3.397283783123618 7.127652730479195 -0.9731306648675112 -0.6028429586822779 1.5253917968371793
P 1.3980287427989788 2.936736213486036 3.995014144155581 -1.0368418298732274 0.4297889468746598 -0.644274229243871
P 7.676487652460676 3.589392036648919 1.244507589379643 0.10584203273749512 0.7429696236342559 -0.04649171580363606
P 7.400168458101908 5.915844298966534 11.435562538244445 -0.340759100598497 0.7580573712053138 1.7113602027136203
P 1.2239797120165194 2.8074146054905835 11.203698756640687 0.46127570462903145 -0.7285457348994421 -0.7924535892969965
