# total energy = -381175.1826906002 ev
CRYSTAL
PRIMVEC
9.18661089558489 0.00000000000000 0.00000000000000

0.00000000000000 9.18661089558489 0.00000000000000

0.00000000000000 0.00000000000000 13.44553364255044

PRIMCOORD
 96 1
Ni 7.381350120388702 6.179631154442284 4.025081482685396 -1.485333752474029 -1.459726593428886 -0.21358128249770314
Ni 5.667358161918127 4.805369259571872 12.532272836311504 -0.9472342567167236 1.3292348804635108 0.009045140921403778
Ni 4.449130855897361 4.766537454622361 3.02942647075885 0.8652862569880067 0.569804025949438 1.4961012754031782
Ni 2.1893531477567056 4.071799993229692 2.8620565225225936 -0.9822765930328374 1.2785072722016564 -1.3136858769853184
Ni 2.6816728210591125 1.110018214348115 9.397541161635987 -0.28815715813206505 0.8991656833442708 -0.21780303388853456
Ni 0.6299121404496294 6.69407218717654 9.477528065472017 -0.7929855505410666 0.6007747632993395 -0.7715980860042261
Ni 3.3655884546234107 5.048391868546175 6.765093877279372 0.9876190882916733 0.30196501054943475 0.9214013548140195
Ni 4.421084132331981 0.9824529331725962 11.247726466389384 0.2097526527802323 2.354689551545719 -0.5864984558859835
Ni 8.554746764437947 7.159870114349483 11.74769950536566 0.5422346009716017 -0.8625431470252307 -0.17916552402199468
Ni 8.002429334304393 4.465528956638993 0.23287415973661071 -0.9626742454208777 -0.11231015696034206 -0.6553459136770003
Ni 6.216717503290446 3.8468841946541317 8.07790193746567 -0.14212441210829715 -0.056231311688903156 -0.4902083285029815
Ni 6.154276107917409 6.953777681835327 1.9242036673839182 0.6739113353840135 -0.22331187952190576 3.3669984292745885
Ni 1.3067770500255786 2.9760945189126486 10.605688918002008 -0.3719147002656949 -2.698756119250894 -0.15987916498855692
Ni 8.041959321694444 4.673219859477545 6.018543929509783 -0.5596751650455523 0.5493578422799442 -1.880606410739374
Ni 7.244295069988474 3.662793695628047 3.7653410789045814 -0.029546089088232988 0.42386718207358615 -0.6920939198303113
Ni 6.067536126291364 2.266318575215189 12.648980461875519 1.581242328147896 2.3813133247808342 -0.3541265230443385
Ni 3.0992961598347915 0.22970937222653104 7.140156565676392 1.5010984715074536 1.3860734867191096 0.43431974486547786
Ni 7.302492251051913 0.12614135646125935 2.363496384327307 -0.8909857186366396 -0.6064813267658136 0.18924244864202244
Ni 0.357825850065634 2.7263013775873186 13.053126123565457 0.11425622494311935 -0.4573365174756253 -0.4399867133432681
Ni 6.233437135419169 1.4491970812846933 4.606762996410295 -0.14975698895289047 0.014254710146801257 0.28428096300611044
Ni 2.315760915938698 4.6419945684854955 0.21775575391560023 -1.2987444251841376 -0.9297623251842052 -0.3742672596582716
Ni 2.9886342430091903 6.193346764754473 9.225142462505628 -1.413064927706289 -0.28347286528251825 0.8568268133667438
Ni 1.8408131241502546 8.536897179148877 4.464414620717447 -0.1043505357936332 0.7403329573423573 -1.980180093969654
Ni 2.7024070022209408 9.316234141790671 2.312605315039677 -0.1258534428624155 -0.1356233777649858 -0.8808149487512249
P 2.398192376977724 8.142470033299036 8.689230482402555 -0.5821419786895007 -0.06020777983814792 0.5073082214080618
Ni 6.817181961988086 8.031468211864224 8.44647061050456 1.1829776771337628 -0.19828321868805207 0.8498542387036525
P 6.302933848086085 4.610934636492522 1.8136951669630146 1.2310524211538025 0.3638519778622185 0.24217529208531197
Ni 1.588346679006541 1.989654596540126 3.359353501697166 -0.4988117539012764 -1.2395743425818846 1.2032600815318826
P 8.406860699598289 6.461981645363324 7.574957948472675 0.008083291228766725 0.5712507856982937 1.0911026480993207
P 0.8098420233267594 1.9387975177134178 8.595258800550285 0.00797299090314756 0.974822193637321 -0.21238057732138263
P 4.166918164142217 6.024395800754836 11.377717931545781 0.39903726751409985 1.0791773574166446 -0.2729375129688332
Ni 7.896498522174557 0.011446517380433263 6.380268577309169 -1.14450703186239 0.8839264977970133 0.2595343521890498
Ni 4.119267212575357 8.1129075189088 12.06345435142212 -1.500637729820951 -1.4228474610143496 0.6425050531585902
Ni 0.366231599185294 8.894458454815991 7.995399739521482 0.5421723802750985 -0.4746341282138084 0.8139960913544626
Ni 5.642866656832867 3.3162655398436782 10.481856156900061 -0.37936447167552084 -0.12872999307926217 -0.264409420893164
Ni 1.8926623569714147 6.173421005365902 11.797460621492942 0.5949026207892787 0.8444078708771007 -0.72931758006846
Ni 8.228263793985928 2.31988570430452 5.5788341404242825 -0.09813746500438582 -0.726168235806201 1.130422785855182
Ni 0.147628839729986 4.887323016835793 10.878956606568286 -0.29687216940755967 -0.6132777808623567 0.7424230071021666
Ni 8.825963082754585 7.3145910178175875 5.504279279707874 0.15449707474103713 1.076585171209436 1.317278479432583
Ni 2.6380180453032387 5.983175476929793 4.568994082360396 1.7282317816579786 0.8031370371527717 0.23700866028270792
Ni 9.081993932989478 7.719408220775992 3.1425173275486458 -0.17098427376278297 -1.1153154979000985 -1.4563180819679693
Ni 1.2257511404786912 1.0413666698986945 6.223319001997973 -1.1713282658202924 -0.10477451070492924 -1.0275974284568237
Ni 0.4997883880939737 5.659090211964363 4.351821678247089 0.012468050560023688 -1.44916141631853 -0.915945473905771
Ni 5.138521709653262 6.058643486785538 9.00755298625021 1.9637592294094695 -0.46519380873651495 0.18889714948746175
Ni 8.741455447616058 2.7947875630376635 1.9974549479909491 -0.0837400586321332 0.9389614751849701 0.3427553050929194
Ni 7.847552258448275 1.6231731215340073 8.325124665016483 0.14320607520825013 -0.21549186925685468 0.7909363813215217
Ni 0.24705828721284578 0.7091567661120334 1.656180615071645 2.0596498073612075 -1.1837994017041098 1.1900870344850343
Ni 0.11311657930076312 0.23425766336220719 12.925931062815645 -0.11821778069402865 0.98802840791495 -3.3836398944860107
Ni 8.731800319392274 5.308078989982843 2.215662683170689 -0.9236484989769834 -0.15807476478996646 0.11957866559729728
Ni 3.4280298499964483 2.6126170657230636 7.2458926216517625 -0.13144919178263814 0.5042871751935508 -0.498175148758542
Ni 1.7543946739113014 8.79671291314038 10.794787038716755 -0.6469522902966665 -2.2076435337660882 -0.16792877476591078
Ni 4.92423482007382 9.510163501261736 3.0964391237952134 0.6815336278159617 -1.6925518117578657 -1.2107383921867987
Ni 2.360619137743397 2.2557815323296695 1.070602140935204 -0.23573107912186497 0.5068796185110754 -0.2768227069558523
Ni 3.413643617076899 1.3749141442556534 4.955459192404762 -0.04261012136104274 0.19309961760458355 0.1585992698348688
Ni 7.272516339163988 5.403169601062189 9.840315604171016 0.23780158849764854 0.32739219237328776 -0.15231806481184734
Ni 5.416278895044434 9.330473388933266 7.052922344375335 0.39490061963790696 -1.2054151802016724 -1.0737181340742863
P 4.189526413960231 3.982395894396324 8.871215410173749 -0.7269097419579158 -0.18764322247570264 -0.7731777717865201
Ni 4.626138477796388 1.1583949081886942 0.4862372181197545 -2.0858742882753756 -1.6856373440262193 1.049578303603289
P 7.661008934269239 1.1559696428689232 0.46361243240183236 -0.9648977354347575 0.8900876323024026 0.052191080181258495
Ni 8.803657991101543 0.4008568549305517 4.174542132660693 0.19206706257501113 1.6175640453970659 0.8660501317372244
P 7.374166190539987 4.1161529514261055 11.637432612815628 1.7846849795497004 -0.7755902378827546 -1.350468078810674
P 0.38853485351612543 6.018764408175217 0.006245058198409737 1.0752736514868644 -0.6038400324882245 0.5077262827820869
P 5.207118134436325 5.942368550602437 5.009120024926903 -0.7338051835261684 0.03934893411126772 -0.46716533064058896
Ni 8.25652180960568 2.3125639752899088 10.645313527485975 -1.1091703042343093 0.05319072509036646 0.20375092667084263
Ni 3.729699783976117 7.20733733369515 2.8953478823419774 0.2754533374121514 1.08719765661796 1.5507156203139485
Ni 1.142143793224018 3.314556830186567 6.501251651660386 0.04823929462236208 0.0019134149726289628 -0.806808829577404
Ni 2.368335891033577 0.9175302341523235 12.441031415266188 0.23283113186625062 1.5103865816775988 1.0071149922327558
Ni 8.5458816847653 4.259454897346955 8.083131875141978 1.1039800182826214 -0.4879375301909339 2.347527743689957
Ni 3.1227587644813615 3.759510336864966 4.941529534054881 0.04764331290957602 -1.3999150205878923 -0.16454288901281341
Ni 4.34019602195099 8.466996255595333 5.071117706985755 -0.421485569215287 -1.7478971212973897 0.152167398166596
Ni 4.092442308280923 7.284256828098333 7.22740456689404 1.597493757009752 -0.40263321239547434 0.5577257546286652
Ni 6.000336066389383 7.0818757864523105 13.313848576068557 -0.08694673849488897 -0.5177551277729987 -2.5301604003249456
Ni 4.093066997832985 2.3472526186514786 2.8633206002044136 -1.6668145548927613 1.1047341228398266 0.47031133246873846
Ni 6.174955169412878 9.203330691866494 12.483116199191954 2.1217951705417004 -0.3637020825479156 0.7072508300764078
Ni 1.0391526966332978 5.669030125130999 6.752319894600808 -0.3006565761506564 -0.16701063382701561 0.09941556038586105
Ni 3.080959684159555 4.178236068967814 10.775264571553707 1.6079370638302632 0.8564092662133509 0.5461028256777563
Ni 1.8230829648049607 4.211362988449228 8.493395819797701 0.5041902446043705 -0.6118724158743978 1.5127969908913044
Ni 2.111469059192249 7.600239502109074 6.367388029942311 -1.7367200216346474 -1.0636926315174842 0.4733326357935654
Ni 4.633726618531732 8.662083128059924 9.464580455844422 -0.6978426493886304 -2.026185099944859 -0.28709374986455716
Ni 6.646595781219815 8.195311420114647 4.555938070722296 -0.3013518024454681 0.9044811820199131 -0.047819176365807965
Ni 6.325946308790728 7.375250210645036 10.85928531630607 -0.6666112021781746 -0.4048325340396382 -0.15934797507543524
Ni 6.130675704104942 2.2282400723725755 1.962927070322925 2.136266110464366 0.26867179571394373 0.06635040240077605
Ni 5.6828100417206056 3.6906842468054104 5.599016206261419 -0.6479712184794841 0.479358016052039 -0.09285024846351751
Ni 6.419282277157664 6.447044215780192 6.739305222712478 -0.5499602517506335 -0.09805159015879887 -0.4725155392089088
Ni 8.57041912290586 8.956670184912534 10.325054486026927 0.520658931683355 0.05604490670970993 -0.31169226513952775
Ni 8.400604617466607 7.71247232942589 0.5537073643868926 -1.0969657917483173 -0.6500052181903773 2.103406126511552
Ni 4.5742800583641685 3.6973720996568997 0.8023595286186029 -0.8823123592323577 -0.7984956817260184 0.6786719899974505
Ni 1.5549441611933346 6.373477834413811 2.0607295689871052 1.0051267581581336 0.4515466502667256 -0.26811592321047373
P 4.183095786218415 8.116701589276472 0.9155275529413005 -0.03594376508446068 0.9997837486786653 0.2142978489487535
Ni 4.924620657738329 1.5914609401557922 8.828418663890853 1.4414414219664529 1.7986355281925217 0.04982180861813355
P 6.6237211196810675 0.44983067849001374 10.402392889894434 -1.2905158666267582 0.6587816788314268 -0.7537466596451019
Ni 3.944032606610859 5.9864367238559995 1.064960643083419 0.23648672634096693 -0.09592168829998964 -1.617594898635001
P 0.2901572729996056 3.4890013875999277 4.341576769593269 0.2532153519495574 0.3588992618426335 -0.8068797920246555
P 3.7028656930706227 2.832369988883051 12.447915861594357 -0.5804203680127036 -0.68629685353256 0.12523714943465528
P 6.316805630786289 1.9532756167435645 6.907682942181986 -0.09019301334632855 1.4436404865003007 -1.4747436356630086
Ni 1.7286170432776773 7.916580453951143 0.07776374395957425 1.2407490796162761 -0.20420832592323543 0.4893292683321379
