# total energy = -340875.0699614566 ev
CRYSTAL
PRIMVEC
9.19361537088107 0.00000000000000 0.00000000000000
0.00000000000000 9.19361537088107 0.00000000000000
0.00000000000000 0.00000000000000 13.45578540016487
PRIMCOORD
 96 1
Ni 2.520999624732151 6.234962764209258 10.825986685489715 0.28853048231108375 1.2975174947555719 0.9438776815396648
Ni 2.164747033823034 5.221706846741735 4.983578421362831 0.14137056466140815 0.4695065771792559 -1.6947968990383007
Ni 0.7082935866725449 6.652141443375271 6.8304387400734665 -0.4443071950954928 -0.04707715599346086 -1.2498515561381764
Ni 2.197329206266438 6.314239308503692 8.61294007459313 -0.3313362646227003 -0.8998922770976502 -0.49417991155621993
Ni 8.718608730183634 6.46450894975297 11.374457545307466 1.6706526976919291 0.48799023780574025 -0.03796336661765075
Ni 0.2493345230062354 9.08353090027281 2.322966394178353 1.516285206550221 -0.633229027173303 0.532278003979522
Ni 3.654590772197337 8.216949920492102 9.587758406064989 -0.612392550043926 0.18717682436224536 0.9726598958786798
Ni 4.03023269766716 6.071160121313059 1.8741616785548598 -1.333523994757168 -1.1341007489274018 0.5310181634304919
Ni 9.03196391233967 0.24954689551849352 9.547000351580412 0.11330800209723711 -0.9529626745600687 0.7659820253690292
Ni 3.8760741571674417 5.17281520084613 12.568254920955532 1.8142814622598948 1.3873520963212171 0.4314146554035409
Ni 9.044476422693924 6.890816888861506 4.5358916493536485 1.2699120743334775 -0.11937657688882022 -0.6293368912077484
Ni 5.352237796050836 8.871149194399482 4.677284855079759 -0.6457353871704298 -0.028324300865989933 0.11621437711075468
Ni 7.42672191535656 3.039252909948612 0.9803657589132688 0.1027713642319714 1.0411857086642196 0.25225530202913327
Ni 3.584066549620206 7.591554243160678 -0.18921563416822512 0.04489686051269042 -0.5579617818988714 4.08166534930941
Ni 3.0961889691873257 2.2618959661620437 2.010468976325075 0.6352218892336157 1.622656886538941 0.8827409621293443
Ni 1.5137287507919006 6.590222444671454 2.481852291639245 -0.04027093170490484 -0.8293121528862427 1.4211042530709976
Ni 1.6410970964552531 8.607172919747264 8.22179403636694 -0.4968006370085186 0.18313247908954267 -0.4636835427395756
Ni 8.126824910203533 5.309616195755231 13.535981297624108 -1.3492329208519924 1.159378549657584 -0.22168025745575368
Ni 7.913202066271553 0.6025909147056164 0.639609925868317 2.280992221861568 -0.9514678351820969 -0.35896996717956886
Ni 5.923106141338854 3.329495343367988 8.693809872410261 0.2550650035637866 0.2906953511728865 1.5373183730714362
Ni 3.431737538555092 4.4682257217575145 7.279485247778016 -0.1993923925918308 0.0784078477859424 0.37376100944581436
Ni 5.091626384579849 2.2640656593608712 6.873806861927311 -0.5073272475714553 -0.39589023724468597 -0.5994874119464837
Ni 4.749256152697125 1.3672468790253207 9.336525401509782 0.715541095109658 -0.016700857694448658 -1.1363664050331268
Ni 0.7011997931462102 1.4357485062476134 11.70275235224356 -0.5351666383812267 0.7862294627641555 0.032721401492421066
P 3.6961459131240266 3.3680165912624185 9.22571659563341 0.6023595912879561 0.20364756832375894 -1.478953045758666
P 0.2123660767274057 2.4071550871004708 0.22071112128916587 0.2776724565506573 -1.0539430083298882 0.376267577917752
P 6.228214650616295 1.3457154321115363 1.5132644732218128 -0.3919839602117443 1.0734610237581577 -1.2955691127799496
P 2.202790213724503 5.7619328724039445 0.5463048440650257 1.1402747389485974 1.3009871984717272 0.8123942940849814
P 1.3212512219332355 7.99018020675367 10.434974874046167 -1.1156379142365236 0.5895673246192943 -0.5760446075425111
P 6.606899662733626 6.462238126786401 8.947289796532392 -0.6891577200201228 -0.2651781807383885 0.3622905469123696
P 6.700895185042136 1.4616561140200492 10.410593406405109 0.9722168948039902 1.8498809566310594 0.516444379381375
P 0.06552289588152976 4.543153686039045 10.310710292890967 1.290026071474533 0.9215689907401354 -0.4310991810456511
Ni 7.20267351173191 6.852810483421035 6.665820623504657 1.5938057666352035 1.6130967536543317 1.8974412229085258
Ni 1.2107715474827874 7.818967509966559 0.4696190605478353 -0.8154575063913376 -0.055958517643490725 -0.5764966074782651
Ni 7.21434940309848 1.144540743227064 5.746387388378959 0.07935967017625042 -0.02666516799601214 -0.8088430863986135
Ni 2.3314272782922543 8.994702189734388 12.115104383403711 -1.79144183865756 0.5639048868561837 -0.6038636866373084
Ni 4.7075723011569455 4.6770403049141285 4.962319105460425 -0.1479361336940678 -0.2254664639710633 -0.6996128539151758
Ni 4.350988740098855 6.722858731872638 7.959998487251849 1.6251999646757689 0.3081215170691339 -1.0744321294221755
Ni 5.055964351027939 8.947502169044649 2.1368867021716533 -1.1560533419390928 -2.299559700451111 0.4617680708844177
Ni 0.8886520919096258 2.2033234434089604 2.5777113597587826 -1.9869847755963135 -0.03021329035858668 -0.4190093397606526
Ni 2.961879444010776 7.654732767153644 6.251517707188614 0.01377828473101498 0.6782318171362384 0.42798506089670163
Ni 7.499884705510231 8.801774173728509 3.5477388983242504 -1.2231912732381707 -0.47024371245559665 0.10749602340115036
Ni 7.497558720852166 2.857964010848305 3.7427538649917134 0.5422862801451435 1.0502488473077525 -0.2970356915686174
Ni 6.348981980530675 1.5802445571203514 12.617355261917295 0.3371469577672065 2.0285811109808614 -1.206821830741212
Ni 8.553546561998285 2.7082459865139827 9.537124570079648 -0.9688636620610411 -0.29385960783348103 1.159031193620494
Ni 4.751012133209735 5.5548926569904395 9.949382826364253 -0.12408555232871535 -0.45395063172252786 0.5497267955835887
Ni 8.113043680944882 8.953569955109167 11.69419401580802 -0.536160883973696 0.27493680278704913 0.048281974934839426
Ni 8.872500655841124 6.72157162573774 8.991034856611456 0.2991185422395752 1.4002022128110079 0.7651806125136563
Ni 6.454809685664992 8.702657807726156 9.81078815712002 -0.4406819396380798 -1.2407297963425665 -1.1303705924610081
Ni 7.311240914210511 1.1872266988294131 8.15572595910113 -0.4586706629060165 0.311698950007747 -0.01843223856325858
Ni 5.933586862723018 6.381251570055603 0.7532209456726655 1.0038216661934647 0.19536733059283773 -2.065435046584417
Ni 6.179102357954709 4.86994993368951 2.65236443494436 0.7017003325718237 -0.18684566627507176 0.771238388671962
Ni 1.4016034192118338 3.726907749748076 8.576583003728375 0.44161782118878784 0.49853356053922526 0.964542666088184
Ni 6.55789769345503 6.940646283512536 11.300034310503122 -1.759700541690221 -0.5804535352434842 0.8585710497513601
Ni 2.5953391976377285 2.2831148301573534 6.6502797362872945 0.13739923871848594 -0.7053363866625143 1.7009870870094124
Ni 0.6537956741979368 4.264927307750462 1.2435660924384495 -0.23896269868528522 0.5375577643212226 1.6687660221921776
P 7.126725056157712 3.096740586102282 6.82877101826725 0.4075797577674723 -0.04985214763543673 -0.1484657809452927
P 6.0855297419476635 7.193461509252145 2.7318340451590286 -0.9533054026114679 -0.36182209191638337 -0.4421217574083999
P 3.4310388237961478 4.146761770951626 3.2740881823452272 0.7783788563714853 0.8407031683320039 -0.9957905683588723
P 8.837748790198894 4.913251861513559 3.1547219593948372 -0.9705899007235284 0.05005166524075251 0.5909559774367048
P 1.8401848346781418 7.893840312556595 4.363886462932053 -0.9997917190984651 -0.7664941891187573 0.18428870418117294
P 8.77328316007103 1.1419941118030168 4.1561686780746765 1.1276858465399935 -0.08606536433120017 -0.9278293698275504
P 3.5394131603545134 0.2856621743021912 7.814191426844565 0.4087372684106832 0.6264621407631147 -1.0129303133629524
P 8.646061912251666 8.687304470259878 7.234395161787982 0.36031079747817946 0.37803623978240053 0.36929217504118333
Ni 0.2298017680476416 2.457085611519243 5.649236617316898 -0.39140597622108725 2.302827572569105 0.02925221199689801
Ni 2.6438079372318666 3.908867782761579 10.913449224802095 -0.7659388308359195 -0.43322959712509257 0.11234486685301942
Ni 2.3694428773479754 2.627792659467643 4.42911975993323 -0.2663678301711155 1.0060680390254804 -0.7826517727152263
Ni 7.041527823642749 4.639796969539345 10.241547644732252 0.25734017275120835 0.7521289215360207 1.4662458826046425
Ni 4.24610797733521 1.0266418212704571 0.4034434179836075 -1.1692312740819477 0.5257384030887913 -1.4265315947341561
Ni 8.289855289418794 4.55614426438626 5.665249136996547 0.136471584697894 1.0517241463016984 -1.3494370664429984
Ni 6.818922817612234 6.4301156351054605 4.5108362897148195 -1.2545726157629298 -1.0281003362351713 -0.4193446116128843
Ni 1.0777307412106367 5.073092056237325 12.387315379234698 -0.5273265735115177 -0.18616560948891164 -0.6374708331687925
Ni 5.877331131012751 8.673072753854013 13.146450577597216 0.5998391388589477 -2.3250609300460083 0.023179009219624597
Ni 0.4756859272508269 1.685971132486928 7.789446811401162 0.4556820125913378 -0.7326466444416931 -0.12779719685234764
Ni 4.928614392595085 3.643227463749243 1.0478570078196667 -0.1748625257712666 -0.3078371530594956 -0.3330933565231231
Ni 3.6902711929797447 6.814712141828069 4.106773222063412 1.438420375751942 0.67767517330182 -0.39206469285100864
Ni 1.1865095968399704 0.4712316206625568 5.790939647876909 0.4177978359510547 -2.7501977228606376 -0.39466767769149447
Ni 7.920989058387682 4.888723296028513 7.979616742832261 0.8121652087933108 -1.208333896510364 0.3541666322536546
Ni 5.726463904772271 4.969047912461364 7.013720814959814 0.5107473289965978 0.349190776305618 -0.32930766422844576
Ni 8.459403941845787 3.5270661350747474 12.092740914309866 -1.4093885072959664 -1.0096300453451257 -0.6241682025226154
Ni 4.35556716049299 0.4811873866159886 11.425697240537735 1.7607806621282773 1.094003880906516 0.5343461993624604
Ni 2.5395891147661698 3.568740792999677 0.013241564043520039 -0.09061518848541168 -0.6577136425782286 1.3682683402168887
Ni 8.180396106261014 6.811218568033348 2.0836556698783943 0.3095083701143315 0.16622721869377177 -0.21928193242690622
Ni 5.107117626274864 3.322462227702298 11.358485477534915 -0.19666342369644194 -0.7686971103073471 -0.8227486407361121
Ni 5.711892024602181 9.031936331493922 7.163348741864693 -1.458197301268553 -1.2045857423218416 0.0001339544747029951
Ni 5.3139004204613896 1.7366739205866386 3.3099616690478695 -0.4270512362285226 1.7820642540974019 1.4396797020803398
Ni 2.4870843780776033 1.451202973481632 9.943717720647655 -1.156385528467531 0.009862494616376562 -0.20327501547568863
Ni 2.9468203022324757 0.3998036657064225 3.6657867568478957 0.05196867975780727 -0.5782498427239461 -0.4573455163366898
P 4.104489528035494 1.5719427225502627 5.15795188307264 0.3818327307103553 -0.40185905323361115 -0.2531880982560478
P 1.2193399968951046 4.501157251580391 6.604045964560253 -1.1361874562531014 -1.2187939155014236 1.237258035743882
P 5.1782578210736965 7.06761930372017 5.92020923317381 -0.9818230504351866 -0.7922263037775388 -0.13805281314208484
P 8.081858938019366 7.553805258947186 13.319599449755822 -0.5435993425296122 -0.24834285434860456 0.6654876300966927
P 6.1362968853541195 4.519590450155173 12.789548917451501 0.680224679196551 -0.2298080287692107 0.6606339015488171
P 2.269076179671722 9.612844104634142 1.3745622386791632 -0.2205559140433234 -0.9950398062357767 0.10563917269806967
P 4.398271503325838 7.44656173706448 11.510535922057976 1.7609976632350899 -0.8764888105720454 -2.4550620765282103
P 2.8246095747239623 2.093790711329187 12.123379556489576 0.8712345041516415 -2.331647839234907 -1.0036350041039555
