# total energy = -381173.5723456654 ev
CRYSTAL
PRIMVEC
9.19998745333757 0.00000000000000 0.00000000000000
0.00000000000000 9.19998745333757 0.00000000000000
0.00000000000000 0.00000000000000 13.46511158693847
PRIMCOORD
 96 1
Ni 7.742047166071497 2.497355034323802 4.051315740056671 -0.07276633322944887 -0.8582725446743348 -0.8503532898272582
Ni 4.197770342680342 6.522929209072285 7.412274530504865 -0.028085702492622596 0.607887720195037 0.30026962512488287
Ni 1.5202795511248381 2.8717669297302666 8.341649917989072 -0.6724429783686031 -2.0224050640771365 -0.9663411527495035
Ni 2.881794916215586 0.6455254100277781 12.802709185835896 -0.8702988797112496 1.6852087411292334 0.22914622681549565
Ni 2.9198000649961866 4.620886972447615 8.099103284868278 0.2885214834500192 -0.578271697100817 -0.7545519291552166
Ni 1.2528267115700467 0.9364943378900237 10.23006513297883 1.2866795235998034 0.09335187069028439 1.3861318507608706
Ni 0.7430397586080489 8.903941200191179 0.9226446765551614 -0.0772559935696863 1.2229423904521584 -0.2942347317847126
Ni 6.907231091150051 0.5213218974163955 12.575027892681138 0.2961232070566771 -1.2175186483334257 -0.11910969638067877
Ni 7.2740713967607205 3.7688945206747104 5.964882801149378 -1.4246906848706753 0.48354968553588323 -0.21521933232175838
Ni 0.22374369846144015 8.323109182976353 6.218094059897496 -1.368631122872946 -0.003983667238096365 0.03905968500562305
Ni 8.51863651946488 1.7750272078023577 6.475991792329669 -0.04226456509616592 -0.058725024645034346 -0.06005531342068366
Ni 7.654408084182365 7.856458211880151 1.2109566479981773 0.7290702399443444 0.212283389621886 -0.18503689520110714
Ni 6.1566685026804935 4.8030467269515835 2.9203805842138233 -0.7607647428341479 0.3550716605664272 2.266997193134057
Ni 4.711939249736796 9.07115097484318 11.611491111236118 0.43954114116541715 -0.4694561835572948 -0.055666697434684775
Ni 7.054900092137082 1.4130628956203306 10.36102695648206 -0.6700438820088074 1.3427223734269844 -0.2734820726183935
Ni 7.171519134970027 4.778215960415916 8.306493085369807 1.0308228773726569 0.5907616020377117 -1.0074584916151037
Ni 0.8497826147510942 0.402280497848052 8.039937244606133 -0.31287882924846117 -0.8757015387840595 -1.3574866762203524
Ni 3.9474662800142064 2.1900294485053635 6.553658087659089 -0.027215898293159582 0.012844717173152073 0.25719927629796996
Ni 2.468816672784846 7.85956780768936 11.333557645806026 -0.5078905762740931 0.726100101572427 0.12611620960549894
Ni 6.59995150526962 5.9243688157499275 10.176985804513645 0.2711847919437846 0.209951913275232 0.7167279163289076
Ni 5.19350340073456 2.2054578277125936 12.248067693324199 0.4270936594306838 -0.9709169450456442 2.124321022287348
Ni 0.7826677852015033 7.059113686458436 2.2037006300807622 1.1922727292824435 -1.2512319814254709 1.3184233916703036
Ni 5.830722141957205 6.0812654043009715 5.675545031088826 0.617139320700292 0.16621359184701698 -0.01629950849097193
Ni 4.587362217628804 4.095457280567279 1.1414185417144276 0.7404268026077442 -0.3373827279270964 -0.6396740114676983
P 6.4585936957770205 6.9219878712623935 8.018662273278332 -0.9067177846599158 0.4237658806090315 -0.5767089805993875
Ni 4.002206206241409 1.9918617155752887 10.522015699518123 -1.4211155659249073 -1.0448878401061554 -1.2090748884414466
P 3.1469477588700743 8.559760464042292 2.861551263497882 0.04772635954168555 -1.2278321144442916 0.7551062589967898
Ni 3.033484311784345 1.0700137579463922 8.475480297626362 0.8985326777459621 -0.03335646397325868 -0.2460131777741634
P 6.300473508875014 1.7185668838937285 0.7823954655685074 -1.1676672720289376 -0.1998585335949719 1.5595352754881078
P 8.663352324431921 1.7807128001399057 8.903818840356083 -0.5476303180658763 0.8397595734718118 0.4070521673987764
P 5.183677813976467 3.046097494785605 4.946058694214881 0.14493359942231815 0.772061913014522 -0.1273256565325678
Ni 5.475943020091723 7.396854431286477 3.901946581360937 -0.39197161891657006 -0.3439539533867108 -2.325137034699583
Ni 7.378104856555209 3.5305412419025477 1.524385505591258 -0.009222032818900246 0.31945442558344983 0.25973412690468173
Ni 2.4997654310753186 5.297196460987804 1.0218325028800925 -1.5490711427319903 0.6448794669280378 -1.040972564212149
Ni 4.9949952682632395 8.784985360507527 7.531844929360279 0.6487507769579859 0.5246204874342643 0.3873454329984684
Ni 8.500356144101275 7.0912584431370655 8.843993160982931 0.25941633855394675 -0.7052075743941338 -1.43677281284619
Ni 6.078836607574252 1.3408429929508279 5.953841896029165 1.0073325075602007 0.07845618452537458 -0.045036471414348245
Ni 0.5423696290504448 4.543689876485858 9.26654215151521 -0.6491025038704498 2.4561411685250025 -0.16626038592455236
Ni 4.46071518831054 6.542837982241305 10.778512273838633 0.21822212370382418 1.124710051741121 1.1884636399489985
Ni 1.6839197305875697 1.8886010547393015 5.994909720682209 0.4082181626824196 -0.33511090117378417 1.1710246185369446
Ni 1.4549596391562434 6.355167435164211 7.167775660015095 -0.00907162328396502 0.45789624663383727 1.0366168583466149
Ni 2.7777614564210973 3.634961101176287 12.789230284001365 1.8821027927792424 -1.007431237921594 0.0648463070514238
Ni 8.693528283763891 6.699651770903938 11.149382174018633 0.3065616287811817 -1.0706394951489624 1.232605110352903
Ni 7.482966315233806 2.785747045658948 12.736783914683143 -0.835265285145884 1.2855328115898699 0.3201709920345002
Ni 0.8081646308394981 6.182051268472232 4.898768917947139 -0.7930860806746729 0.31274796009755174 -0.8674560109458157
Ni 8.13734303333271 6.069544620097029 6.590903317463829 -0.363290963152426 1.6419959531871848 -0.7088631688688501
Ni 0.8764138188603183 6.872657537744703 13.138583253179652 -0.3472778755536213 0.12266347517020809 0.3389600997165453
Ni 2.8340101806148983 7.91056333896287 0.6630329864328818 0.7963248993269447 -0.9207966313504851 0.2161061058020859
Ni 1.86631868476917 5.506256979237712 11.595749932450447 -0.11957738004571664 -0.6397213197658659 -0.17732358571724943
Ni 5.11134751145575 4.411440054718456 6.918361236149996 -0.774331425774989 -1.8939445226091771 0.3571151733590172
Ni 6.151120910156963 3.6222467183114144 9.973648598550449 -1.245965076599577 -0.571439761780648 1.610732110076897
Ni 4.353507732793633 9.312043450193277 4.704117420278247 0.08366755352298492 -1.0470776486686224 0.30852440893450733
Ni 6.600871504029741 0.45705262403185887 2.6608139740307895 -0.580721187082574 -0.6362930108106074 0.2127428457568078
Ni 1.6639925574433478 8.637491159284918 4.508913923353282 1.8854848218775981 0.27913207181531924 -1.1639047196627117
Ni 0.5129140287476491 4.038582957216596 12.952710383679836 -0.4813053695863969 0.17344404815718514 0.122261354635783
Ni 0.26126308789669694 1.5525071076918786 12.869967535192067 1.3533705971694499 -0.1178933074750744 -1.1007170312606334
P 7.746122760578833 7.001926563529311 3.9860501080149238 -0.7028742982752669 -1.8781371232632749 0.2194950768789768
Ni 2.9480716268947065 3.4968784872697185 2.5965042207008073 0.13926637383421175 0.32231709184322554 -1.131591866462619
P 3.7454345522916235 8.689535489144967 9.701586565207453 1.7568687286683806 -0.23591594143916145 0.3410504065866707
Ni 1.3890877279315759 1.3601813668885725 2.678304990458211 0.4882103242363463 -1.3061931681526988 0.22454909436311649
P 4.445912408260193 6.593787513576809 13.218686625224631 -0.24340839316146468 -0.3688661432473583 -0.04811433900872358
P 8.767716983780055 8.614527990232297 12.557415436417381 0.17054024424682887 -0.7835138636052055 0.022867648626792875
P 2.112537952940367 5.473909822831856 3.2748901464425897 -0.5619904434422902 -0.17616247552961273 -0.22167511524943115
Ni 5.299726457578136 8.429313839844728 0.7189146311213946 0.27995919570230493 -0.33743543554190275 0.01074541144196214
Ni 6.298044712148296 8.383608301441914 9.860676430802627 -0.8525721518554479 -0.9055836710554727 -0.35132659170169817
Ni 2.4008839643375075 4.401016468766285 5.83957621002461 1.270025202872574 -0.12174507712099678 0.3033721753096066
Ni 7.4145184074808 0.04380206096812346 7.757170105690367 0.28152191220373446 -0.42691265376812926 0.407231373289118
Ni 8.322271984104642 4.84071147619094 3.9060267758620744 -0.08785665190366804 0.47119656328716913 -0.31715457380567963
Ni 4.098760076116114 6.289451923728765 2.307246490532387 0.3313169813489907 1.5165705990011238 -0.2971444492323399
Ni 2.498293433059125 6.175399677436557 9.515835135543972 -0.2210868468461289 1.724642007424191 -0.16994040587930087
Ni 6.19981644453017 5.827207746693542 0.9434394085301775 0.8271740234973173 0.8232942288269369 -1.548904535247139
Ni 4.0167145866885186 4.974976095243006 4.207497489571102 2.0231771663564704 -1.2555738033339343 0.5761613356260334
Ni 8.883719627443718 5.3699775629009805 1.1619593540316504 -1.9009947445877389 1.4132526182370628 -0.39376727736441214
Ni 8.443509420713395 1.5091199661645696 1.5685776460336731 -0.1812162359034363 -0.4126867399767344 0.3269589614906111
Ni 6.464270088126967 7.35683448522121 12.35857610439242 0.212093385098267 -1.017056419716184 -0.5753131286931252
Ni 6.817494412087845 8.320385986646395 5.416085140761967 0.8790298318263443 0.9284382070561429 1.3139699838846404
Ni 2.8612329439268804 8.682718298332471 6.685387190128261 -0.9759830467146418 -0.1645169208708844 -0.2716509329469257
Ni 3.793228487879912 4.352596934021114 10.464398017169263 -0.32249244107882524 -0.49515204566150206 0.05129093696449231
Ni 6.704214964754139 2.585012516188135 8.007729008013055 -0.1344895212708587 -1.6390517829571967 -0.19229280543257204
Ni 3.2293520478141176 1.9735353402736775 4.108030903621854 0.24705061789974228 -0.5138087415307409 1.6514745821015815
Ni 5.1945981992591035 2.398491967561193 2.851964876417421 1.3660957580456021 1.2896152091893596 0.313106371878235
Ni 0.24613922827906695 4.267175049143874 6.38418695605471 0.32151105100216243 -1.283249414872332 0.7138259121907642
Ni 0.7561663009174562 3.6109767334999314 1.963281034093368 -1.3116518772744248 -0.7860867665387042 -1.1645099573468782
Ni 3.0021123540642174 6.723028939398614 5.248337166835295 1.140465771913481 0.9581401049959499 0.24373003816694153
Ni 4.026089374054152 0.8446085417241733 1.716397526817363 -1.0703373905275113 1.0903256607239804 -0.7112095576138396
Ni 5.354079984326089 4.403776465046648 12.339993969435493 0.4602873725738331 2.3615330568301136 -0.3135727699916922
Ni 8.568693652003066 3.5009356818018524 10.96764285894804 -0.5656853757953741 0.31942614344867565 -1.8352328677005814
Ni 8.791636951543202 8.664603522745686 3.386879755514605 -0.5211736665362444 1.3661728911404407 -0.7543529257705331
P 0.29263044562302426 1.1429420596611881 4.602092317777101 -0.9961883180179231 0.602215352400608 0.2711778499652491
Ni 1.1496488506224705 3.3378751015579966 4.173632335211046 -0.8972599816811258 0.3137041533632339 1.1754191480602143
P 2.115187549369516 2.1932954441037933 0.8282334837927787 -0.03250697148876982 -0.1314263089645027 -1.0732008281182355
Ni 8.555620469621747 -0.319592849285892 10.336654349328933 0.11551040906519462 0.3332442802786906 0.711927923837103
P 7.456286351190297 5.172233029400561 12.389639862527906 0.7727820790099982 -0.13572262234701143 0.24109002944093322
P 1.2735450836479727 7.923259321852541 9.390972903820341 -1.0507126743180486 -0.17383511294801673 -0.03628135092953752
P 4.199619540188185 3.0492254905700165 8.649139263586813 1.1791621600424143 -0.44178545711490363 -0.16435648403362016
Ni 1.6656301552363633 3.079226650137564 10.851344895682379 0.13653149140155196 0.4294891562460538 0.12535027797375184
