# total energy = -340866.1603810351 ev
CRYSTAL
PRIMVEC
9.29296082156973 0.00000000000000 0.00000000000000
0.00000000000000 9.29296082156973 0.00000000000000
0.00000000000000 0.00000000000000 13.60118750924320
PRIMCOORD
 96 1
Ni 4.988015328415045 2.976851324657393 1.1731842682031186 0.3396082748235055 -0.8645115836055112 -0.13311218130735786
Ni 2.327607907018728 6.663498999927995 5.056050953475394 0.21386307540418006 -1.3194716304291598 0.06742255241903226
Ni 2.58776434634076 1.6400217328648745 4.811338485809347 -0.7664664212046154 -0.4947537817818189 0.05792901110630024
Ni 4.764909924048432 0.5341658954005326 5.230921244489586 -0.4618403188832498 0.6089999794226092 -0.9207922604751109
Ni 8.887620494791332 4.050336991552332 5.3866684806426655 0.008169166074353673 0.45993641699231763 -0.8735330703778311
Ni 7.933335636868843 4.703762241578741 8.940074612374945 0.21620715015632444 0.6589398016758458 0.4317514699176693
Ni 6.289475911168104 8.50611657253781 0.5234418185661828 -1.579944435272079 -0.14609419538932258 -0.7242221678234237
Ni 6.454249400206109 2.8199675593909332 3.146471092784751 1.2613443872691246 -0.2393103118326911 0.2884260955227355
Ni 6.237156541516987 7.488816147012437 5.025720587815123 -1.1072463477387187 0.46961507773266215 0.2379190879121193
Ni 7.362469051137376 1.4334392129102838 0.8709074837756355 -1.0061667693868734 1.2961234426215225 -0.05025632505239087
Ni 7.12828643742367 5.5021019232818 3.988684701307854 1.7647656149179543 -1.1541383843045672 0.35843080684664724
Ni 8.852381587203938 6.773722808708085 1.6467498365287128 0.38210912430019356 2.040177814679525 0.6053122461583768
Ni 7.857690935454971 6.914511165762159 13.160549919270714 1.2056797467169686 -0.7691920476658947 -0.14072573198855765
Ni 5.505614662487505 1.770968844366455 12.601418484515346 1.9274022880469903 -0.17395184103153913 0.6042984601818818
Ni 6.7582593218342915 9.190069198994756 6.763530289235022 0.1038255165280986 -1.4164634118648767 -1.5027519479504765
Ni 8.763810377231502 2.920359415579392 7.531902030751414 -0.7321460506561907 -0.9308995241124419 -0.040738101149310486
Ni 0.854166214783364 5.6173067590837364 3.134107737654405 -0.046465490551390945 -1.682791132826676 0.43896290006444405
Ni 0.6297551494156883 1.5686796723299492 0.9317317712073399 0.6277921724284479 -0.5397668561573994 0.46483591117646395
Ni 4.536358844616888 9.291288128699904 8.484325508613315 1.0445415125103301 1.0795295985497406 0.14731341250840435
Ni 1.5194269797631776 3.266875340188784 3.101125160964219 0.4201383111587732 -0.8487710329418027 0.7081638288089803
Ni 3.692873959047911 8.158383270055541 6.357915780025935 -0.22786196078643337 -0.41848149228164055 0.3630994159669102
Ni 0.09909920533260276 1.5257554861099645 5.389484247783747 -1.3037665609890772 1.696896718990123 -0.12686825728017506
Ni 9.076183963635174 1.4185054248056042 9.751221852737535 -1.3583449104555896 1.221964085699289 -0.7973998775586782
Ni 4.1832542107565835 1.296460969809489 10.805327049755492 1.0224667920984778 1.6534360767033265 -1.4370376364718025
P 0.6369302444969721 8.480198504694654 11.932729546273668 -1.0000881672929613 -2.6831035003153016 -1.3330791939102653
P 4.326663182773643 0.612577111262919 0.4542566542472474 -0.6154269659948756 -0.13118025439196762 0.5222761555718038
P 2.021153936683931 7.0251996225853315 7.235260497790439 0.12332193468981341 0.16232094166083014 -0.004786879865682078
P 1.0005266311700856 0.3308665785183646 3.5119623141775556 0.3604082422879922 1.4910272033143803 1.0151730866505417
P 7.83702339049865 8.744481018639261 1.980972103214221 0.02965536097258763 0.03611962854069263 -0.07748585019230526
P 6.977117843087128 3.533350992896741 13.553801073349454 -0.6206213657116215 -2.028109056440449 -1.3892909652151428
P 8.716834460075837 3.8920592821566244 3.1694981205038455 -0.6400977292686781 -0.11539393809198836 0.5060458097558704
P 2.645352824800436 9.30188210408219 9.794677596318806 0.1636154921025376 -1.9881790530147307 0.7154783601925226
Ni 1.7124603627814752 2.6721072591211406 6.778465006635788 1.22363761674697 1.8504638257177228 0.06255339725218904
Ni 2.1342120985268256 2.0103741020844113 9.804810640842355 -0.19590109160912067 2.5701325698425093 0.42823600056524314
Ni 7.186097946944026 5.0795138210589 11.602398242300936 0.6594928459658383 -0.014918568983045274 -0.08667291600821202
Ni 2.447143262582196 9.222129913967466 12.162032426238918 4.02241067741315 -0.31183316159276614 0.008334488007624355
Ni 3.8678046543077045 7.5567662768328585 1.5250055441684292 0.4501811373777666 1.5284287838912902 0.08806619681131285
Ni 8.191178128936322 2.1172803238368907 12.157829220041192 -3.5475718893877035 1.3779354309930076 0.2311524586122471
Ni 5.136544721866876 4.314424353318844 12.47549886483992 -0.8192401133622214 -0.8663090418255661 -1.5095442882819616
Ni 7.003426215286473 2.4831534859211093 5.527685444533936 0.8827134513255186 0.84482696069239 0.7794440644112061
Ni 5.49329219638495 0.7242469047530825 2.3649879127886493 -0.6084885870038295 -0.4547006225146749 0.9454681659552362
Ni 4.915716092911369 2.888930621945275 6.350067874578268 -1.5702441772651796 -0.08400591069901014 -2.0073610252598204
Ni 8.62420222620686 9.301696244864956 13.185807257596608 -0.9084725625674934 -0.7165417684600305 1.720163145717231
Ni 3.4765617090711673 5.841471560988579 10.729622873392106 0.4569169134397034 -1.4088912559445737 -0.8993916833121479
Ni 2.445777197335533 4.624623386880888 8.564477296045089 -0.6131556534621957 -1.090468614059748 1.0281967526037195
Ni 6.6302116141215475 3.0029552517177818 9.966392927120467 -0.41737617503260377 3.2589521897969225 0.7464167016425919
Ni 1.3658979733677754 9.052050144277457 5.811569600824031 1.13797668694304 -2.390072301920387 0.07422697693537539
Ni 4.1062620300177715 2.779663988133936 3.6308099906372613 0.2980134821008545 0.948532920923489 -0.6837062099872484
Ni 1.7822040340481962 8.558974933918904 0.6122221201580038 -0.8908916162609367 -1.2152175110040748 0.2156862446558479
Ni 2.218452788737728 4.482961491505819 12.355930983913437 0.9240881576175632 0.4603436797330653 -0.7652227786055014
Ni 6.121291905493872 7.115638717690957 2.5009996879598315 -0.04593790018269508 0.06926449072377748 0.26923255331342016
Ni 7.235332053589073 8.878615615716388 9.01973666076931 -2.7801528744618316 -0.11958509335520051 2.74155598802524
Ni 3.32682423070732 6.666909516564222 12.758934171120398 -0.17505818672184045 1.4386895702529285 0.9485596603963664
Ni 8.597717287751143 1.6308867523378676 2.865701936975482 0.28040939586584607 -0.55007338028973 1.4767853486833855
Ni 3.476059889184638 5.614444527138346 2.9813398247535723 -0.6569327985481461 -0.10566745483284383 0.5332246841635074
Ni 3.1228530327548545 2.1880090489549464 12.716634471870316 -0.174383529252319 0.09712445035883918 0.428023884554437
P 8.777917091819495 0.48211880950266145 7.532270032001536 -0.3533919588711591 0.8133607717633089 -0.7106631981920664
P 5.38722234111002 7.098009970936397 7.204590009762632 0.8088430863986135 0.49458845984854816 0.7311422919820246
P 0.5434969574017204 3.5354233231688896 9.320431783258138 0.6907361202508362 0.08640140751438022 -2.4767441894873348
P 7.591429020846832 6.91233661292053 10.332128553383935 1.6153112448071472 0.014551415451613649 -0.3963887741476593
P 3.43435308083753 1.12194845778847 7.028414057747377 2.0954444484623136 1.6588515912919433 -2.830968671562118
P 6.691015457039355 0.7563986907422364 4.493342658084374 1.472655385675412 -1.1242837628369797 -1.2081099534250164
P 5.581649668257567 6.430970533247664 13.03740517770858 0.1740729399904357 0.9010968389287127 0.037676174394535106
P 2.7068257609002835 4.349412350962974 4.981951671452815 -0.37148815425123766 -0.7235585660974957 -0.5378045902247061
Ni 2.679076979767382 0.8766477456998799 2.108551445699538 0.9856390817471671 0.7302496049644263 0.737173328667453
Ni 0.44618478844281384 5.146590412558326 0.17046263967751002 -0.9100548194529489 0.7904553279200451 0.7937807927488524
Ni 6.619162283657039 1.6046248449428304 8.151150558616916 -0.2040111223107648 1.6569060375297981 -0.40922654934227587
Ni 9.455959395168428 4.085771051317823 11.219225304276659 -1.0154438238134254 -0.9832924358918613 0.706077635703913
Ni 0.4488035448136282 6.241654334574028 11.60658657976128 -0.11002007537458472 2.3123779352617015 -0.8418012864921888
Ni 4.118853991985314 2.810089141994994 8.424915609824755 -0.3982425395269464 -0.09553165195042257 2.0618355021586168
Ni 6.669901849961675 5.404488662390975 6.729663951966892 -0.034027521898354306 0.007283421035290683 -1.3690365858414808
Ni 7.192798171725279 5.277128633781993 0.9942260037058835 -0.8882194687454122 -0.19457594503979395 1.4406767758862866
Ni 4.174481655703182 8.354650603453695 10.893109287350773 1.4940415646606722 -2.4884290820244304 0.26439116606071883
Ni 1.76173164126997 0.5860596474441864 7.950750645523583 -2.5418985146974804 -1.0447813964352781 1.2538740470340084
Ni 2.5570604036538516 3.597435250998714 0.8904273480655418 -1.7844198988137718 -1.1331548400743645 1.7132664185973976
Ni 1.647790648145218 7.6792939657937795 3.032385129470557 0.8612084873742072 1.0874894768267658 -0.8985378199522849
Ni 7.967422217309394 6.953216347750951 7.95115860650541 -0.10339717074142837 0.0364808685348533 -0.3275626565128811
Ni 0.047249130204998685 8.451511134514725 9.214233685123318 3.004975534201309 -1.309456412285003 1.0602337264346064
Ni 8.550490460652213 8.674207648603426 4.788842086155452 -1.070340732961621 -0.475523215686981 -1.0255911966600724
Ni 1.723137974811517 6.643045193071492 9.343295254866069 -1.3777960772016657 0.5746749808884941 0.4787527783678723
Ni 3.9506606933502204 5.330293662871521 6.918230208698993 -0.3892387933664393 0.4985687846525349 0.5958058493298385
Ni 4.812266852599425 4.910800116615554 4.875087268024213 1.4797385177744387 -0.013452783070796186 -1.1054987689199927
Ni 0.8646728363335512 1.3947619098040758 11.808863670948668 1.4698791084818559 0.5754200865846348 0.24146978137785508
Ni 5.831974154987967 6.015129120610325 9.641854854948889 -0.44794016386238983 -0.4705980104712218 -0.6031018687706194
Ni 6.880508221969362 8.317423002241906 11.825538959918822 -1.7821442154057177 2.0580804059915585 -2.541696168878687
Ni 3.911648843652993 7.144270330105717 8.864696618937803 -0.2133354850354842 -0.9038234938312563 -1.5243908663764907
Ni 0.5496015033917415 5.4886457159541235 7.041144484831758 -0.43764906634902695 -0.38171703106809746 0.28195051510072083
Ni 4.137802339182229 5.107188258504908 0.7623220239954553 1.5211865005065803 1.7707107767577954 0.7145198529339952
P 5.629266799712686 4.708901248935237 2.658202201783846 -2.136009000148237 0.9795910757808742 -0.3461069951739717
P 3.502944424957406 3.5880121886849956 10.831088066560087 0.37788737290936214 -0.2912854193484016 -0.5695430589785675
P 2.1558461114127585 6.130872948142239 1.119294388166381 -0.23669292881450202 0.647763473344052 0.6749372055453666
P 6.623056034258072 1.1595663633564492 10.654680719819375 -0.1940756083646077 -3.3625769031681254 0.5512285769400959
P 4.038934528575081 7.992764121579126 3.9472687626357166 -0.05288682069670247 -0.6762070733967258 -0.37156734422860527
P 8.219819034311943 6.688952419728068 5.70530366407492 1.082578926899026 -0.6512555456577107 -0.1899335611717761
P 6.113746021274208 3.7517169872239102 7.826531637685841 0.4790132311181105 -1.0099018109492734 2.011377345508065
P 0.6494599436267415 3.144208256814938 13.226842184873417 0.7590485314739895 -0.40843079291385787 -0.820081121206278
