# total energy = -381175.89757392724 ev
CRYSTAL
PRIMVEC
9.17051595660284 0.00000000000000 0.00000000000000

0.00000000000000 9.17051595660284 0.00000000000000

0.00000000000000 0.00000000000000 13.42197707244822

PRIMCOORD
 96 1
Ni 0.47633219792650905 1.0947578751575477 10.032539149320915 -0.4010728098868899 -0.0293411721662785 -1.772330571749406
Ni 1.5568601831974616 4.833852418858958 7.270242131733245 -0.5064335321125923 -0.15724327002760663 -0.6800120489651128
Ni 7.293797519477467 1.9435991896403915 0.21882227075400684 0.8055487319180579 -0.4362233896460939 -0.7568574373599416
Ni 0.06989583987732914 2.074920980692814 4.375913525144309 0.24241131935551802 -0.8881477349672124 -1.2626163120030125
Ni 5.339184539959006 8.497922970060378 6.416282752195489 1.059246937041305 1.0636093277750587 -0.05804548207950649
Ni 5.463160747587337 1.0098572367802205 11.463751339798645 0.2945126680364476 -1.755090039501403 -0.6300269752962375
Ni 3.402050564193751 7.8392323076356325 7.864929927948977 0.622599829594231 -0.6569088872887461 -0.3342092152951212
Ni 3.0993501676114636 5.7599828433271245 8.99765098875036 0.8552080468163982 -0.028592209815395918 -0.30691181303174886
Ni 6.108847618132728 2.4117907203939093 7.306508771892116 0.6553870513275809 1.4185694024642859 -1.2551603699455998
Ni 5.553416967387473 3.3779137657265736 3.308960654907917 -0.8593153841165524 -0.9444407531319863 0.4606864077844646
Ni 8.460690674552499 6.687763960699581 3.4877141895135058 0.26711704963231414 1.0405640159198208 1.3201414028026748
Ni 8.013848105361133 7.837719172473367 5.994630673775206 0.46258413902780976 -1.0555188374574402 -0.17042171639109358
Ni 0.4257091147583818 3.3111248967157643 0.47273643854999686 0.2618617147706458 -0.8113398846785381 0.5225970292463322
Ni 8.931954328211223 5.234035401955718 1.5901152258576152 -1.8143848206069781 0.6619580196768793 -0.05567595340606541
Ni 4.472286479206454 1.0164966904619213 3.4974321854617076 1.407134678264783 -0.16814680431398785 -1.6529640221629147
Ni 1.7341996242150415 6.136643452537749 3.2271266371261156 -0.07157514113482513 2.076549411330024 2.7281731389604302
Ni 3.3090707011015366 0.8315072048845695 12.861126159841653 -0.5983733529466985 -0.003680277065064629 -1.9939892319386046
Ni 0.25304388581478365 4.314122587427046 3.6768294902999696 0.1002120881452274 0.297312599379088 1.0003247087837999
Ni 0.7937182590472989 1.9625913285558643 12.014790230366875 0.8459091380129754 -0.09114663550884948 2.025216565384002
Ni 2.576511531209804 0.720552213116248 8.582844700624815 1.6354905479684994 1.3596883118573615 -0.1339894417059886
Ni 3.7839750496658344 3.761580649264297 7.5137835287289985 0.6185647402929089 -0.35004952476148743 -0.7163144829405729
Ni 8.777779610950516 0.02059055987779358 2.8456872719575705 0.4728824356300243 0.051351614999098655 0.6104107437272067
Ni 0.42114128067156537 5.985898508311512 5.54574583064059 -0.2161369590400213 0.2762087275209372 0.00897906357015873
Ni 7.639516807248786 5.674797918949614 9.912680503437175 -0.0889632547042855 0.25397151338929164 0.14449291234047373
P 4.517231178783823 5.908554375229379 7.141337688733995 0.9442178384879029 0.1570784623149682 0.3740713415973816
Ni 6.215867541427545 6.347867950673954 0.2672104991400478 0.2632953618933788 -0.21259012222902743 0.5112867464398356
P 2.0608350679095375 4.50172383599963 5.069320093449504 0.042330128226778715 -0.30140682405311964 -0.33036875850310843
Ni 2.9261924819514187 1.8194670832377666 1.46774660970774 1.0831502260214636 -0.7962490517836867 -0.540087986942244
P 0.1547891418417485 0.5880345867598286 5.872934256458023 -1.0389331651846172 1.928123996704363 1.2474591446466001
P 8.718253790718583 6.642626680283379 7.909477544177704 0.962211446851846 0.5122910193346338 0.6485258054313734
P 0.9789984499861283 2.0227774259495126 2.1523082152007804 -2.1226418348127125 -0.3827454723326118 0.880187085359239
Ni 5.366100004815071 9.123984936076985 9.00201248622414 1.1084002588375041 0.9343154917725263 -0.7787395821450136
Ni 6.676420032240653 0.9239478416280491 2.4846495540344393 -0.844169015393417 0.737273344580427 -0.07213332763114029
Ni 7.5752314891428165 0.46546972156466593 7.354586119781182 0.11787736663547439 0.45852128181234586 0.3142888222221103
Ni 2.9802618450830587 3.5866072014095334 13.311259110222235 -1.9872531987663515 -1.5302907768006937 -1.7589312676243645
Ni 2.6645668271375524 6.601341016643853 11.286272506935815 0.00878751638464293 -0.9674670388238307 0.26834269450929915
Ni 8.099353997803368 4.81091695800546 12.799331553917934 -1.9611431319428612 0.7549327095334031 -1.3570994680842627
Ni 4.446902490544924 4.526355842338094 10.606690491704049 0.7923551160459192 -0.7839681775338047 -0.9836102242425964
Ni 5.265462760750178 4.269297104559431 5.618453350764893 0.785868479880311 0.438088982099923 0.14525473020716273
Ni 7.410886669488454 5.364110002813788 6.897218549221741 -0.08454687080414472 -1.1577230163320318 -1.1184810401122738
Ni 4.899063959094557 2.4043717728407383 9.420899654029736 -0.006255236881092453 -0.21798326822014072 0.1306539495748524
Ni 4.001380475676992 7.935605261697777 3.802312413729272 -0.044966023187729014 -0.9829432800825587 -0.827445531991149
Ni 6.853612745000074 7.725041040723289 11.586992072032954 0.01323141108860947 -0.7673020297320333 -1.3449944572906125
Ni 0.784651369744678 5.717706763945025 9.552247122527337 -0.2509178141646324 -1.0128711779902428 -0.5679651729684863
Ni 6.5790199803713945 3.989220371282054 0.7847109780995551 -0.5845518736825739 0.9836693596153058 0.9704520895940836
Ni 7.498575144770805 2.4288203688565035 11.031510066397342 -0.21584153928678956 0.048354222933671566 -0.02606095875310996
Ni 3.674011390691701 8.626997984659738 10.410112224886968 0.4777117386978676 0.7662705031437254 0.5656660925216644
Ni 4.315782450847471 4.3891374094109015 1.5399570878575297 0.8428186720131097 0.20560983425645232 -0.2992324421096202
Ni 8.445357571574869 7.384237149600302 0.11400969069287192 -1.6391194029703384 -0.5069865764025849 -2.2434340611021364
Ni 3.2681885401719484 9.151239710030044 5.755759820646982 -1.0850402439553248 0.6616960242647443 0.27948071340398967
Ni 2.279597730308667 1.1359518336357237 3.775319916537673 -0.9167260608255373 -0.09770500545265753 1.1919397714230568
Ni 5.7763705556602725 6.576479747402015 5.107357560274033 0.20757904216768122 0.16827535947205213 -0.29913088353474937
Ni 0.7283544882438597 1.902047581032953 7.788599136899757 -0.3213585845846982 -0.6533679640150232 -0.5835470865671434
Ni 4.163561053523507 2.265924490751463 5.2251895220919495 0.2879874653234201 0.5300493717593194 1.4125352804550642
Ni 2.6905560698639888 3.3575185378424544 3.1136433340593896 -0.395318423901616 1.2888513344401415 1.413836772875307
Ni 5.128510272790899 6.798507113545185 10.150907586332726 -0.6313935166264609 0.4739877528790611 -1.153684070375968
P 7.140952527056327 1.7440212469955685 9.020978030642821 0.2838680438384079 0.048211526708220195 1.429540813874125
Ni 1.6412564431873669 7.798276782576965 9.59408301713496 0.5117433743612798 1.1122214323558073 -1.7106510924617377
P 1.8338647935696315 9.092685964508416 11.35495233637365 -0.7635104239000851 0.4664549348371257 1.3253805397144272
Ni 2.0122221618781904 8.567160366879218 2.3614757665679162 0.768513019320999 -0.6132032188706794 -1.073629688125538
P 0.334226796951004 7.363438419006244 1.74842767999841 1.5835941162095244 0.3749213483025027 1.8003923629826284
P 3.631909551116165 7.25452936938763 1.3420316722202237 0.36098082696201056 -0.7498041300575861 0.4171586597051589
P 2.4587804450693715 4.23901606028184 11.052206087210687 -1.999144550887299 0.06869036338786234 1.1370444049367578
Ni 8.719134160267538 3.4891337854111955 8.65973856136472 -1.494105070908756 1.2998114329960713 1.3871955161386949
Ni 0.8812939369811897 8.776202282175305 7.62079703266252 -0.9805529254735112 -2.139540153229947 -0.900865953864829
Ni 5.877888169274121 4.623737553175082 8.643256392715383 -0.5112247828536486 0.3628063102065236 -0.3539259769977582
Ni 1.1556042497129124 8.400201950126396 4.8162486960863164 0.8953424529434386 -2.155105354658056 -1.0357365126241904
Ni 0.1978841483146988 0.34689403088820453 0.4952518897645155 0.58019745336862 1.3973416034337611 0.895245008133626
Ni 4.649222417514096 0.08262176511779329 1.1127339208852682 -0.7197505052053152 -0.5981368114558603 1.9870786208617004
Ni 6.614088034071427 5.5347824786012625 2.910300894541171 -0.7201955631625339 -1.5724337287173307 -0.22812189931603938
Ni 2.1171970600749135 3.4777256633393225 8.994214796354596 -0.714483600379421 -0.6546630286773628 1.455563720300448
Ni 3.051259980999808 6.435070388601153 5.55016235121118 0.0013703979849653818 0.47313028997477224 0.38503889635247884
Ni 7.72734284027316 2.971192204625597 2.733989468382319 1.1740101835278296 0.4152113061708011 -0.819496966568034
Ni 2.7715775799162343 1.9317967353747165 10.608449396698733 1.0601604499945096 0.10862396635800646 1.540738711606895
Ni 1.9914234312841335 7.819268094009856 13.376422963773932 -0.31302666768023507 0.08092007268483484 -0.34722748193166003
Ni 6.88720434560238 1.7086047136824083 4.991485337754153 -0.5069616367019205 -0.08746275889935905 -0.23669035771134078
Ni 6.578561454564648 7.84386341828378 2.4393105222632676 -0.46967755553948143 -0.4197295057561288 -0.202747939327625
Ni 6.458198430293486 9.007088366904833 13.365886957786493 1.3129901364698742 -0.4088485971775669 0.8110259529825452
Ni 8.327608144402166 0.28603206645541035 11.87773870083334 -0.6686922530769194 0.3446152411197936 -0.3313982282088873
Ni 1.9399034716380086 2.3076136571009265 5.901509584734514 0.23516877886049173 1.1380957290194076 -0.13712875866591867
Ni 5.140211851379089 2.9974290512876767 12.326569437922759 0.2944399058169832 0.6789933778926113 1.073309842892274
Ni 1.0295555054380838 5.5722073549479765 12.851690615790407 0.8987846458557683 -0.06754365137792884 -1.3855309839520782
Ni 2.021053368916143 5.157269011390087 1.4152270638029063 2.1501418400051935 -1.1722469209798199 -1.69715125820309
Ni 6.35603888055019 7.115861994911116 8.089814826919797 -0.005312927572481172 -0.09416845305430878 -0.1457165003349297
Ni 4.0229128475618445 5.278237289726157 3.6146194599953385 0.2285895829810773 0.9744763802621281 1.0038000689269098
Ni 0.22016575136777639 7.422569907044375 11.256301426103583 -0.23468438302490552 -0.9149098335524048 1.8815628611153725
Ni 8.328534366531796 8.319483067106605 9.424979616658174 -1.2724590091250472 -0.33481548142055245 -0.6991837367975572
Ni 4.120294558398833 5.438638787442492 12.762340442984405 0.3393851030691058 0.23579535670089713 0.49471881477882546
P 5.246819101447833 2.240283727638155 1.3095020173863443 0.11416006568488725 0.27280870070045277 -0.014525190199368532
Ni 8.562382527972911 3.2370546378938077 6.298974426848877 -0.1388639961894705 0.38225362029785775 -0.2176621374352961
P 7.3499119077072 4.208900085294679 4.750037569592008 -0.25788781772456226 0.09607903981346035 -0.4779066283174931
Ni 0.1554109028356978 3.9505299637087186 11.092471989456007 1.1945052181573879 0.45631296130711735 -0.6440173760380586
P 4.262437558490491 1.4771500569525136 7.317849949196203 -1.3127708213702165 -1.1732496512127215 -0.09036039216212825
P 6.733570688793635 8.655600824484633 4.507113348332137 -1.0382024576661797 0.1917736997043084 -1.1650666011812967
P 6.147822311706248 5.610851909940638 11.506110870877572 0.7107606430018791 -1.051501488767931 1.9143544537240966
Ni 4.526585105241467 7.686112199730444 12.593948674559691 -0.43526153995345684 1.428110509185502 -0.1349381787725031
