# total energy = -340888.02123947174 ev
CRYSTAL
PRIMVEC
9.07887196014024 0.00000000000000 0.00000000000000

0.00000000000000 9.07887196014024 0.00000000000000

0.00000000000000 0.00000000000000 13.28784682010537

PRIMCOORD
 96 1
Ni 6.340048800834059 1.972775369924871 11.530848568326318 1.1530333241658466 1.0468313369857714 0.653105711492572
Ni 4.624051172426793 0.4205324509182672 5.997775320113706 -0.2341485651260935 -2.0054668935609006 0.8892746494828039
Ni 2.6954626733418685 1.3922632046532506 4.948779732683165 -0.06084644186341134 1.0922311052768092 -0.49571203193003016
Ni 3.69207770780116 4.230663641402579 4.625459305499995 -1.4825700736859628 0.40767206037096243 0.2533696181392346
Ni 4.718598547180687 5.12936303953378 2.2505362007963465 1.307898837989896 -0.8851647410794885 0.9212620010226779
Ni 7.37616600809479 6.328473238820306 2.692384027789819 -0.9833083767314613 -1.0608983566017987 -0.45931112470349283
Ni 5.171225719098809 4.6012632032859955 11.681585990813005 0.036832852557633335 -0.14438158357359007 -0.19325156980141556
Ni 5.685162514765061 7.989262245576101 12.325899930242775 0.2633925495928754 0.9468676174059241 1.0141670139835308
Ni 1.6782022835733441 6.669838832323895 0.4098956442866501 0.5744140139176236 -0.8019754127445027 -1.4411102638792792
Ni 2.4231419026732484 1.28867327322038 0.267005091014462 0.738522900716812 2.3371078339082136 1.717036170052475
Ni 0.4420021678203226 9.301122958312655 4.46184622650515 -0.1105972880342934 -0.5703753250718758 0.6724787167025451
Ni 8.679074952874043 2.403849299316995 1.368741662641307 -0.13164202451973459 -0.22089555677092926 -0.31620917917327473
Ni 6.7929664966615455 0.6895094729675425 4.690610200062259 0.12174636267257742 -0.3101038376064853 -0.2917603021022911
Ni 0.47420765106062257 7.160007140655244 2.3398042113847515 0.017158256946841418 1.6560747998777545 0.2716128806201387
Ni 7.835375362334457 3.9195216133450934 3.8953718133791484 -1.528949689391767 0.34825875140965185 0.12380350231192226
Ni 7.462043059928578 4.037510636035855 12.711885456788705 0.9680802469277972 -0.3732347046286992 -0.06486199078070765
Ni 7.975507754242114 8.6207431991969 6.630675301454309 -0.5163662178452719 1.2072931139506757 0.45977418038284046
Ni 7.151236950141295 0.6707098523699925 0.2518406508328385 -1.3488529118047543 -0.5311940268867239 0.5208437940006514
Ni 2.073432825647591 6.22753433806039 9.242321826944446 -0.5823638648923196 1.4297950959767762 2.487423780688368
Ni 9.158130721672189 4.793980422788673 1.3803417376099114 -0.8578323718131226 0.4549988704813841 0.2510419984473225
Ni 6.541781340399211 1.600614242028619 6.92331368014691 0.9446222730151732 0.43985584419235857 1.3375277165999222
Ni 3.4167336727007127 4.295958890032308 0.4794080290382517 -0.20024548462074546 -0.35830867944648614 1.242860212422008
Ni 5.784948398759687 5.596961271656355 4.7073126011890825 0.4093337643441014 0.31785519941713 0.10870855565201279
Ni 5.346266374491074 2.8833771694678596 9.404766455091316 0.6854576454607163 -0.6454641357869142 0.21043553777986984
P 0.14782492029530508 5.512754732301414 12.439896064954205 -0.3924621853997435 0.5227649222827643 0.3218992875795166
P 3.797764858704758 6.193597513897719 12.981389053423705 1.1185604871999575 1.7258684236321244 -0.43411611349510393
P 2.021238389555779 8.576356593169265 1.3805678015268859 -0.024936101120047377 0.29717478824964305 0.5148125002049069
P 6.157036895678598 7.617300852867538 5.627084061621396 0.5707105969241074 0.6964172297960135 0.5612983024712721
P 4.787834026331176 1.1749240838319106 12.946814892434865 -0.2562870488963457 -1.2152686759569844 -0.4633120183327698
P 3.9921707484306173 6.1931617280336715 8.319003251156232 1.7490068094218005 0.4347881998614641 0.3513299341358078
P 4.652404490206361 1.1111359279820112 3.7986237200118174 0.01933032489749574 0.20139399640289185 0.6956225018088601
P 9.293315128248476 5.456856116365201 3.673903621495961 -0.14467648910618955 0.3609108929560236 0.849647264899169
Ni 1.4429868634539036 1.2313855898425172 2.7010470876121895 0.324955300797021 0.5270962026682664 -1.4418000908574524
Ni 1.8484220578445878 6.2669003277793145 4.899521403850372 -0.0012102182580172706 0.46863394476631554 -0.08091107382377033
Ni 5.875755278180509 5.461976600267755 9.332599408117893 -0.8673531668193643 1.0103903205499178 -1.6675632601333281
Ni 8.624501852274307 2.2304065254262357 10.320657605559177 0.11106368614775065 1.155901389742261 -0.8422466015597236
Ni 2.355195623370566 5.413204898983147 7.263522625336339 -1.2674052487512237 -2.4118181782379104 -3.1359976657488566
Ni 0.6478882914021742 -0.17343914234189212 9.153904506678149 0.25315955901095755 0.48074435487660433 -0.7072919677269883
Ni 1.493183947668833 1.2536015900367534 11.364843206515296 0.8039785592174605 0.5246641961880062 -0.9669327635869154
Ni 3.917251895303181 7.320439890729763 1.6695782629012945 -0.1850273821194104 -0.9555234933087093 -1.4316977123161279
Ni 5.730257272821771 7.963496406364314 7.985796840069709 -0.76533179337954 -0.18823226220995323 -0.20628449172597374
Ni 5.207913441528276 2.566079666080708 5.341980238940726 0.4278025125722503 1.7714661668665814 -1.067856790197503
Ni 0.7659390504236756 7.321901589148754 6.826432127358715 -0.6744839200580319 -0.8454260277289699 1.1804420551961023
Ni 4.784520237989983 4.495866576291763 7.019544277800685 0.10448371893738781 2.325531441924524 -0.2645629157518927
Ni 7.977786551156193 7.350463720988176 9.115596205566757 -0.350884361957957 0.06452054828088888 -0.2725904140420596
Ni 4.821280591396792 0.498071466553287 10.643791007975691 -1.0517981940727434 -1.0805408134230745 0.5242972997668905
Ni 8.451376838909416 7.324879459219742 4.63015035874902 -0.9093089424258598 -1.0513598209837443 0.6210052314136014
Ni 7.390882859878548 6.238928322630789 6.971256480402612 -0.10826632590827161 -0.3307580235217271 -0.05634392600736748
Ni 2.0938421302804655 5.384724476993233 2.5747064104144077 1.248954241134888 -1.023708634925379 -0.09657629116485301
Ni 2.702244590851102 5.116516435416558 11.59215819207445 -1.3978321699169347 0.21970950688262805 -1.6427505719650224
Ni 1.0735675549522814 3.256455263453044 3.9568820802021842 0.5098651835019606 0.5658075031955353 0.13035287339466584
Ni 3.787787178192512 2.7817573532953683 2.545898241139242 -0.06974065902924763 -0.34874983211345745 0.3613500373759712
Ni 1.0648881531600092 3.150559298489591 8.286075997578603 -0.19979554156752044 0.7905499445163804 0.2552593789627797
Ni 3.854253601331868 2.6339623932782166 7.412027553157002 -1.3969060585582393 -2.762683256922158 -1.0554679296148466
Ni 3.9939502073754767 6.7467641162003815 6.096132189629144 1.0051905215165333 0.8859530413087386 -0.9216700350943738
Ni 0.8731287546710189 7.050307128253546 11.047210692745159 -0.7287087428398676 0.6779808774676969 1.0005049431154058
P 0.10211824625449488 5.735432229957332 8.315946394897384 0.6334180032556576 -1.3632472328532135 -0.5629723477395853
P 8.535964690895398 1.3229460156532538 7.976109683466828 1.3379162102875926 0.8777306533989465 -0.40880437420319277
P 2.028655828116748 3.2811770323655516 10.450094178166125 -0.4898460600675564 -0.7508163733721843 0.2815859326724505
P 3.6925861246425487 6.376346131760318 3.7386150986453104 1.1940655595168082 -0.6506019712341118 0.49477872148248336
P 6.932245474585443 3.9473029621780986 10.397062670060457 0.8336650305382998 -0.22540732859835375 1.5914470365950397
P 6.219862691078727 7.948062323679311 10.234631660221838 0.987362492196177 -0.5861153615149518 0.010729727712678295
P 2.1269164615872094 8.465830403400311 5.751870435904077 1.0780031346028853 0.902702749963252 -0.29310164662153393
P 6.900242450194481 4.43753482261462 1.6192704164459202 -0.33160417357210636 -0.812639320216252 0.555305832333263
Ni 5.524602660480196 2.9362343632279098 0.6279447329115004 -0.557001217757815 0.7474531133269063 -1.40966387244454
Ni 1.934562396971238 1.1172278512065035 7.3627565139031725 -0.26131535534887257 -0.40784432428276857 -0.5578442824844005
Ni 6.90642516214065 0.9282692847812329 9.280989651393678 0.1138607892769136 -1.1497605669518456 0.3581752391924154
Ni 3.083194067005638 1.5536038419445344 9.530708569800936 -0.8655587939231029 -0.27362014085815456 -0.548713523827726
Ni 6.286746742337794 2.3400793012114307 2.6008571938061027 0.823274174222279 -0.3896373143564386 1.7910518023079929
Ni 4.251917281147045 6.9030205850777815 10.631075139617684 -0.48324758091443226 0.14860822006042793 -0.3771299259180473
Ni 8.116239351712835 7.2181300802725294 -0.051019630033318164 -0.03744477511001938 0.21561322532606736 0.6230135200928818
Ni 7.575329226836497 3.769257200098341 8.329433967389644 0.9178779150417933 -0.043029725396964605 -0.7244679652856426
Ni 3.244107997305042 8.486439443220874 12.539768198234423 0.10462512961125851 -1.11255464732551 -0.7651402461940242
Ni 9.387099877740287 4.687648671961172 10.401926221880665 -0.5611175539190336 -0.11572561039979423 -0.6392865462212926
Ni 9.308567633490128 2.028946352026113 5.997058089212461 -1.5054788599633362 0.3454883877533663 -0.2046256159663121
Ni 3.672421949558201 2.792080030949985 12.059744621663205 -0.22158589796973452 -0.769592368428107 -1.7285788805847522
Ni 1.234363459913506 3.674246802863898 12.846279093599192 -0.650520467263899 -1.5500080527239628 -0.5359868202896769
Ni 2.980384918579185 8.159454783230842 7.803846255070646 0.5866123557560284 0.08355982430052705 1.0660220509816092
Ni 5.56076380832394 7.951739266907209 3.4989029131412335 -0.5264637112905901 -0.43666253406604155 0.44100332753324045
Ni 2.774394387967406 8.417912116099462 3.461258277585295 0.21476398995189463 -0.08670634034930874 1.1757798738337428
Ni 3.5315178535162945 4.093627144904091 9.11546274614589 -1.347174752771383 1.7259041619660662 1.1068154308488873
Ni 7.139688624744045 6.141148869385213 11.20443224573398 0.9225876618126369 -0.055121623564492156 0.729065611958654
Ni 0.63404301134651 9.007866308425438 -0.3022138651678201 -0.49846465497450276 -1.639516895519073 1.2876547430288792
Ni 4.682800554223648 0.4144205541750061 1.808555822269226 0.47970022988280614 0.9633992965123601 -1.6173948668090532
Ni 5.944872731992818 6.002768699805912 0.2765397225649266 -0.23507879024984674 -1.397725212025425 0.056765844036134494
Ni 8.26444286097753 -0.1834004808842362 11.089691643504803 -1.1073437925485317 -0.12009905687714156 0.38406059159960954
Ni 0.16657551498314976 4.720042087855343 6.021932383177385 -0.5002651985183514 -0.06740866846196132 0.19664748285684197
Ni 7.812069897480103 8.924649366136771 2.454703693876862 0.3276287338641261 0.19876530053079317 0.33930796997426727
P 8.279014450806606 1.8117888086481255 3.531391657193164 0.7584011276979777 -0.18785276738334744 0.21976761381407314
P 1.863765351807914 3.2774274581603127 1.7571049458079446 -0.894461335890066 -0.46215939278556534 -0.8632872242801068
P 4.9432098446083135 0.9613980893209827 8.449117107626888 -1.066041591365635 -0.2339323353502294 -1.8863559116286415
P 8.574005165277844 1.6855561700291393 12.401707604955424 0.3517163709409491 0.9095298001874143 0.2709608488584366
P 6.298985062019784 7.7587859967281725 1.335654620913528 0.2635501582166622 1.5606534482529508 0.4102732454392353
P 1.991559556439736 3.318491196974587 6.098603458633178 0.9112884347497338 0.16240038874851384 0.27438941492401137
P 6.696594268601955 4.291846160940363 6.355511028022781 1.412005118983207 -1.6151322960271217 -1.8915564819929744
P 2.4182483905748855 8.44379598064943 10.220214411219612 1.2502755310494726 0.38953138490619366 0.8659508871551991
