# total energy = -381168.82960146136 ev
CRYSTAL
PRIMVEC
9.21087532287038 0.00000000000000 0.00000000000000
0.00000000000000 9.21087532287038 0.00000000000000
0.00000000000000 0.00000000000000 13.48104708456330
PRIMCOORD
 96 1
Ni 4.141016161469807 0.15948446576156228 11.307390409762096 -1.6515149484212137 1.1050886779657678 -0.6318419170177894
Ni 0.5114310945590488 2.9115669318557305 7.573073083862391 -1.0365852337777308 -0.26874738614688554 -1.346932811963906
Ni 7.767844413366678 3.6608255930804794 10.661405004859407 -0.39924218443605436 0.0015622022807973096 0.4952710877378696
Ni 5.03122884928159 2.955005420347167 10.635292173037266 -0.7881793874016748 -1.6246446063929312 1.8169065585875674
Ni 1.3659636142475755 1.5282592391880157 0.8900911042562096 0.47917238240379406 0.03850535516404981 0.6730068212918732
Ni 5.95952850696447 8.212812594141235 11.22988734069647 2.913720398139053 -1.8066252312662177 -2.972618715137158
Ni 0.14899051539296732 7.7698523842087335 11.896080485188083 1.1386433739927617 -0.7992898954925396 -0.3340361800523667
Ni 8.701108732902163 5.553255213838879 6.76288908715702 0.5388679984922139 -1.244179959674696 -0.4708322379692149
Ni 9.00546368948031 5.9867834873389745 9.112662620907344 -0.10183085469557301 -0.18416760522227638 0.6227031879413146
Ni 5.956700768209832 6.414131263430725 4.620345513007151 -0.09060130452834073 -0.5074480894200357 0.7941250634621484
Ni 0.39330530161857397 0.5798890839600039 8.360311868803338 1.538357355858912 -0.5034207134281975 -0.20543757034464621
Ni 1.7964338771074768 6.1108263466507164 10.328437384869513 0.5233758163938858 -0.09868768108090101 -1.2699236442977033
Ni 9.238415939785002 6.184992315550854 0.48432440927884324 -0.3842022593837963 -0.4412190430884724 0.7753902060568066
Ni 1.601310692162058 5.98899409744032 4.0588468629152565 -1.5325970563363671 -0.19303534002555142 -6.635816713232313
Ni 1.84253430859595 7.783493690709119 0.33666854973456317 1.259630232791495 1.0141209912369435 -1.169855537929508
Ni 4.884315386296345 0.8289401023277431 2.064581803488213 -1.4643401809414975 -0.5406669993741656 0.9195252208372292
Ni 2.163514895311299 2.9879895652343245 11.90613691897412 0.3701810054040399 -0.36586592296845377 -0.3336086055966448
Ni 3.079812782318958 4.358696780324371 3.8205827007545405 -0.733994159608523 -2.4998985161166107 0.8166664390977743
Ni 7.935721828813015 0.9051389114335759 6.6376230235892 0.3023558182299502 0.08059637079682894 0.18186004013502227
Ni 3.1708254423664317 4.127991983622713 10.165006058989508 -0.24689686593069735 1.2507475855898849 -0.5841381831839231
Ni 7.194577948835288 7.390327473309421 12.959923701234954 0.49715262103129865 -0.8096298439659668 0.8332953059037068
Ni 0.48110336614367455 7.923692425511526 2.1589895922163365 -0.007011655431142763 -1.124761988024979 0.6104788779609809
Ni 7.958887180500031 5.618449790077722 4.360134597977787 2.8588633410898567 0.254104182312414 0.9702749405862708
Ni 3.452429536651566 3.296802585516851 1.641829333144634 -1.7291262684477897 -1.3395797140329446 -1.065431468585462
P 4.506678704858599 4.028044774415635 13.263085849445915 -0.17483450074680856 0.17142290396209833 -0.5468996105474387
Ni 1.4791929058135704 4.151212600562261 0.23355003611959693 -1.0431096651598097 -0.6206491336257633 2.40371457529417
P 4.096592109308187 2.1289464798515105 6.689740919991045 0.6532795180662749 -0.4792685416620262 0.4849131415423133
Ni 6.037378826033517 2.3579196319737803 7.535285467442518 -0.6408376927584964 0.25251061257304896 -0.1823063836438215
P 8.516320150180533 2.7815738470211993 12.852587527764129 1.3241296980264616 -0.01867006560567752 0.025417411631840095
P 6.939335380008697 8.394810281609917 5.724861191656151 0.08975412603669704 -1.3620868939965252 -0.12847802496945615
P 6.895491612998681 8.266180406337883 1.6215138263132702 0.11685638157012776 -0.8586646379064309 1.135942944342463
Ni 7.455310199413553 3.3227772542076592 6.051817794345471 1.5050055198713435 0.43273260288401605 -0.5608221341658018
Ni 2.7687430975579743 2.7111659152933494 8.316498497682213 0.4683272121591741 0.06953368522476411 -0.8304097568257957
Ni 3.812372126403127 1.4390334889724627 13.28251158571149 0.7930691113938084 1.1903832255692144 0.7991500274805656
Ni 5.457848966214981 5.625588218529984 11.21058318798647 -0.4156597065621293 -0.6233907009266425 1.5981007944661316
Ni 7.913302558035204 8.148032507296394 3.645207632714474 -1.2177161090562125 -0.08771164168537152 0.29874933182561453
Ni 6.449639188183585 2.4473572323240456 12.301657436131748 -0.12418325424884419 -0.9032982174554055 0.5935849304191196
Ni 7.909655051367984 1.1547582408148696 1.8666400906635792 -1.4439690734843131 -0.004088054026444572 0.8434226241456958
Ni 7.065542795044673 3.6187226815252718 3.7413682510354556 0.7632116617127436 -0.06892510510648775 -1.1111523676613442
Ni 0.3577061891990334 5.031763080056082 11.86254000342542 0.8500954081801811 -0.6728399566967057 -0.5005819584278218
Ni 0.6495721197921214 4.0194694493975 5.294788838614493 -1.136464621173888 0.4488379930863109 -1.01646892264383
Ni 5.759219599156312 2.715845040007864 1.062794097336275 0.8733636346795024 0.8189444364986734 -0.38668954458202437
Ni 5.165818160951834 3.972751889255734 5.121840836248195 0.31674653973398353 -1.8768831962515162 -0.07995102390334619
Ni 3.3835598211192353 0.40390241379189845 4.018080449383821 -0.405839635147914 0.4582433455606108 0.15907183859591315
Ni 6.071477486846769 0.3373621286538603 13.68420615266467 -0.027549627483494488 0.04547458739303136 -1.5260553985631073
Ni 8.412347788413923 8.323269412205127 9.820430893792466 -1.0539139548641656 0.17055541375548047 -0.2764411552467175
Ni 6.442841562121949 6.388939519150809 9.25996938827312 1.3523884357618385 1.0126156103360109 -0.6916210939589509
Ni 8.009058818925148 3.750825056831503 1.3127855460846283 0.2897363296937268 0.0928340505136014 -0.02814895163039023
Ni 7.373314986404484 4.694608196099223 12.795697476806007 -0.9418259412169587 1.0576711079137524 -0.12641651445473712
Ni 5.151983426067581 0.41887008635309103 5.99754271091973 -1.2561319898302494 -0.5441261615673597 0.0276558140440556
Ni 2.51202678866382 6.010390961046259 1.6553241867258055 -1.1115048659047566 -1.8728496496120908 0.4310991810456511
Ni 1.3174407225230447 7.522227209356362 7.471222907793071 0.6763986205822415 -0.23680348625043732 0.26813186405007366
Ni 1.8814778898813178 5.0012935041592055 7.969280732326522 -0.2576697881764853 0.31982826398310077 -0.5595070148988042
Ni 4.826203973257228 4.732529370212718 2.5346394878254985 3.0341354435947165 0.36046634921943727 -0.6397526872244337
Ni 4.699158368557826 1.2105577241229954 9.140244587359337 -1.533014860600076 0.2492072592314289 0.1973501653508214
Ni 3.9112416631857987 5.588192064315558 5.9063025422493265 -1.8612786569450395 -1.3080423055462957 -0.20284692679933453
P 7.901586324498074 6.048487141792777 11.092799118524162 -1.187372977987981 1.3552639575374208 -0.5095173132442385
Ni 4.321199306480299 7.327159289663477 1.6392816050028338 0.05505323222040196 1.8612606592229106 -0.441332171627569
P 0.03298506597469972 1.872967040991138 5.118820590197232 -0.636811859428555 1.334435965048476 0.5002178902201837
Ni 3.835574321591831 6.362052973793197 3.641514071670143 0.39050429034242423 2.722871524241859 0.7124267178503925
P 2.405521436156084 -0.1871005124526194 2.1836867124860757 0.054592233423583394 0.5297740066107457 -0.6387389012479386
P 0.1256593679483513 5.189812491426854 2.5877816335742994 -0.7407322496633049 -0.31131816962956066 -0.7814263849485574
P 5.689686700593578 4.334389280084993 9.418789749916735 0.5144561453067528 1.6577596437793451 -2.413399920902734
Ni 6.164498117736298 5.333999535287107 7.0262003828535216 1.219294509286926 -1.649086027264747 -0.5737925782835408
Ni 9.139997735898021 2.693370503977519 2.9411596324124067 0.3003652701624827 0.9638073305840563 1.3753255041739862
Ni 0.6977671043516195 7.731682516458837 4.957897385694711 -1.6137711540135369 0.8543405566097801 1.7783919474521372
Ni 3.0494721586779927 7.836115421996561 5.509218939532536 -0.04630222550064929 0.1459815810708583 0.3111122242663416
Ni 5.0306025097528755 7.185219699406259 6.700969898218337 1.535434268674846 3.944937168516019 1.049286226284167
Ni 7.608763383948611 3.9662674329584546 8.41636649336066 0.279193521180874 1.0415963138390771 -0.8793005689892276
Ni 3.192913121629041 0.05071784333765856 7.696923435877808 -0.11107422767071194 0.43518569241019894 -0.4736347404150166
Ni -0.4267149889502405 -0.034351038799822715 0.2528440568666309 1.827818063293749 -1.2719393891761512 1.4404615745516869
Ni 5.687070811973652 5.881309752878533 0.5215197664090636 -1.4587665435084618 -1.741597147221291 -1.3063988564056017
Ni 1.8257520935765696 8.707455026068109 9.884101991236466 0.6116878106674175 0.004915949244378631 -0.026622487683534795
Ni 0.7329544906397846 3.658283391463932 9.76223289852438 0.3769646039847766 1.0368701120080015 -0.09594302845622832
Ni 2.81059731547678 5.58718807889453 12.52900210547936 1.0701458433419957 -0.29971606661425804 0.050790857399622205
Ni 7.78053699969857 1.7068765353767221 8.991710010299773 -0.5092262643663811 -0.1998654755735074 0.9154119699998041
Ni 4.206348900839985 5.623156547418504 8.301763860269205 -0.6443505910077613 -1.639129430272667 0.9697882307578394
Ni 2.006423414984443 2.361640825644378 3.462041085154707 1.4472793688044687 -0.30868253177892646 -0.718714350631317
Ni 7.0238635837588905 5.898451192039382 2.260946614440554 1.3012232257419332 1.0245979795088676 0.2599470142464362
Ni 4.323667821093468 7.720380772315708 8.938122979268076 -0.2816260418817666 0.9145593921915216 1.7019918741248432
Ni 1.9982257358586204 0.6035076107177948 12.230841462622694 -1.3779778541951686 -1.1935366835965315 -0.36512981613337764
Ni 6.772986969882457 1.079376436358992 4.473079273493234 0.6469101242048214 0.9838292822319379 -1.3337728775431803
Ni 6.148600146757456 9.019372111367941 8.158500667213806 1.6100672227993884 -0.9329409800225029 -0.14543830697287854
Ni 4.660288474275836 7.5681342124609685 12.71912562724557 -2.8347528211948987 -0.766035504314784 1.8478395007209985
Ni 8.201123993230372 7.553065220270129 7.526387761784602 -1.6972574447636513 1.923646420548984 -0.6103500656926005
Ni 2.443820256161893 2.7434592445238364 5.683218823872058 0.6247580135878144 0.4699282380977068 0.2122617923553312
Ni 0.7072625958244401 0.4171412050363305 3.7217131639718684 0.17873332158058253 0.3208178815898798 -0.6664211976545555
Ni 5.340281352325095 8.296880254120316 3.562151326856759 0.6016581943455573 0.5726592360100461 0.1987979535409415
P 1.7998695336399841 5.899860455978989 5.898416190712777 -0.47514140686753015 -0.01503812528004507 6.81449861274967
Ni 1.5348542259903626 0.6451177404379104 6.167713634346214 -0.6349717208960226 -0.6949113346744483 -0.45786976427127596
P 5.384364602096092 2.5709856022417856 3.1988366356131044 -1.1755608158444013 -0.26162928704486554 0.7380742432151676
Ni 7.827226927214069 0.3961625151745629 11.944046118949565 -1.6211543338514853 0.21516482493473912 -1.251971687804973
P 6.34767479725903 0.8711378858997997 10.48452027433763 -0.2044117001832931 1.542288572592518 -0.9916287236716986
P 1.847701609707845 1.801011682192346 9.943296603225242 1.7394520758538303 -1.2622733268412971 0.005841289272125424
P 2.469012000441808 7.578800406199959 11.654027889966184 1.0394689830834292 1.2107697596453664 0.8288174726380113
Ni 0.11890411191365673 1.6402174299457366 10.96540257947117 -0.8889895141422174 0.47461844448452445 0.6093362797161055
