# total energy = -340864.14784885355 ev
CRYSTAL
PRIMVEC
9.33257806700895 0.00000000000000 0.00000000000000
0.00000000000000 9.33257806700895 0.00000000000000
0.00000000000000 0.00000000000000 13.65917135251519
PRIMCOORD
 96 1
Ni 8.134051214316205 4.565730590704478 1.364535863255439 -0.7252814623258735 0.3776333479170271 0.2648701625796664
Ni 1.901755463950934 1.6928083696788043 13.360677665844083 0.3612137689084231 0.9617877290508661 0.02358858595321744
Ni 4.5019890813079595 1.55797127923065 0.17931615835207895 -0.08349966048655297 1.152680054591486 0.08926073134004628
Ni 3.147216028152037 3.7811407378545097 13.651153230385178 0.7259998285491367 0.3222273603428967 -0.2011929361356793
Ni 2.7151643184138514 1.1255555989410058 9.559220838413397 0.6097360862576855 -2.091916123594081 1.0920727253220741
Ni 7.461638951941515 7.077052735144866 1.4755048848483086 0.9789400724604366 1.8036599779903069 -0.23429717488881582
Ni 8.348784507098706 6.414309023829444 3.6248713814723725 -0.5546049496114964 -2.214377510055812 -0.032973112491910955
Ni 8.752185201632308 8.545739238329178 8.586633662930145 0.021740991221517396 -1.185073640430843 0.22653912820995178
Ni 4.9544978025537825 7.985523231586251 1.7928349432823008 1.1494574338891301 0.8555690297002426 1.0668640872669304
Ni 2.1667260254130047 1.420735716174164 5.61019075100697 0.23512224189327247 -1.1487020437803444 0.022568115108503067
Ni 0.23291782148808216 4.3365877971155005 3.4440097481633294 0.7151027220206587 -0.08073778147069967 -0.05336658854659842
Ni 2.5354935220885557 0.2677694016770071 3.3308298387848034 1.1898533212076734 -0.1272166417585293 -0.14774227251570687
Ni 3.6183619081482035 4.849487632168772 2.108743650049955 0.5438207145117989 -0.6627854006741811 1.1819803462174998
Ni 4.511116342829159 4.506244736986555 10.465725893876906 0.22928172395209542 0.21498176238965555 -0.6270236696935395
Ni 7.361593713181534 0.8012317063720571 10.353392449344977 0.3649184714535199 -1.0900294696398 0.49835769708299327
Ni 3.4853446704573443 7.535860946704401 7.713675493217256 0.21200879580426069 0.7834107623684379 1.9052802593369704
Ni 4.34015284200415 7.49437763641633 10.333928424162345 0.5855422626203013 0.5274427873744078 0.2943532596404479
Ni 7.682335762220997 1.2091754999941247 8.203383871337826 -0.6650274026308225 1.3525311319872901 -2.167685505315912
Ni 7.674701713218603 4.629864068387182 11.851722020801056 0.6770395966003501 0.6369635545150707 -0.24715166225398083
Ni 7.00470658860873 4.8326609935974805 5.517841156265783 0.414799415444363 0.09135438064428138 -0.78559028651826
Ni 8.246751429173065 8.90313965470532 6.0133543980532105 -0.7485219209110529 0.3236378675371781 1.4704365236472225
Ni 8.96478133399727 8.34309163437076 11.09145193359331 -0.021555100462956424 -0.07186876111584396 -1.2261832659869594
Ni 5.911572366482294 6.214526521391484 3.4403215132418796 -0.11768556233964247 0.05876281986150526 0.14632945132858025
Ni 2.0216604292110314 5.608907521498621 12.48004345052671 -0.01880016342563859 -1.1507404143666118 -0.38715825668832676
P 7.954203099004301 3.902809560402446 7.302985121818411 0.21489023111711378 0.7718094306840837 1.7152878199028005
P 6.1428989833800225 0.6929383349613225 6.362004589069152 3.7722343694002323 -0.5612394242088785 -1.6039197151407538
P 4.085765424269114 2.544602118453271 8.688462357392275 0.07191169853863745 2.6719703665166175 1.4937859970064404
P 6.2865180299544035 2.5581903523744027 10.97405183233351 -0.8855043838070943 0.6711682254212376 1.0623787978020671
P 8.286433551860327 8.389829186209377 3.688180792496261 0.9243282986528275 2.2367576775232254 -0.0843892621803579
P 0.93660821984263 4.752942110249741 0.9796547369863253 0.8780134747466878 1.5515386304358763 0.017519239830685956
P 0.7876836025373682 6.519169872962573 10.53609726685692 0.923799422732551 2.099349697053991 1.4025087494569974
P 9.234175537546301 5.7467776998756 5.610955089165034 -2.996683983616478 -0.8081041513500599 1.6792352971546178
Ni 0.41316537114876617 1.8520968151224018 3.9627583100011976 -0.07719223021128642 -0.8026534126481337 -1.3729775727670999
Ni 0.7863546433956311 7.301995868524702 1.7838196727000115 0.516460063110659 -0.7611943741723988 0.3007995294864239
Ni 8.927441688448884 2.192315954954037 1.3746999742193844 0.03897303882908772 0.1354403152199022 0.8623176612779858
Ni 7.471316835579025 6.40016083521376 7.379462800742517 0.20718180672926256 0.2721008760001507 -0.00021828665839317244
Ni 6.05643264596293 0.6851073685580109 12.394796881085915 -0.36391754099283136 -1.8543762733982514 -1.7955283500221078
Ni 5.6545531616828635 3.787468225902949 3.5279590892284096 1.0471383267032288 2.3737206000352407 0.5480411803510497
Ni 4.64693335399278 4.994833205718022 8.04761474114949 -0.7504047397560625 0.2858760754073722 -0.6534348126972166
Ni 8.148675364422258 6.3596294479064275 9.873996570182408 -0.7393477106109524 0.15088261791690144 0.9629658085193673
Ni 0.10703160683234375 3.523729564768893 13.115918669081873 -0.01670368590792607 -0.13628775082186204 -0.8230576873360987
Ni 4.385023878194261 2.297858082298872 2.3591712548366823 -1.3240790472941841 0.23813737457051248 0.06145836441579738
Ni 0.24108476070812507 5.513780551472456 8.399133766717187 -1.0891113287009049 -0.1927142092407068 -0.9123243322134158
Ni 6.058756457945322 2.9313348282457037 6.980424153279476 -0.15108496373569466 0.5479990142592046 -0.04511720405361262
Ni 6.3470211347007615 8.651281365674013 4.5520415649383255 -0.039710688326060645 0.11234075308796136 -0.22570171991032098
Ni 1.107543722932912 7.181698934978418 6.800409918074856 -0.40665390351909314 1.0727647690220816 0.5453417791420158
Ni 0.7814839708108517 8.908123251486835 4.741276387446572 0.8730152502011482 -0.4693615669609594 -0.020870929911738247
Ni 8.056842794515708 3.1115002512178527 9.92870134406668 -0.11326429334349525 0.5942248779959638 0.019850459067023877
Ni 8.695135150835688 2.3140221078149437 6.058320626541396 -0.03719434966211014 -0.19783687517925283 0.04563091046523754
Ni 7.400510564452907 0.84716945625529 2.654086326847753 -0.4714251343582075 -0.26946575237014886 0.26163211525834296
Ni 7.084817440242656 2.2333606340647085 -0.0763563554069535 -0.28934449357194686 1.6974297086754573 0.9737230470358713
Ni 6.82060281761823 7.704472637812292 11.248231782005314 -1.6123663032462099 0.692543348662904 -0.5483211734853137
Ni 1.8460399718429963 3.0240913233982645 1.9169964974788187 1.3539938325757455 2.0643364142036 1.0127477650385008
Ni 4.214657662376773 7.816603565396357 4.22583342482221 -1.8171263879078576 0.5981247272710021 -0.7535877654697344
Ni 1.415630795875497 0.1821411297860945 11.733091885728888 2.472595971646916 -0.16444724397521357 -0.9374054435517598
Ni 5.353316201170299 7.704845940941993 13.117612532032892 -0.2514713726752572 0.6764189322972157 -0.4267843557203811
P 4.78988978751194 4.936411265919748 5.472710674400529 1.6815636881774783 0.027861245186642337 -0.4360855785166489
P 4.118326789757321 5.89624827300805 12.757939632854692 1.2031778062307212 -1.2544877693586072 -1.8754174103392667
P 6.153575452889483 6.952154840525012 9.137808267871703 -0.6519127196257354 -0.3619275071459961 0.02642708384327707
P 2.7410062275674325 6.841087826860597 2.9727406781343606 0.1869135433985297 -0.32324526008444976 -1.4722164983657808
P 7.915080931011593 2.968235842616689 3.67961721870091 -1.2977406665099716 -0.12276580507602727 -0.021613464504717614
P 2.2290583154948997 2.990363385629741 4.142799609682722 0.9756210353895327 0.5545558415411159 -1.01245363083685
P 3.74849537916212 9.605462830347337 11.801142246499985 0.05008406114058472 -0.6958315324958726 -0.32470410401816335
P 7.5957574338649945 6.584628576755717 12.930222760243195 0.1771811466021142 -0.4607540277976065 0.3857824593867227
Ni 5.781326904529466 5.7773045633069335 0.7387435622335116 -0.5795392509593309 -2.136074049058218 0.3835486849601975
Ni 4.112615251872889 2.929048346576282 5.343372339052877 -1.952774705373508 0.7471191270262552 0.49825742405970325
Ni 2.7015574193362344 5.928986957482865 9.75177432574469 -0.12830833216081128 0.35758748500974546 0.6283228481209372
Ni 0.3499828831889759 1.6704195144749614 9.60969142154903 0.5158342566012019 -2.4692052007978122 -0.7929279578302538
Ni 5.7911914397318265 8.802161158121086 8.029120370846256 1.2755016526061131 -2.6046578573128882 -0.17602954949617428
Ni 1.36065257744872 4.110020795121464 5.735267831129081 -0.03173564054038405 -0.21134570829896504 1.2168319066790463
Ni 5.555179868556344 4.127220736822458 12.471657195717967 -0.4472516224357974 -0.4948190878021156 1.886166678435971
Ni 4.472572794687487 1.188149201213692 7.28164991469815 -3.94298852943008 -1.003326214614285 -0.5438795927741923
Ni 2.4088784330720756 3.3014742139229076 10.029998081568985 1.6845505387199442 1.1792745172505625 -1.65323861598054
Ni 5.837639681644926 1.8273374850449549 4.556330817898595 1.8600347572356097 -1.9390172465780993 -0.41136416451056895
Ni 3.9620900973990323 2.4732918881020565 11.685462139410282 0.0947135269245014 -0.9530621762524102 -0.32353836584483636
Ni 5.238628147147779 7.0389571507588355 6.091512874318798 1.4144682358117187 -0.5723777002138852 0.7474099187937967
Ni 3.371281899177074 6.7239453047602895 0.8566336238510454 -2.052187180435575 0.041855502583205334 -0.3136169929660663
Ni 8.72871376735233 1.0540400518684554 12.304864424109546 -0.7454849338569419 1.4218439594504997 -0.38458869618893765
Ni 0.6434672709554655 4.434682527022793 10.741640769843997 -2.0645243618446893 1.7350644883090958 -0.05863092226933128
Ni 1.3514879856145499 6.506514896865695 4.532167839570847 1.9514606145477746 1.0706227829784143 -1.8823287927471195
Ni 1.8611774137523889 2.271418888137769 7.697735449579005 0.48071684407277854 1.7206318578235336 0.3130456938436286
Ni 1.7449588168980932 8.347953907635121 9.459003880213753 -0.29660657445099886 -0.9084165125185775 -0.2207294635067102
Ni 0.8087052350286795 7.416114635274427 12.848650426856489 -0.8264044923211444 -0.007518419864232213 0.8640148464747507
Ni 3.1141227057040055 5.922332829195937 6.128678933911872 -1.201259763272402 -0.7025297704516547 0.31726101747655683
Ni 0.17640999348735337 9.260353419516614 0.43633816292498206 -0.7024009581832742 -0.6408693173273802 0.6988628631230287
Ni 3.3121973463235808 8.98513568714424 0.20925693586978167 -1.3917399409762676 -0.023134014914302097 -0.035082445525429905
Ni 5.028122512309146 0.5304170844145106 9.823075223517662 -0.6108383181829287 1.2761418572932732 1.6322386166901048
Ni 6.692317197096336 4.742517620352829 9.257134613280764 -0.8939861960258604 -0.28893157440424433 -0.7589570002014477
P 7.049110995886714 -0.03747216815942893 0.607129944310329 0.5974742381711968 -0.012835461201771441 -0.23337929106023678
P 1.0041760863185876 2.5106875291198962 11.37188844371891 0.14269416856883813 -1.860747724142234 2.5775478884699736
P 3.109689731038801 8.675956702547277 5.9823347744906705 -0.7565604749448132 0.2890439316123925 -0.43800670679876175
P 1.4508332810063416 1.0711560003652656 1.7022062759690377 -0.3382602454360432 -2.8439797391098054 0.33288046918136865
P 2.0826021651347886 4.7694421085825445 8.180873692616832 2.3189877272687354 -2.1994658830513023 -2.633424902143252
P 0.4283494759493716 0.7336153104892381 7.454451933436938 -0.5091193064748716 -0.5704318893414241 -0.7277713186272626
P 6.164214592085974 3.5119798487615403 1.4610804519166454 -0.8991808528529224 0.6020883399044404 -1.2091569066322918
P 5.007068215793986 0.3895156846243567 3.0662792433436468 -0.2317229864037364 -0.29838114985291836 0.49682069161317666
