# total energy = -340855.0703759624 ev
CRYSTAL
PRIMVEC
9.35287073122338 0.00000000000000 0.00000000000000

0.00000000000000 9.35287073122338 0.00000000000000

0.00000000000000 0.00000000000000 13.68887171780388

PRIMCOORD
 96 1
Ni 3.9378391091155915 2.383831600156888 8.088069750846847 -0.13011144680782108 0.3705499587076844 0.28919999757428255
Ni 1.3687271423539962 8.348596767297332 5.818495623812275 3.319506554341212 -0.08952992584103292 -0.2536902347034469
Ni 4.162186416220443 7.672533868778672 6.8604381438045765 -1.8079904870448607 0.8051386409638328 -2.65297222814756
Ni 1.1327916285745745 1.544458228075139 8.38670597384794 -0.7301369906459619 -0.2502495844530142 -0.7148769791630978
Ni 5.237504654952214 7.168236438846354 8.614954363280445 -0.8417886880866986 0.5586199843081605 4.2432735811739315
Ni 8.811171041478836 4.4276676482282475 10.873043165217059 2.0405704221322534 1.8648524903392267 -3.2036629303063147
Ni 2.9134940151589666 3.125027889540524 13.323788942801341 -1.533730398609862 2.476051020075052 -0.17172706546607847
Ni 7.910779541596527 0.828796210719141 7.503952117344891 0.9105615838860384 0.8352022931184325 0.7303984718374646
Ni 5.2722412163641215 0.49063382127139776 3.806368612939297 -1.2749871748635395 -0.7661835998568741 0.7214862569494993
Ni 6.3548266355528265 6.999912826641159 12.362338162487827 0.14242471695753534 0.9647051598079773 -0.7178574019476606
Ni 0.9370453997674105 1.4541469095524207 5.851746014085693 -0.5868969768759827 -0.4244425949610819 0.7956170746266427
Ni 3.757618645505995 4.485122332329849 4.323644086117485 -0.13127435676767069 -0.35087947686195053 0.9939432307374884
Ni 3.1060415622206072 7.360176049318934 0.9994898403346154 -0.529204764370837 0.051065708327563665 0.3190152811635022
Ni 7.8310556725940765 6.950211672267741 9.278139294268666 -0.7374934310110332 -0.3622003011914085 1.4655442285519276
Ni 2.808900863228606 8.325551294136604 9.940530166542864 1.1057839042605795 1.9523216769964893 -0.024415195619570854
Ni 9.122041754513024 6.208716091024875 7.341602183592518 -1.1012137683913938 1.6482182799478131 2.0516153670925052
Ni 7.105703146008441 0.42842881419157713 12.288253139170687 -0.864779235444601 1.4596309483912862 4.305147950081224
Ni 8.703425972155959 4.7070098344666516 5.93452266005229 -1.6559948385694383 -0.5711584830948034 -1.3684020375812755
Ni 3.086138653581798 0.601345621148896 5.47376938977679 2.0884942423967257 0.7955072885216558 1.758763117477616
Ni 1.8561894052046137 6.645560618183182 2.7826323908587938 -0.9485462906599278 -1.8850109675649729 1.1590131958983652
Ni 6.8778391595576345 0.38142315712535113 10.236866518663184 1.2458637751350221 -1.5232590667648929 -4.602962943018028
Ni 7.973172541375426 4.2527222036375845 8.686465476608205 0.14333951546232088 -1.0640595279385998 -0.7399912577322224
Ni 9.206170825568519 2.5711134810701974 2.5162747948756805 0.19858043821349672 0.17256755908950283 0.118834331232105
Ni 0.9667594696666106 4.036755068591178 4.393662481297334 0.10864967738961934 0.007716651917967356 -1.0592685343078594
P 5.06026775706432 4.835134808828989 2.1784332088895497 0.13329524385244138 -0.5754321707694928 1.0971200579379945
P 0.619688470971468 7.741305526307415 0.9264878794330645 0.12641574312378873 -1.1310251953258714 0.5111648761499906
P 0.7710665522218723 5.883647720418454 9.515340251440396 -0.35247021838783815 0.6489580078727856 0.08308802687043111
P 2.0074440285630852 0.17362575454887047 11.48701609696429 -0.39476435117035885 0.02126765112952466 1.116666098390722
P 5.0192367137379765 2.393979464758913 12.367101579484888 2.2941729822179004 0.2755171007705513 -4.045196050738782
P 5.395904871449808 3.821395870133834 9.107110831885677 0.14573321250547805 0.7303596481797292 -0.24705910254017452
P 4.26893072838902 2.5188309344109188 5.772350430841336 1.410515678921874 -0.06056027808156022 -0.11956092498548442
P 5.189122255333529 7.655558408637957 2.949609189697453 0.7293939418323503 0.9468617038686532 -0.8885655392309213
Ni 8.548224437403887 7.698731259331917 3.5370536392721657 0.6420142295651007 3.7825470641801497 -1.582787818258145
Ni 0.9393836174176466 2.132164558026678 12.159277053583663 0.0634432560563101 -0.5278904164347876 0.19638831565818435
Ni 1.8451530178954993 9.145330402309375 13.582317250804405 -1.1199211149929098 1.0656153024614936 0.9729673998167694
Ni 3.3272930691565463 8.35789352067467 3.8796867008671603 0.08619649059242575 -0.9514444381433291 -0.3960607013842791
Ni 2.3680907189354983 3.3136752895615715 6.141047136939982 -0.16009076677873074 0.33191990504031227 1.0763918242517077
Ni 4.101065406843271 4.868113030567918 7.204617234909907 0.2945036691753832 0.17963989255525192 0.33619950625227263
Ni 4.005834478384457 1.078451450383088 1.8372788361365644 -0.7980917614193802 -0.27854945983897195 -0.6484281035112446
Ni 1.9627279542199707 4.025316507846224 8.852347054299493 -0.33520268955664206 0.10328969862928665 -1.860830770774344
Ni 2.9244181680208694 3.8348640037991943 2.3391950252138813 -0.2492661374938223 0.32441974000852514 -1.9249509982930206
Ni 1.3612729044850436 8.903081700874317 2.566869148391489 -0.44396369571314503 1.4069421026380027 0.2800437849963113
Ni 1.3004979513201071 7.441695669476765 11.592872821712836 -1.8753027391382733 0.2567020249465773 -0.44777432770848696
Ni 1.3558669452776977 5.196323965696257 12.034639764668421 1.4026203353341973 -0.7185238318870657 1.0316615712238684
Ni 7.136025152496702 1.2678844915346141 3.0169723049136943 2.4432576276941145 0.3121779465266946 -0.5121606644043566
Ni 6.20836068194204 6.440358637198463 1.1259593566005845 -2.708289769772942 -1.9139317643643812 0.0377327386640834
Ni 1.8103135749069819 5.629520873320195 6.817838624078456 0.63968918097635 -1.0006224425298766 -2.418237708611009
Ni 3.5210190779139063 7.964764310705178 12.41487604251451 -0.4576702466659602 2.145777135278595 -1.3423824735890624
Ni 6.652060863250838 5.261588296749646 10.514367124680263 -1.630506978710979 -0.48896365746260306 0.3569465089916369
Ni 7.089522679868807 6.16667493767363 3.442997431360829 -1.9984709218590422 -0.5030910980029206 -0.44059426502027993
Ni 7.503097264971965 3.948997083742518 3.4584661440477302 0.052412452163445214 -0.28560019603816617 -0.1060747175735915
Ni 2.60422264299754 6.781205300508677 8.494095634087982 -0.4350393966403217 -0.9682517395086551 -0.5208787610036449
Ni 5.895329455799033 4.1514867322529625 5.487978270793744 0.862829567917398 -0.05894613951690493 -0.5825168455304162
Ni 6.534962923327015 2.5587957504887537 10.807761063709526 -0.7383226117805478 1.2691499993564723 -1.026863378504277
Ni 4.7421672750556025 0.6783337755005693 10.473698037446177 -2.202212592558504 1.613867570382085 2.5496827866285896
Ni 4.3028722957998475 6.030160438382246 12.818437444352297 -2.15427360278538 -1.7366667997992091 0.3863822977542507
P 2.358167323227897 3.7442346876760437 10.857602511141959 0.7005083691462516 1.3267743347381602 2.116441876649587
P 4.891018210669631 7.941045430861183 10.792922734501127 0.703480307290382 -1.1473511861794048 -0.6353195911537446
P 8.05690879186568 8.126409973301298 11.467058006388934 0.47838459639517616 -2.3486698277142 0.4060286112302685
P 9.397483793710833 5.165768137442972 2.706618805623739 -0.32742458827311993 -0.2905451987482674 0.6529185351824304
P 7.245977499281404 6.337336767529061 5.630616094467565 0.031636653068674546 0.4465404553013858 0.07766505608264689
P 5.889727086309067 4.820768799585938 13.096239212802725 2.537028845310005 -0.23637822578756063 -0.49933163096048844
P 8.885470245532739 2.3654812680378354 10.156170886405297 -0.3869579677520626 -0.995698265755382 -0.044331989148155906
P 6.10686333018059 0.7482137481955248 0.8474093585020802 0.45761496794799256 1.3612731398459783 0.6332354549312061
Ni 2.2034240791352726 1.7016519242652104 3.597093456807867 -0.6296253689824447 0.6727311990329834 -0.25320532464722845
Ni 3.6722269369193734 1.1176025667186409 12.947782968328058 -0.7922880102534097 -3.6342098383929216 0.15768164311660585
Ni 8.37383081217868 6.196697652302662 1.0797945226013834 2.8985994833372146 1.7928837133104092 0.44276427608840524
Ni 6.271632851557427 2.327957551186847 6.9349056995292955 -1.023996855589759 1.3572185101606302 0.7929608679507183
Ni 5.028814053233344 3.091254673800514 0.5255331226317614 0.9126418634538347 0.39018701621232155 2.4390677579824835
Ni 2.382849548743789 1.8357159714591464 10.282819977786804 1.3810924885647506 -1.4772113804772107 -1.1860020657823833
Ni 8.655174512725686 9.333229572682347 0.41968013903145385 0.121653545848455 1.5615787882806977 -0.2722237747312602
Ni 7.112886150629966 8.411017825688035 1.8440830494987512 -0.4210585089801974 0.11257086682089644 0.7866277266438388
Ni 8.208603000142396 3.1297417363234 12.344514396983607 -2.6174272411634147 -0.2861141595601073 -0.43428812029659397
Ni -0.002014608327443409 8.261755363767563 8.3469123153021 2.4165446371793027 0.464737952146019 -2.7251016991239583
Ni 0.7951632880381452 4.139786291131181 0.6056198830135275 -0.678890790876476 0.8094138713004189 0.4179346186392351
Ni 8.57291601579038 6.072154827380486 12.402035486466474 -0.42493316144425525 1.0445278856635754 0.29056833867671894
Ni 8.066953774891095 2.613145281550841 5.292213336245378 -0.20210799175078095 -1.7414997024114782 0.3613747199663196
Ni 8.635019076580651 8.530154691402863 6.09299863480175 -3.1346342097424276 -0.5557400916572042 -1.105714484475225
Ni 4.969685205294174 0.2541754820253833 8.393756167706933 0.10088340318063915 -0.4997769460280232 -1.4438909119482102
Ni 5.062811737867776 6.382679484202439 4.805450668115711 1.2625119252146644 0.88495211084805 0.5557568038277525
Ni 5.072286195786533 8.332304066710487 0.45577754311579843 0.0797245097148369 0.5967530437344561 -0.2629462060840762
Ni 5.769103114168688 0.26508654086844496 6.166248446774227 -0.011256803860741904 -0.9343571436437392 -0.7201605961595404
Ni 6.393996457629582 5.694972261785604 7.663591589197109 1.2807973537874136 -2.0930623213833823 -1.9590335417990263
Ni 5.4147789643225135 2.7972004221068247 2.802262195676056 -0.33826975851774 0.7007377115482384 1.1175191904196367
Ni 3.708506721980436 5.331725473386127 10.141400833152284 0.8236667816750073 -0.08175670965351726 0.021589296135001528
Ni 7.378320618284766 4.195183343700575 0.8922255085606253 -0.90936936335015 -1.129744785951551 0.23965278277377436
Ni 0.32772271528296915 6.674386165375292 4.897769112669393 1.4290882997177385 -3.5222406097117664 0.8904506720687762
Ni 9.20965944630267 -0.09807981284386282 10.154733350193931 1.4204079983349214 2.7744421972302993 2.245474488570933
P 9.184144815303295 0.9976520012615298 4.1871108810849 -0.9685013936256159 -1.2945895224754993 -1.716190791333044
P 8.711319794943154 2.5020331788116223 0.3832899900972996 0.410748385303441 -3.195893313663225 2.7255174465051386
P 0.21517214104532525 3.171511656427217 7.058173728188562 0.2601395898732165 -0.483097171379497 0.8295103849399778
P 1.6740235445100209 2.2229902844324485 1.443560395319212 2.1365461035986306 -1.6143511948867229 -0.3112891161638381
P 2.603596000667277 5.328723201923224 0.5648497847769511 0.6031363215529806 -0.04743196822971831 -0.33463113332388816
P 2.3093546915615684 9.048041842318353 7.56407330485482 0.5719616957223892 0.17545105128488492 1.20047557680821
P 6.86651283325989 8.387934941044904 7.885515567529255 0.10153980581771546 0.4812650032667647 -0.2834438118167957
P 2.987381692906427 6.513301675015228 5.080063107691219 -1.955856686732941 -0.2350044853684856 0.4223499740981113
