# total energy = -340856.45231588813 ev
CRYSTAL
PRIMVEC
9.39870174774435 0.00000000000000 0.00000000000000

0.00000000000000 9.39870174774435 0.00000000000000

0.00000000000000 0.00000000000000 13.75595004315544

PRIMCOORD
 96 1
Ni 0.327053197991433 9.177597125921672 5.299493601290369 0.6813130271647234 -0.24262626357980147 -0.5795359085252212
Ni 0.9441371685781362 2.7019575277956056 2.0858557215240756 -1.0698511949197123 3.226433648343927 -0.16449403805274898
Ni 5.943597899051154 -0.030949924304933627 1.185724213616492 -1.013223419123339 -1.4578568872099988 1.2136537660613809
Ni 3.3073278966024 6.856409195261133 2.291191034695878 0.6043169721246432 -1.1033729808262418 0.4148834905177371
Ni 3.8160514170558297 5.446791932201933 5.27222890787519 -0.5484422724442104 1.1960612497905982 -0.5132834651548902
Ni 9.13972035855183 0.6144805302488755 7.390741357911238 -1.0676485308414387 1.6281711314889509 0.7524284550543107
Ni 8.042017804848182 3.1147015077078923 8.266156160402145 0.7486327354573042 -1.1955637413288893 -0.1323382792558108
Ni 7.203070904360183 5.3326259041023185 13.062003419832928 -0.2747992487679202 0.6103819473718004 0.3090206318446356
Ni 7.995315656694155 0.6245089448353814 3.0097330489750584 -1.5548455833219224 0.5133114901793482 0.08555859989811071
Ni 3.8237113588440224 4.262771703182005 7.943524111634229 -0.8592297663812815 -0.5146569484636491 1.9655173497511569
Ni 9.477838647914112 8.063728805499382 8.396617657302212 -0.07708990030546724 -1.0864155270362967 -0.9997837486786653
Ni 5.917572894374458 0.8898352303260303 12.872707930778585 0.6557444346669997 0.08115892816851829 0.23589203017976149
Ni 4.802210180400852 5.6444090316357425 12.318453340388071 -0.3873536605285845 -0.21662649708193013 0.024219534668996998
Ni 3.803193993293561 9.391098031026704 2.888597883653426 0.7180000981731118 0.3622558370196922 -0.3482803486762066
Ni 5.621335219255356 6.116017079547361 1.610381987652354 -1.3397954295881764 0.4999533237048874 -1.1940894707762082
Ni 7.339540051310573 6.9141924125786955 9.049860312609821 -0.15862472375616554 0.3128783150278289 3.1206576929576775
Ni 2.2245316836055924 8.092648610262904 3.9687981752736707 -1.0291706864812147 0.40568176941381096 0.954765274986446
Ni 6.419153401626628 3.4460527319321357 1.0770451474996354 0.04611427785955929 -0.16873147317286424 0.4576334798907538
Ni 2.532921879868417 1.4609435723908861 1.134510688703773 2.0220656784598465 -1.736056677019036 -1.2420498007055705
Ni 3.1383768369894374 1.5067810399994985 4.835216540611623 3.149269700267415 -0.40452785831502586 -2.4990307687996767
Ni 0.7815969633133043 3.0454800705667333 10.394724281259283 2.3473770770447056 1.7028796760464349 0.06805967178239891
Ni 4.660806715120644 1.4789044911114229 11.155924182402355 -2.293987605679972 0.8859841516569902 0.07193252447424386
Ni 8.415541003064604 6.08245431620302 7.359721883214607 0.049709965630617615 -0.5847210522705866 -0.8730445607771867
Ni 8.243901914799588 1.4964048734545103 5.383335658610317 -1.1313535251995677 1.406618657860313 -0.4307263710872647
P 5.041501122643066 1.6827341322900127 1.972671857739635 -0.3137697164938467 1.37908419988547 0.33080147516515285
P 2.7109614839098253 4.345226512148656 12.511063751489894 0.6228867647070304 0.04969248212912087 -2.1840081537353355
P 0.5384008605643489 0.9455093790089045 0.7265769642604402 0.7015805191645079 -0.44557680583653586 0.18847240324521733
P 1.6036252610860569 7.234255796204631 7.030321829438497 -0.5634911963575328 0.643254529730105 0.05686714550068916
P -0.0973818268169688 1.2905075179281875 9.491494961310732 0.7136914434954289 0.3497721027303847 -1.135129190191916
P 7.137345784207009 4.633644467552694 10.005940411286433 0.7820485919135887 0.17648026388034768 0.6402088009252458
P 4.8138269755544805 0.10273532723728164 4.950945572784091 1.0850297024323636 -0.5286002980176187 0.2539918251042658
P 8.232510688483893 9.32007204318207 12.349032955850731 -0.7595797213871112 -0.12435886059476002 -0.6961650045758915
Ni 1.8497772554821126 2.5362490202279515 8.322611341186366 0.3895786932043613 1.7325733464561257 -0.952589864601682
Ni 7.864297756660515 0.926763668706387 0.49203612579706435 0.7282449158295716 1.0391959319277007 -0.2833481667791959
Ni 8.513325094309222 2.162293481738823 11.357957731708893 -2.5394577664664717 -1.5889049868994765 1.3012880175415975
Ni 4.774502808141228 3.3017262704603594 6.173216637496767 -0.18238608784182136 -0.7381740020178255 -1.6425073456059647
Ni 3.2179744406755844 7.267207643946234 -0.11346770457217498 1.152340668974196 -0.7056127802523526 0.6800783834266739
Ni 2.486633274583935 3.933986324489266 6.195198320753487 -1.3487115011308837 -1.8843666491127546 -0.8985051669421363
Ni 6.0853867110961675 2.7083862396767393 9.813013263941345 1.2237049796497956 -0.6042519232146626 -1.1388246367656323
Ni 4.242555096082123 3.979128288180914 10.601669592011842 -1.4510678893126234 -1.1938459873068341 0.9051285857959251
Ni 6.177371803465553 4.417352148078222 8.142889369562031 -0.8112645513559125 1.8807195392784708 -1.139861562670579
Ni 6.136760013935757 3.393203832944392 12.043540379285206 0.07201865643014695 0.06998928470494399 0.5916087805293553
Ni 4.541057858282151 5.933475497448843 9.561884657058359 0.5426729740606009 2.3387111738395916 0.26692293134363704
Ni 0.35628973899822225 4.518331797860246 6.24381216480901 -1.090570943965567 0.004342850349728005 0.38633833189019273
Ni 6.03900411879588 1.9490839363827894 4.082407800239713 -0.22259608440180373 -1.0371799299389364 -0.049298846235128
Ni 8.149623539244535 7.692715060604983 0.4421008242993077 0.20227382790468387 0.07912338579572825 0.006017152728357379
Ni 8.24675912008009 7.214255359241104 11.591835961710835 -0.9956095626963176 -0.7377145458829037 0.6075208237739214
Ni 5.993476808339428 5.986145821106556 6.024198344195953 0.9775128530956069 -1.9738325544850719 -0.300109959618567
Ni 5.828820955348801 7.5616971605713434 13.336269750267048 0.02888582979641477 0.31395817835556894 -0.9662874166934325
Ni 6.614458420471608 0.48362428788242245 10.573401117267856 2.003437521835698 -1.5200127919134532 -0.2662701282509866
Ni 1.9072785117522566 8.94347546954879 12.64152524838996 -2.080610211662959 0.5357284244219677 -0.3632878778286324
Ni 1.155419980110146 2.728320885729204 13.00549372657954 -0.17741511698979123 -0.046946543952867535 -0.031242245843733293
Ni 9.587897443423 4.402925141151993 4.000684210256032 0.9737898957180648 -0.46662642741798344 -1.4448234510648084
Ni 7.708016146778209 5.812514208106451 4.447780444445431 -0.645649769435159 -0.7155156411883613 -0.3295418917264389
Ni 0.18271827768823373 6.858580295326252 5.421673902227765 0.7986214086706053 -0.037099475955458684 -0.5092792290915035
Ni 4.783628947375995 9.105715856233202 9.16294830963814 -1.0000444585392196 0.36283896321667186 0.08215445931256819
P 4.011121468361295 4.849720616890813 2.1741687411859183 0.19620730999562985 0.4892053411597639 -0.6184359280245285
P 3.82103272889355 0.20693215257034747 13.168350668087637 0.7500422142103211 2.703822220919892 3.658946421907653
P 5.799966941496342 7.373459965314978 10.974537700728094 1.3166418742898487 -0.9226244285878433 0.07255293166706214
P 7.6227417273373765 4.015745629538952 3.1155577294218855 -0.6274371030818742 -1.1172088582680695 0.3494777114184175
P 1.767284851709139 1.3868724052341348 6.2835113404153295 -3.3215670364146668 -0.2755852350043254 2.6261142274144516
P 2.5730167408112794 8.120590950062045 10.08202478032175 -1.3562774864035996 1.4907425821944262 -1.4589820019533777
P 7.946602186401877 3.116421470097143 13.206110891557875 -0.22312830275618992 -0.028417889021060735 0.1675780762947114
P 0.775987818209999 6.951195100701538 13.235672627639355 -0.16504271146736738 -0.09959630893809944 0.45494976241100354
Ni 9.15103639525488 4.473255625079663 0.46536261071130613 0.6155511502775658 0.047193112746034854 0.5768473059494647
Ni 0.5126258613496966 5.142283399691898 11.867560970630267 -0.243700984701219 -0.5810903974965348 0.8309507169309303
Ni 2.351395357540604 1.1523748007980297 10.241455895103718 0.09868253887457844 -0.9488396535306304 1.4346035731090132
Ni 9.561769053028916 8.798237334023696 10.55330293380789 1.0361211496571188 1.0888369919935956 0.7341731083885485
Ni 8.962432650636872 7.946038264307041 3.0584427597867045 0.7092570618731591 -1.1325246626895336 0.18785945225156678
Ni 1.8390157421723194 8.309081910261087 1.4511567044350018 -1.8262669167565448 2.211109637937818 -0.23617870818224487
Ni 0.5301337626540483 4.459834279222559 8.576161053596518 -1.0496988883415537 0.744967113680259 -1.139458413694889
Ni 5.768941827578764 7.503791760133234 7.602789223751908 0.9212149498348264 2.3957032749539193 -0.16499103229382553
Ni 2.241496339958585 4.572656292996146 0.7369653491174833 0.6210800505155949 -0.25193211436175966 1.647624612227872
Ni 0.8515731161913858 0.7236934426155105 3.0005580364920714 1.1274001969787746 -1.8635399421753904 1.3985901311288815
Ni 7.719914902979255 5.722963379446442 1.9125718604824538 1.670103767166995 0.6494004947268429 -0.14069359319904157
Ni 5.297625139416144 4.128454858893573 3.7845366307859014 1.0690963190315588 1.270726856925289 0.048295087560961986
Ni 3.9930759613265323 2.892018071158608 13.584523294336527 0.71579332032978 -0.06678748993819465 -0.1535892182147871
Ni 4.074355932595608 8.541934741920585 11.553237374059606 1.0242830193716101 -1.8186168564104548 -2.408574731599949
Ni 0.8911585675085797 6.1703885681911625 1.7835549440153249 -0.3507213540175314 0.2186882647069653 0.4153308624678008
Ni 3.605144553587044 8.168514929421551 6.262547536539789 -0.14583888484540689 -1.2325881410720383 0.021794213056956013
Ni 7.19137891959391 8.066905566633626 4.8871998191837935 -0.09917002003395825 1.0915541338144426 0.1272408101282454
Ni 6.029962567875337 1.4615732853967867 7.160164891774562 1.524963193940193 0.03170195908897121 0.0994852372815319
Ni 3.3465956718061696 2.988824697438844 2.7771753365451906 -0.3773785515937436 -1.2071162220531793 0.21399343033445728
Ni 5.304533185077889 6.774001379802384 3.954051612493701 0.14531952200682716 1.0215885032585825 -0.9338094986703854
Ni 2.38315357018147 6.5712337919024035 11.502229680711501 1.0485832866798714 -0.831316070690149 0.8877307020344518
Ni 0.8599163435844891 6.3560787153191844 9.79617549005969 -0.3557422042708906 0.8198124409259235 -0.3265187886293989
Ni 3.7348654328025597 0.9995801092021276 6.9828499276250175 3.8659999305891675 1.3969906478522456 0.0953223641530939
Ni 2.103842956609038 0.39096624847986594 8.125047814351568 -2.233821991933669 -5.243233964639777 1.5327526080776248
P 6.818156479828068 3.52901507078414 6.249548192383654 2.055575123071202 -0.5206902991419226 -0.15787756117749585
P 1.398611383508311 2.4566420178402235 4.480931544660543 -3.172899938091845 2.7250232804775396 -2.8676117767064486
P 4.164874827518418 2.0554302447673396 9.10048265919312 -1.1614665425348643 -0.5941387460400607 -0.797620992430549
P 6.8364369544023464 8.002947402377606 2.5299941843260587 0.4536644679406768 -1.1824837682164795 0.8296199139346485
P 4.270055696906974 6.250822656317984 7.391443440919309 -2.1931165437945066 -1.2122329744544542 -1.3128492400166358
P 1.8361679355933962 6.011353138745739 4.140306621586716 0.03677191741271087 -0.6231420752509462 -0.05103151265551857
P 2.392834232809493 4.7029692904112395 9.532914099306302 -0.1597243845782475 0.0406753662321751 0.898332645920014
P 6.941777601717773 9.155651157730958 8.271603647838264 1.0274243932140692 0.5885054590136832 0.7941713433190516
