# total energy = -340857.70956291264 ev
CRYSTAL
PRIMVEC
9.34905023839715 0.00000000000000 0.00000000000000

0.00000000000000 9.34905023839715 0.00000000000000

0.00000000000000 0.00000000000000 13.68328004037827

PRIMCOORD
 96 1
Ni 0.1865584217726446 8.18673865657297 8.29823823089028 -0.9567969607044942 -0.6406101501287225 -1.4551040070552101
Ni 5.887227634861743 0.8940767581504772 1.9845817300968402 0.3429635644489835 -0.4292724122495575 0.7975261187238976
Ni 6.791692122402221 4.167899954420123 2.649096306553761 2.0558183494302593 -1.5171516683155741 -2.02949436682375
Ni 6.16038817605249 4.924565311435427 12.500346359046354 0.4459475589123933 -0.15891885795781663 1.265532200098227
Ni 3.3599644075256334 9.117969474095963 11.282329694947872 -0.16140640026636072 0.34728764574563414 -0.8925846876926434
Ni 6.80234069028559 6.974148181060535 13.639328959654378 -0.30017937940392175 0.09030151389973479 0.500384497705035
Ni 2.857256643121236 2.7639624737550066 4.5746350466500525 -0.12810958588644386 0.973656198353678 1.7023335737349778
Ni 5.247116883467119 5.780667163628525 2.776994114468464 -1.3319769619850221 1.3357243448425964 -0.0880029476735452
Ni 4.823623619217051 8.285184152456965 0.7262444834106571 -0.7322710062698292 0.17417861233036455 -0.1651049321638705
Ni 8.08738630284465 2.096917109478922 6.110268854221102 0.43110946545829626 0.6314089432454287 0.45559536641480247
Ni 6.746162249187115 0.9339859825407524 12.752447230338879 -1.585980871274146 -0.7808306603460875 -1.7654618696540305
Ni 0.9501626436545298 3.2806190206721224 1.1757028640632528 -1.055534264076408 0.8157796656174466 2.420484595663657
Ni 8.017165588734043 9.012848756553735 3.3995969000376403 -0.4337258200352207 -0.2829732999382804 -0.4514342930585774
Ni 8.752234640384481 3.919570489874 8.081071019609166 -0.8560642241691063 0.5440616268780114 -0.9362816143599617
Ni 0.7528565540691369 3.684301648096152 12.573319433459737 0.4367828616939897 0.29476026527087945 1.218052923570341
Ni 4.371120252998509 6.44808648990227 11.468216854934715 -1.206617685150206 0.7060694081737968 2.9062814253625042
Ni 1.9287931443809272 0.5267058406992339 4.104942517209068 -2.042687982695889 -1.5022937773671352 1.4034587720750926
Ni 8.296197333288053 3.89607632737101 4.470738119745168 0.33404260781026984 0.4853448297630931 0.888655013620934
Ni 0.809069586652394 2.5552168866611944 3.5989625853251455 -1.109577566975057 2.2276780838194603 0.8063298330584564
Ni 1.993834484823943 4.93760723610382 7.871580313235016 0.9199234847169124 0.09689202263305895 -0.48031523775898566
Ni 0.725446074545653 4.914281356499777 9.776484765205423 1.059495305606685 0.5445249396676751 1.2433374091687426
Ni 2.4205344732039453 7.603077468725124 12.65849769257175 0.4127936978682439 -1.066229796117041 1.2566480102347197
Ni 6.311207049708768 0.453766422865639 10.58548049436328 0.4719815210823098 -3.128251703254851 -0.6195931815574233
Ni 0.6732400447673227 7.719332904747676 3.0091310245159093 1.0436593670156928 1.1244796808978696 -0.09493335624479134
P 7.784028330342857 7.106988831679309 1.8727072588768747 0.8225437238141575 0.04486652149538725 1.1062505594843528
P 8.09218236546464 2.344638885778848 1.960964160134623 0.9770518542987882 0.16094874390365183 2.2509540236282657
P 2.5104442864913508 4.352805464163111 2.913129370286622 -0.2913514966996466 -0.9533146585828485 -0.8848893759309147
P 5.153271120154343 8.609184827229589 12.214789912538171 0.7658976931853391 -1.188029123514741 0.06643704857731139
P 2.900365112401492 7.094994000604364 1.2616103490707022 0.24979527052441494 0.49727886219651773 -0.3234946570910945
P 4.888132063813401 5.415203452365348 0.7341575192811427 0.3114505814423668 -0.7927999168928217 -1.4789769570180658
P 8.53445787104718 9.225259171224618 12.618433273952446 3.020035513858225 -2.024653750901997 -3.128266872763503
P 5.298761035343965 4.024747301715875 10.814347106741188 -1.6914182123740547 0.7507358978432361 -1.4730261387512695
Ni 6.915174374029553 1.776123158836232 4.1675989150120065 -0.263849691734952 0.44386213713827427 -1.4717781252767814
Ni 6.14779500578129 6.155984773530043 10.25367523269949 0.7164990881475531 -0.556625579585951 -0.337180124997987
Ni 3.3387981584580766 6.02426600890425 4.800423016882225 1.5763909135928658 0.9910299137454351 -0.020848047093602808
Ni 8.403561822816238 5.011848041689271 0.5870156269668564 -0.8998305706217794 -0.43612105974027476 -0.5831071708162473
Ni 0.8309538427554574 7.373090840164223 10.854247916986516 -0.13157800405101855 0.24476850673378492 -0.13871847175054175
Ni 4.659529094643843 3.752493618369453 3.6484545859054585 -1.742017265477845 -0.9055111659463244 1.4280593442325924
Ni 8.015183590146446 6.8434484628783645 7.122023973795229 -1.1187278660157574 -0.01671885541657766 -1.2074489228022496
Ni 3.658339336408606 3.202610547960246 8.514161083624185 1.3603161752493476 -0.5704455161881788 -1.3566173862415216
Ni 2.5898457676445106 8.85910363026577 8.097162604368476 1.0280748823138746 -0.3000672793060897 0.9332001472211606
Ni 5.085116546080807 9.170324153768362 7.471139001425706 -0.5598852241738294 -1.0588643568909055 1.3993038693664548
Ni 5.855309978361461 7.8309512119992455 3.355495561653596 0.382487847795851 2.5492295011412547 -3.6868781153209147
Ni 3.022416959387775 1.3096336139052056 6.833320637076738 -1.4958361946672496 0.7650332883025147 -0.4616438866017275
Ni 8.531372684566485 5.508245197383156 11.70997300246697 1.250680736907691 -2.234749645954261 0.23406526138366784
Ni 6.325081039821955 4.284865918238229 6.8066515372136145 -0.028811524915053607 -0.4888248178918936 -1.495279293722515
Ni 1.2265579561250364 3.4206958359456174 6.163400439943642 -1.2920718982599684 -0.36141997138195825 0.13631603295663622
Ni 6.62540057109276 4.419090228248345 9.015433768862561 -0.2633128453948756 0.014187347243975565 -0.38236083529968345
Ni 0.418022200224302 0.885312958735315 2.265964760711137 -0.46685088472396374 -0.2045564532912735 -0.2485112616056688
Ni 4.356143074992226 8.347991069963962 5.483615125312274 -1.1741963313967068 0.5823880332620357 -0.9852804128561676
Ni 1.3290889868334672 5.6693760731249085 0.8068342288113813 1.8037959893475384 -0.3282699669925508 -0.06381400913216752
Ni 1.3796766960669238 5.098046282149902 4.5340367972790885 -1.6323216633222146 -0.2084655585376926 0.6511593863994786
Ni 3.4658517471630623 8.175716126691942 3.047389206686516 -0.27684816087714903 0.13679271548273864 0.04817655970522671
Ni 4.8006997487604925 3.09038455246248 1.6169396901972937 -0.24368915762667712 0.8687037673099878 -2.393329118294788
Ni 2.87654373315055 1.702733116795457 2.328538886874591 0.36211545478708607 0.2333255550041659 -1.5051423025595239
Ni 4.234184718505358 6.423105828458582 7.190262689318237 0.4295230948077829 -0.09719232748229713 0.04939886214810202
P 3.928470785418308 0.9849598075367929 4.220676276244885 2.6366094705188203 -0.6821866880189283 -0.6393155996870151
P 3.61997083544869 4.324590031439663 6.2433516452333615 -0.2990812612437365 -0.40793071334898773 0.5738517136562504
P 1.9947787388680345 1.8658927363745152 0.1491603521966562 0.5229621258952348 -1.2440789153204574 -0.9779178018435093
P 4.871387915368175 1.492370144061765 0.17816297492517755 -0.6378408149137015 0.11747421765978477 0.18418174628966347
P 2.1853217257257462 7.9343797515020595 5.106832519284923 -0.48699470666169037 -0.06052993906425705 -1.9113673460713145
P 0.7122751329880678 1.2726487723366315 6.569493252442589 0.10988406401735269 -0.3845411307804539 0.5026033597332247
P -0.42292764672860705 5.16429365003537 6.202315860325135 0.936639769030329 -1.5829474837644608 0.3918379215521832
P 2.4850429178002957 1.5920777616878625 10.222381157830307 0.31862267371077385 -0.09259339525770505 -0.2041905853114225
Ni 6.618809490884002 9.439548744933738 5.914022946899076 1.4687732770121866 -0.21710626493182608 -1.4359426036354108
Ni 6.951037329605146 2.5472327980111538 10.21336399916173 1.0256814423810336 0.206184990033632 -0.27639538961044663
Ni 4.594609291850067 7.677795075857592 9.47153838911857 -1.7179759082579253 1.9898631255853731 -0.14578643434091665
Ni 8.171247280819905 0.8491031534068912 8.118139067722218 -0.41125874928095624 0.5329506045665144 0.3002765671034183
Ni 5.1119950646626195 2.085324287551462 11.722274482379996 -2.521295236624832 1.0104227164497501 0.055912237786587576
Ni 8.039444374744638 0.4570582233500412 0.7071911196298801 0.1881661848587082 -0.8228825952108151 5.493873071221725
Ni 4.965710480227969 1.979025589716607 5.8805533481085055 1.2451078708056043 0.9707295116251864 -0.08575554640026521
Ni 6.924467329671404 2.7586522133882347 0.334492178616976 -0.5104189991229016 1.7977358991963879 -0.7895544133723307
Ni 7.565232514561932 7.357954728308935 11.386800653519163 -0.3144106925119553 4.230603699015747 0.9518617281864057
Ni 4.456935182411538 0.8744615164682159 9.404435583163453 -1.891643385279826 0.9847268543455427 0.12907066424813254
Ni 9.517332840447018 2.7947114990126 10.672410765434329 -0.22577988144642405 -1.4663939781467326 -2.2361362418891426
Ni 9.345833868320142 5.533768103723451 2.7392968752943476 -1.0100198245843766 -1.3472104911053249 -1.7568461029605615
Ni 0.09480217112179264 7.102622825356628 13.22308307891896 -1.329119437931569 1.4921170939444497 0.23751156806105544
Ni 3.846133702583517 5.481609754099822 9.441599926490902 -0.32161338090798164 -0.9378746698786945 -0.468998784304902
Ni 2.842784313811794 3.6001788967225345 10.64675416767987 -0.13017443883527258 1.0078079045347226 1.1891742928627778
Ni 2.9900038032405947 3.933192055638765 13.421217494329168 1.0015691227138621 0.13942115424452117 0.17394052817762948
Ni 1.2556335014431015 0.8271487794292668 11.943382318211455 -0.35243705115705753 -0.25401367948113673 1.7516198215646157
Ni 1.6584373181726297 7.041704415937813 6.873084016287925 -0.7048874720505538 -1.2243621536178204 -1.144220868080539
Ni 8.944338918582424 8.737163971878784 5.710114558244995 0.9453483525479204 0.6122475398256294 0.41908441597296214
Ni 8.400345749636362 6.405903576566223 9.440436904678181 -1.148707443096983 -0.39728326093747063 -0.8986794877364718
Ni 8.648179714535587 6.531620251129573 4.557530959782078 -1.3541020760188358 1.2014603093189824 1.8553548352614369
Ni 1.3006585259613654 2.6990894162109385 8.453981249150749 0.6427025138813769 -1.832293325456283 0.6430843227008279
Ni 0.9094858622640574 0.279502001766067 9.669617645134123 0.1087520072954385 1.8117036742303894 1.103577383527564
Ni 1.4860875825010769 8.78643346507049 0.9369898322869564 0.5348120832552854 0.18117149870842994 -0.8371113372156874
P 8.184588375086424 8.966412025494305 9.9703896704221 0.5145294217468493 -0.47020797412165477 -0.3693929622851058
P 6.161388524396231 4.689109488658749 4.591574590239056 1.6786686260178703 0.9510531162421815 2.011224107759652
P 6.177796107043563 7.338359119631551 5.17003583650944 2.1155088233123567 -1.5267637374840417 3.504661463177422
P 1.6384583984476442 5.547857121985292 12.013139319444964 0.35599622926322566 0.4501088893789345 -0.03640219277811795
P 5.831217476662216 1.7542557310230635 7.998697475479603 1.1751756645908407 1.2550202448233094 -0.3789654364648893
P 1.8939492352489569 6.9970533534172095 9.023479561242215 1.2460008149335187 -1.212598328213673 0.4308775519531483
P 7.994007992028947 3.4473873735286 12.049605288741784 -1.085134346331028 -0.526381693099745 1.005825326887055
P 6.215136212509915 7.242465914381585 8.2950230926154 0.1437344369078944 -0.6947604109188809 -0.8794646053709175
