# total energy = -340891.768581594 ev
CRYSTAL
PRIMVEC
9.08964672055339 0.00000000000000 0.00000000000000
0.00000000000000 9.08964672055339 0.00000000000000
0.00000000000000 0.00000000000000 13.30361677110399
PRIMCOORD
 96 1
Ni 6.2695383939837335 2.124077740968782 11.53627150946016 0.7740223791750025 -0.17218009384309702 -0.44241769138226383
Ni 4.761811419485529 0.4855016657206584 6.017757906047131 -0.46396070766036224 -0.9497277125625384 -0.1863820963750919
Ni 2.906478174173146 1.6259650993544053 4.846760531068293 -0.954401463889124 -0.7697564048097969 0.7612373115951921
Ni 3.4686819149850225 4.331543901174249 5.040953562053291 -0.4610646170594898 0.0798324960476109 -0.3190242800245667
Ni 5.237109047770488 4.563966168438476 2.3568690478908474 -1.6943307580351594 -0.9404743122850706 1.0663156709626282
Ni 7.0415402713120585 5.879819789800951 2.7922431297433494 1.0202371314370107 2.256543601900901 -1.000976740545502
Ni 5.244280779052126 4.526125969039923 11.356739169709831 -1.5473765286383867 0.3205252900501254 0.8988201270793941
Ni 5.497891012878453 7.997689302043043 12.468602029861103 -0.26236693654183846 -0.19227789303423662 0.4241931979544372
Ni 1.9299228865001128 6.253149760902881 0.3755251207907951 -0.545680393428357 0.6032599916150384 -0.5235496229675887
Ni 3.0673285629689127 1.8174566873268518 0.567717520527265 -0.766893481439705 -0.9431228056515113 -0.5790648824260737
Ni 0.5307599258276319 9.007067304111507 4.587871939377267 0.5804458219340004 -0.4073928385676468 0.09814492120355356
Ni 8.72382482189717 2.46961157232515 1.365629435901609 0.7647563804920442 -0.8013195243280586 0.41983826341985114
Ni 7.16108730529951 0.6355090149145677 4.854503092165503 -1.5799531770228274 -1.0457527592096119 0.43036667375500076
Ni 0.9349883331091182 7.35799632273185 2.3672057941690205 -0.20126518413451144 0.044399609161297725 0.45380613572486356
Ni 7.681742270840961 3.895695339761669 3.767464966238922 0.39835823916920426 -1.2393185178173365 0.7217104571451636
Ni 7.624668378930438 3.826286797218468 12.658737442539225 0.9424838865159317 0.42433512284894015 -0.3326624396332916
Ni 7.998216501554241 8.351694684165555 6.961569559251415 0.5784637585069651 2.065162766759637 1.4177803309040873
Ni 7.036540965602426 0.7807415726734398 0.5962499216591542 -0.8579514138894903 -0.7770035732905134 -1.0118512213661606
Ni 1.8502612224287913 6.594384189348963 9.170289181742987 0.6259713171696252 0.19098051437905172 -0.40643690241228064
Ni 8.995278032283517 5.036227854710677 1.4436549635588685 0.6928336262098131 -1.0980677665632443 0.22706877546117668
Ni 6.327666684916651 1.9352494194925585 6.940882432224952 0.321428261480369 0.704689754217451 0.1995579716354176
Ni 3.4657277797929664 4.371065685220587 0.5340967351476436 0.18652119305611747 0.039287227635396854 0.09179763882928706
Ni 5.8313447037109984 5.6428708784578205 4.937943322388633 -0.09819968570088894 0.01412101278241439 -0.24731621285630312
Ni 5.46845873671883 3.2550024993085485 9.048495187080226 0.05679155506774736 -1.4789916123060851 0.3495461027625077
P 0.23148239779081564 5.516542967998758 12.289308747820161 -0.0363397149712987 1.3214601216140982 0.7856417085814856
P 4.067626007939332 6.199148169592095 12.723952022074382 -0.31991336749773935 -0.37364762379640165 -1.075021169156426
P 2.3790241528665934 8.63252840999252 1.309472689347635 0.6941639149854626 -0.282584549140294 -0.26444233101362846
P 6.326612285894256 7.849755301271621 5.9060870509640395 -1.6825993285308443 -1.2632778568464114 -0.8988741202457811
P 4.87230516531517 1.0215399494129886 12.778363556453357 -0.4062934348558809 -0.1665753460618099 -0.13201586291938555
P 4.0292676986763265 6.2297711894752865 8.255213537757676 -0.6572210192125262 1.1026602710299331 -0.7384815059559152
P 4.869905498574547 1.005105868098412 3.8350601242565374 -0.5137190100304121 -0.7815228013171057 0.011513914176870492
P 0.15365956925596505 5.554119567641711 3.8089183002185276 0.3363172627770595 -0.5228672521885834 -0.7967272769716859
Ni 1.5748085674747387 1.2419184347403713 2.456858797942212 -0.9078727241999656 -0.7281022196041202 0.8214885430767658
Ni 1.9709808208463195 6.640168740002459 4.643826895773507 -0.7330027422295312 -0.4323039999870297 0.5230148335100411
Ni 6.122658792234706 5.792422836349816 9.349316137134306 -0.6850115590622331 0.013359709136357636 -0.17387985014302312
Ni 9.012621078272572 2.313087855379902 9.605197873682156 -0.30887767850886805 0.33826333075983683 2.45426117789347
Ni 2.1975220866666687 5.234482139861244 6.877930265764575 2.0497698292433344 0.994326839329152 1.031946706564455
Ni 0.28095007330530036 0.07754195845043665 9.24572143318396 0.7874872464306567 -1.4291137536390357 -0.06761332827359968
Ni 1.451843826311248 1.2660241779075487 11.617011205635412 -0.6561241866039216 -0.06169362035505504 -0.38244593881432204
Ni 4.125436161236183 6.965296314416778 1.5382972744302748 -0.0571697643427725 -0.008232672322437434 0.3050418497025456
Ni 5.447343487330688 7.884459572543221 7.965208358365219 1.6163461138295647 0.5606796950506666 0.7945906902446573
Ni 5.260751218953682 2.9312020133189693 4.624962242919374 1.4154506543296461 0.3955613931503575 1.0051365283501463
Ni 0.9718741195994676 7.370885441815959 6.800901872355219 0.05174653644467217 -0.02974457825228426 0.2368063144639147
Ni 5.0383639216957015 4.727388927263018 7.091945089405932 0.12263133638069201 -0.27289843220078164 -0.1177261857695908
Ni 8.397715565634414 6.830360508490402 9.412694608027016 -1.583139802280925 2.477527090399946 1.2371693326848177
Ni 4.363784878178011 0.6024045214700502 10.607106913020429 0.7697553763685324 -0.07239275194011403 -0.5707167675716945
Ni 8.109837363580237 7.032096128344225 4.798600855720384 0.019509016567205113 0.5900689468460611 0.2471408636207034
Ni 7.183747794634266 6.048032792459996 7.210773132335869 0.4452363917779816 -0.036540003907562874 -0.8895649270297132
Ni 2.089718876273484 5.166855168080023 2.6840445197167666 0.5149965911912551 -0.4171303775703848 -0.46909725755597925
Ni 2.461021856151325 5.565745225828295 11.280895157271319 -0.20627960662996733 -0.8726717508188002 0.6900120976006181
Ni 1.104064852208918 3.2554660712925325 3.9149217605562443 -0.19898487274076698 0.30123276036910057 -0.022010185722504027
Ni 3.578421220134847 2.657949052877155 2.912134661342427 0.23605709500271607 1.0153625769535288 -1.4389217408683928
Ni 1.2954746333606617 3.493951132935533 8.197994211499237 -0.15051495016483757 0.5454505368057381 -0.43687619273874445
Ni 3.7125844060879163 2.71753168728924 7.036030127455368 -0.21655630596562706 0.08391823608121032 0.27133340170650694
Ni 4.004216632247692 7.179039357620465 6.05000615476829 0.019988013086152674 -0.914332106672064 -0.20632742914876726
Ni 0.7892358475564442 7.48145190481956 11.247968820902999 -0.260308511350913 0.11737137353333335 0.751755340246686
P 0.22102657714028612 5.636962608073709 8.123933587752054 0.5790252874373899 -1.797368745664956 -2.4144054793491128
P 8.245891196056222 1.4297559847214134 7.852340396805839 0.6539446624540995 -0.7009135750044703 -0.4864043813758591
P 1.9537377609714568 3.3817303542243815 10.42873168530071 -0.5340543791536545 0.16719266793083462 0.5592213653375853
P 3.887687360979511 5.927767676379708 3.668578699302375 1.086524541810335 1.449665095427826 0.05954443522253616
P 7.052447847405805 3.9529964728408116 10.418248595709946 0.4535104588613158 0.10959815734581771 -0.8786341390498222
P 6.450913205129231 7.904993084539697 10.316715423641316 -0.9138855060529486 -1.1797110905673491 -0.567890610976809
P 2.389177288280522 8.701391573731033 5.785570151668921 0.7105199877459828 -0.43902100699588903 -0.24631091152024032
P 7.117229759755909 3.8081075037288925 1.5101466384616664 -1.5422096397254665 0.9998200012332393 0.9255395453521091
Ni 5.3792620332122265 2.9153314901025693 0.47142816566570334 0.3125237599018876 -0.1765661387259346 0.10750887891695678
Ni 1.5522026160204512 1.0260938624321274 7.170529630337995 -1.0179511636163114 0.7541804047484109 -0.6578010600857123
Ni 7.047503079576641 0.7526500194086728 9.602497339634281 -1.1718288596057949 -0.17602826394459362 -0.5361344016111347
Ni 2.5046794294665413 1.6546247555407214 9.293002139691648 0.8500326732630458 -0.3234841155681332 -0.15319841053427166
Ni 6.486008331210857 1.7452303542927672 2.681263996777536 1.4581134833054952 1.2613379595112213 -0.0047447137738369895
Ni 4.108074935953638 7.234667995698568 10.275686576164693 0.8070142607199907 -0.6106025480230388 0.04990022726455277
Ni 8.26781542400465 7.01684370110647 0.5120952452018844 -0.08023050281697795 0.5333231574145847 -0.7526819658260133
Ni 7.692413516119342 3.735699377759912 8.06610252826769 0.548493694507436 0.33198495395029276 0.04258672432227504
Ni 3.0149085701917206 8.250799605298408 12.294697090410471 -0.3801409448302292 0.3459211044154107 0.9630041179564706
Ni 0.07839184042107432 4.673069198316165 10.165053758739855 0.10808094937034289 0.05504449046965359 0.9558261121507927
Ni 8.741895039625808 2.2822285046813473 5.870620158330552 0.10828612340261351 0.5428202982717425 0.6533263121438103
Ni 3.5862746749223438 2.7000886551859917 11.747732142366232 0.15865531988378484 0.7328055386170605 -0.6646435369288424
Ni 1.2189125388293132 3.58043912171219 12.792372520016425 -0.37718546174633105 -0.16436676844626533 -1.0183180600374269
Ni 3.1782858807825387 8.534214790800895 8.16943181453309 -0.17029933188061638 -0.026950817557231006 -0.984477200228582
Ni 5.519369848136387 7.860299291495575 3.7551857624513882 0.6385416976354681 0.09249337934473104 -0.24214726706085396
Ni 3.1813036435018085 8.40108782457673 3.610122272121969 -0.30340688520228387 0.621184180193627 -0.44820010239199587
Ni 3.508303685145553 4.473869589904138 9.266381291270188 -0.3979993131678887 -0.5382488768509762 0.2432055331220392
Ni 7.133836544358635 6.081309989192665 11.600674383541007 1.3860765720429034 0.30243243710415657 -0.7009505988899928
Ni 0.447163353680492 0.04089613863414974 0.28754461201864395 0.33343865567768377 0.13748794177755033 0.27610691183575026
Ni 4.654244539907709 0.47263617971808564 1.6994176257343616 -0.11109505360631834 -1.4894904549548798 -0.2588059586634575
Ni 6.077837744136156 5.560564127183767 0.3260419928768442 -0.4715354346838267 0.38541607718623944 0.1515927566100486
Ni 7.761185783390407 8.548667329125108 11.87612522056571 0.9026333301778972 1.2729454618431626 -0.20002771218298454
Ni 0.09891626277080541 4.743704843169912 6.086072055122259 -1.4998666559828813 0.15168248811037746 -1.1575669503701418
Ni 8.01805011075137 8.572718534411816 2.5109649201905624 -0.7491454134276646 0.6014633047259319 0.43662011086388036
P 8.608777163048389 1.6846660380322453 3.7891365020078456 0.46454460518829027 -0.1787891145191824 -2.420434202041696
P 1.7639641162337751 3.2552751887108924 1.5533833611325991 0.11383867778972653 0.6609552894439777 0.9657611118763174
P 4.6366469838098 1.1897620417187784 8.263515112129692 0.2774364292804512 -0.18082774221576597 0.7532990305847219
P 8.41758553341852 1.7908967395385818 12.475440171107207 1.0252410124095053 -1.4537048127148382 -0.3613785766210615
P 6.292253421198958 7.595099758069643 1.2854296647429968 0.693568961713941 0.6076774039564438 1.2360812418269613
P 1.780979934940018 3.183748758476156 6.05182862894062 0.1163341905180706 -0.24034569507574094 -0.1016778740574765
P 6.911985536258597 3.921273605701502 5.943577298962917 -0.3478915978782202 0.49085264695519987 0.31570601428461115
P 2.3226865223423983 8.678776532630001 10.116469596888964 -0.7260499650607818 -0.051227687826724676 1.565390448717304
